data_image0
_chemical_formula_structural       HCH2CH7C2SCH2FeCHCH2C4H4CHNH3SCH2C2HSC4H9SHCSCH4FeHFeSFeH2SHC3HSCH3CH3C2HC3HC2NCH3CSCH4C2H5FeCSHCH3CFeSCHSCH3C2H2C2H6CH3CNH3CH5C2HFeCSHFeCH2CSHCHSCNCH3CH9C2FeH2CHCH10CH2C2H2C2H4SC2HFeC2HC2HSC2HCSH3FeH2CH2S2FeC5HCH3CH7SH2CHCHCH3CH8C2HSHSH2C2H3CHCH2CH2NH2C2H3C3H3CH3C2HCNCH6CH5C3SH2C2H2CHSHC3H4SCH3CH2CH2CH2SHCH5C4H3CHFeHC3H3SHFeCH2SCHCH6C3NHC2NCHFeH4FeHCHSC2H3C2HCH2CSCHC3H3SH3SH2SHSH2SHCFeCH3SH3CH2C2H3C2H3CHC2HSC2FeSH4SCHCFeHCHCFe2NCH2CH5C2HCH3CH2C2SNC2H4CHC2H2CHSCHCH5CH2CHC3HCH5C2SH4FeH2C3HSH2CHNCH2CHSH2CHFeH2CHC2HSC2HCHC2NH2CSH2CHC2SHC2H4CH4FeH3C2HSH2FeH3CHFeH6SH2CH2C2H2CSHC3H3CHC4HCH2FeH2CFeH5CH6CHCSH3CH2CHSC2HSH3CNH2SCH5CSHCH3C2HSHCFeH4FeHS2H2CH2NHCHC6H2FeC2HCHCH2SHCH2CH2C2H3CHFeCSHCH2C3HCH2CHC2H2CHNHCSH3C4H2CH2CH5CH6CH5CH2CHCH3CH9CSHC2SC2NHC
_chemical_formula_sum              "H512 C288 S64 Fe32 N16"
_cell_length_a       28.7159
_cell_length_b       35.9814
_cell_length_c       23.7416
_cell_angle_alpha    89.6618
_cell_angle_beta     88.5844
_cell_angle_gamma    90.533

_space_group_name_H-M_alt    "P 1"
_space_group_IT_number       1

loop_
  _space_group_symop_operation_xyz
  'x, y, z'

loop_
  _atom_site_type_symbol
  _atom_site_label
  _atom_site_symmetry_multiplicity
  _atom_site_fract_x
  _atom_site_fract_y
  _atom_site_fract_z
  _atom_site_occupancy
  H   H1        1.0  0.50082  0.25904  0.17031  1.0000
  C   C1        1.0  0.41240  0.16349  0.26032  1.0000
  H   H2        1.0  0.12853  0.13301  0.14860  1.0000
  H   H3        1.0  0.40128  0.22161  0.26160  1.0000
  C   C2        1.0  0.39340  0.27205  0.17208  1.0000
  H   H4        1.0  0.35291  0.31189  0.12447  1.0000
  H   H5        1.0  0.14598  0.12449  0.24953  1.0000
  H   H6        1.0  0.32931  0.24697  0.14540  1.0000
  H   H7        1.0  0.21142  0.15975  0.16732  1.0000
  H   H8        1.0  0.41566  0.26519  0.13494  1.0000
  H   H9        1.0  0.44029  0.20782  0.20621  1.0000
  H   H10       1.0  0.41588  0.27343  0.20932  1.0000
  C   C3        1.0  0.51618  0.25728  0.25916  1.0000
  C   C4        1.0  0.40641  0.20059  0.22771  1.0000
  S   S1        1.0  0.47772  0.31147  0.05038  1.0000
  C   C5        1.0  0.11394  0.13767  0.23770  1.0000
  H   H11       1.0  0.14988  0.04746  0.33971  1.0000
  H   H12       1.0  0.33316  0.25179  0.21970  1.0000
  Fe  Fe1       1.0  0.53812  0.27273  0.04426  1.0000
  C   C6        1.0  0.35318  0.24313  0.18120  1.0000
  H   H13       1.0  0.38337  0.15978  0.29178  1.0000
  C   C7        1.0  0.28212  0.18135  0.16921  1.0000
  H   H14       1.0  0.45882  0.18701  0.32278  1.0000
  H   H15       1.0  0.29041  0.16864  0.12771  1.0000
  C   C8        1.0  0.08216  0.14928  0.27964  1.0000
  C   C9        1.0  0.10410  0.14246  0.18045  1.0000
  C   C10       1.0  0.39833  0.14927  0.12251  1.0000
  C   C11       1.0  0.40454  0.13889  0.06039  1.0000
  H   H16       1.0  0.25141  0.12961  0.20225  1.0000
  H   H17       1.0  0.26951  0.21000  0.16221  1.0000
  H   H18       1.0  0.33363  0.15133  0.21440  1.0000
  H   H19       1.0  0.23043  0.17127  0.23682  1.0000
  C   C12       1.0  0.24155  0.15909  0.19579  1.0000
  H   H20       1.0  0.11880  0.04797  0.21752  1.0000
  N   N1        1.0  0.36738  0.20281  0.18616  1.0000
  H   H21       1.0  0.48031  0.25364  0.27296  1.0000
  H   H22       1.0  0.35584  0.19534  0.09757  1.0000
  H   H23       1.0  0.37219  0.12982  0.14148  1.0000
  S   S2        1.0  0.09590  0.14306  0.35090  1.0000
  C   C13       1.0  0.38341  0.19021  0.12845  1.0000
  H   H24       1.0  0.41244  0.13903  0.23242  1.0000
  H   H25       1.0  0.46115  0.13717  0.31633  1.0000
  C   C14       1.0  0.37436  0.31108  0.16279  1.0000
  C   C15       1.0  0.09328  0.04445  0.18358  1.0000
  H   H26       1.0  0.09580  0.01560  0.16766  1.0000
  S   S3        1.0  0.15828  0.10553  0.04184  1.0000
  C   C16       1.0  0.32525  0.18099  0.20752  1.0000
  C   C17       1.0  0.52766  0.26048  0.20136  1.0000
  C   C18       1.0  0.45795  0.16361  0.29242  1.0000
  C   C19       1.0  0.11237  0.04700  0.35225  1.0000
  H   H27       1.0  0.31404  0.19152  0.24976  1.0000
  H   H28       1.0  0.43246  0.14527  0.14254  1.0000
  H   H29       1.0  0.10745  0.06586  0.38869  1.0000
  H   H30       1.0  0.41370  0.20710  0.11284  1.0000
  H   H31       1.0  0.41669  0.10977  0.05690  1.0000
  H   H32       1.0  0.43074  0.15742  0.03905  1.0000
  H   H33       1.0  0.48837  0.16631  0.26275  1.0000
  H   H34       1.0  0.37093  0.14121  0.03839  1.0000
  H   H35       1.0  0.10280  0.06412  0.14885  1.0000
  S   S4        1.0  0.53629  0.25270  0.37127  1.0000
  H   H36       1.0  0.40379  0.33108  0.15670  1.0000
  C   C20       1.0  0.55109  0.25880  0.29942  1.0000
  S   S5        1.0  0.55064  0.33437  0.46764  1.0000
  C   C21       1.0  0.09616  0.00794  0.36928  1.0000
  H   H37       1.0  0.09151  0.05778  0.31710  1.0000
  H   H38       1.0  0.27097  0.23126  0.04918  1.0000
  H   H39       1.0  0.35285  0.31990  0.19977  1.0000
  H   H40       1.0  0.52481  0.33737  0.32852  1.0000
  Fe  Fe2       1.0  0.08816  0.13094  0.02826  1.0000
  H   H41       1.0  0.18491  0.05208  0.79326  1.0000
  Fe  Fe3       1.0  0.12371  0.05309  0.01250  1.0000
  S   S6        1.0  0.14397  0.06256  0.92228  1.0000
  Fe  Fe4       1.0  0.52167  0.25508  0.92165  1.0000
  H   H42       1.0  0.16666  0.19219  0.86206  1.0000
  H   H43       1.0  0.12534  0.12975  0.63535  1.0000
  S   S7        1.0  0.56682  0.29727  0.96312  1.0000
  H   H44       1.0  0.36516  0.21358  0.80742  1.0000
  C   C22       1.0  0.32034  0.28383  0.78797  1.0000
  C   C23       1.0  0.40329  0.21823  0.80290  1.0000
  C   C24       1.0  0.23680  0.10786  0.74817  1.0000
  H   H45       1.0  0.25005  0.28346  0.82355  1.0000
  S   S8        1.0  0.49798  0.22693  0.00255  1.0000
  C   C25       1.0  0.16321  0.20512  0.81981  1.0000
  H   H46       1.0  0.40368  0.29499  0.81858  1.0000
  H   H47       1.0  0.26118  0.24710  0.77337  1.0000
  H   H48       1.0  0.46327  0.28344  0.57013  1.0000
  C   C26       1.0  0.15167  0.05942  0.77350  1.0000
  H   H49       1.0  0.12937  0.14738  0.75876  1.0000
  H   H50       1.0  0.46461  0.18279  0.80510  1.0000
  H   H51       1.0  0.33275  0.24957  0.71394  1.0000
  C   C27       1.0  0.55476  0.26178  0.68322  1.0000
  C   C28       1.0  0.42614  0.18030  0.80999  1.0000
  H   H52       1.0  0.42826  0.23328  0.63018  1.0000
  C   C29       1.0  0.54832  0.29241  0.79137  1.0000
  C   C30       1.0  0.41566  0.23517  0.74431  1.0000
  C   C31       1.0  0.26265  0.07638  0.71626  1.0000
  H   H53       1.0  0.23454  0.10007  0.79367  1.0000
  C   C32       1.0  0.42523  0.27732  0.56992  1.0000
  C   C33       1.0  0.15076  0.15230  0.64389  1.0000
  N   N2        1.0  0.39946  0.27430  0.73299  1.0000
  C   C34       1.0  0.26807  0.27678  0.78295  1.0000
  H   H54       1.0  0.17720  0.15211  0.55689  1.0000
  H   H55       1.0  0.33254  0.26661  0.82329  1.0000
  H   H56       1.0  0.18880  0.19817  0.73520  1.0000
  C   C35       1.0  0.31949  0.17712  0.92042  1.0000
  S   S9        1.0  0.54695  0.22455  0.84432  1.0000
  C   C36       1.0  0.41973  0.29993  0.77633  1.0000
  H   H57       1.0  0.41798  0.16905  0.85279  1.0000
  H   H58       1.0  0.32523  0.31337  0.79996  1.0000
  H   H59       1.0  0.07422  0.02804  0.53264  1.0000
  H   H60       1.0  0.25353  0.29454  0.74935  1.0000
  C   C37       1.0  0.33008  0.22366  0.99279  1.0000
  C   C38       1.0  0.54708  0.31545  0.74362  1.0000
  H   H61       1.0  0.12988  0.07460  0.80468  1.0000
  H   H62       1.0  0.41547  0.23610  0.83748  1.0000
  H   H63       1.0  0.37119  0.25354  0.62389  1.0000
  H   H64       1.0  0.20991  0.11642  0.63853  1.0000
  H   H65       1.0  0.26825  0.08365  0.67114  1.0000
  Fe  Fe5       1.0  0.43933  0.26797  0.00143  1.0000
  C   C39       1.0  0.34688  0.27590  0.73146  1.0000
  S   S10       1.0  0.10357  0.14754  0.93754  1.0000
  H   H66       1.0  0.45429  0.23387  0.73833  1.0000
  C   C40       1.0  0.55498  0.23863  0.73108  1.0000
  H   H67       1.0  0.40628  0.30353  0.56191  1.0000
  H   H68       1.0  0.40077  0.21544  0.71357  1.0000
  H   H69       1.0  0.41302  0.16031  0.77849  1.0000
  C   C41       1.0  0.40904  0.25976  0.62596  1.0000
  Fe  Fe6       1.0  0.17147  0.11800  0.94983  1.0000
  S   S11       1.0  0.45973  0.29230  0.91748  1.0000
  C   C42       1.0  0.27413  0.16948  0.94110  1.0000
  H   H70       1.0  0.33253  0.09502  0.73791  1.0000
  S   S12       1.0  0.23967  0.13596  0.90713  1.0000
  C   C43       1.0  0.31038  0.06958  0.74136  1.0000
  H   H71       1.0  0.38271  0.20937  0.93098  1.0000
  H   H72       1.0  0.13362  0.17280  0.67203  1.0000
  H   H73       1.0  0.24282  0.04981  0.71914  1.0000
  C   C44       1.0  0.34759  0.20393  0.94649  1.0000
  C   C45       1.0  0.16638  0.14333  0.76895  1.0000
  H   H74       1.0  0.22209  0.15918  0.67145  1.0000
  H   H75       1.0  0.17828  0.23359  0.82133  1.0000
  C   C46       1.0  0.41942  0.28590  0.67592  1.0000
  C   C47       1.0  0.15900  0.08382  0.72004  1.0000
  H   H76       1.0  0.16553  0.13032  0.81169  1.0000
  H   H77       1.0  0.22194  0.18328  0.00399  1.0000
  H   H78       1.0  0.33299  0.16196  0.88450  1.0000
  H   H79       1.0  0.18589  0.19566  0.59360  1.0000
  H   H80       1.0  0.30651  0.06134  0.78645  1.0000
  H   H81       1.0  0.17234  0.06616  0.68494  1.0000
  C   C48       1.0  0.19564  0.13643  0.66986  1.0000
  H   H82       1.0  0.54526  0.30437  0.83297  1.0000
  H   H83       1.0  0.45792  0.28878  0.67771  1.0000
  H   H84       1.0  0.40650  0.31383  0.66377  1.0000
  C   C49       1.0  0.18927  0.18227  0.77531  1.0000
  N   N3        1.0  0.18944  0.11784  0.72673  1.0000
  H   H85       1.0  0.32818  0.04680  0.71821  1.0000
  H   H86       1.0  0.12570  0.20721  0.80989  1.0000
  H   H87       1.0  0.22585  0.17988  0.78875  1.0000
  C   C50       1.0  0.25690  0.18889  0.98787  1.0000
  H   H88       1.0  0.12339  0.09196  0.70759  1.0000
  H   H89       1.0  0.26035  0.13258  0.74652  1.0000
  H   H90       1.0  0.09261  0.02889  0.74007  1.0000
  H   H91       1.0  0.45708  0.29363  0.78171  1.0000
  H   H92       1.0  0.55675  0.20879  0.72625  1.0000
  C   C51       1.0  0.12631  0.02315  0.76012  1.0000
  C   C52       1.0  0.16167  0.17184  0.58772  1.0000
  H   H93       1.0  0.33565  0.29802  0.70181  1.0000
  Fe  Fe7       1.0  0.50310  0.33236  0.96601  1.0000
  C   C53       1.0  0.55007  0.30020  0.68955  1.0000
  S   S13       1.0  0.54147  0.32921  0.63121  1.0000
  H   H94       1.0  0.11896  0.00746  0.79982  1.0000
  Fe  Fe8       1.0  0.07529  0.09113  0.91562  1.0000
  C   C54       1.0  0.55102  0.25390  0.78514  1.0000
  H   H95       1.0  0.55625  0.24984  0.64150  1.0000
  H   H96       1.0  0.12887  0.18260  0.57009  1.0000
  C   C55       1.0  0.28472  0.21606  0.01338  1.0000
  S   S14       1.0  0.36398  0.25747  0.02687  1.0000
  H   H97       1.0  0.41847  0.25783  0.53489  1.0000
  C   C56       1.0  0.47029  0.44714  0.34637  1.0000
  H   H98       1.0  0.48133  0.54140  0.08008  1.0000
  S   S15       1.0  0.49265  0.62865  0.43940  1.0000
  C   C57       1.0  0.46875  0.55926  0.22451  1.0000
  N   N4        1.0  0.48819  0.54639  0.27988  1.0000
  C   C58       1.0  0.55295  0.35820  0.32012  1.0000
  H   H99       1.0  0.48984  0.43350  0.07666  1.0000
  H   H100      1.0  0.43109  0.55209  0.22249  1.0000
  H   H101      1.0  0.40025  0.53580  0.33643  1.0000
  C   C59       1.0  0.49215  0.54319  0.17023  1.0000
  H   H102      1.0  0.46111  0.42259  0.14370  1.0000
  H   H103      1.0  0.54622  0.38288  0.34693  1.0000
  H   H104      1.0  0.47118  0.59021  0.22090  1.0000
  H   H105      1.0  0.42859  0.54597  0.12151  1.0000
  H   H106      1.0  0.56169  0.34325  0.23347  1.0000
  H   H107      1.0  0.40147  0.61606  0.38029  1.0000
  H   H108      1.0  0.55841  0.53140  0.25469  1.0000
  H   H109      1.0  0.46767  0.58546  0.11202  1.0000
  H   H110      1.0  0.48060  0.43379  0.38638  1.0000
  C   C60       1.0  0.48143  0.41098  0.10762  1.0000
  C   C61       1.0  0.48981  0.48681  0.34309  1.0000
  Fe  Fe9       1.0  0.50521  0.59518  0.51725  1.0000
  H   H111      1.0  0.40717  0.57430  0.42256  1.0000
  H   H112      1.0  0.52863  0.55345  0.16498  1.0000
  C   C62       1.0  0.39249  0.58600  0.38339  1.0000
  H   H113      1.0  0.48412  0.43026  0.31083  1.0000
  C   C63       1.0  0.47792  0.50530  0.28625  1.0000
  H   H114      1.0  0.47874  0.56189  0.36787  1.0000
  H   H115      1.0  0.55709  0.58840  0.35028  1.0000
  H   H116      1.0  0.43163  0.44731  0.34549  1.0000
  H   H117      1.0  0.49247  0.51243  0.17084  1.0000
  H   H118      1.0  0.49773  0.48933  0.25395  1.0000
  H   H119      1.0  0.45946  0.38999  0.08647  1.0000
  H   H120      1.0  0.44064  0.49939  0.27776  1.0000
  H   H121      1.0  0.39428  0.57745  0.29442  1.0000
  H   H122      1.0  0.53906  0.40989  0.47246  1.0000
  H   H123      1.0  0.47511  0.50206  0.37973  1.0000
  C   C64       1.0  0.41122  0.56529  0.33167  1.0000
  H   H124      1.0  0.47377  0.59902  0.31958  1.0000
  H   H125      1.0  0.35398  0.58309  0.38634  1.0000
  C   C65       1.0  0.46504  0.56897  0.32596  1.0000
  C   C66       1.0  0.46571  0.55482  0.11796  1.0000
  H   H126      1.0  0.51611  0.36989  0.15691  1.0000
  H   H127      1.0  0.54371  0.38032  0.09063  1.0000
  C   C67       1.0  0.54817  0.43892  0.47167  1.0000
  C   C68       1.0  0.54014  0.55387  0.27784  1.0000
  H   H128      1.0  0.49608  0.66818  0.24941  1.0000
  H   H129      1.0  0.51927  0.37917  0.24769  1.0000
  H   H130      1.0  0.52815  0.48476  0.34682  1.0000
  H   H131      1.0  0.55117  0.54050  0.36773  1.0000
  S   S16       1.0  0.53840  0.64480  0.14551  1.0000
  C   C69       1.0  0.55438  0.36883  0.25775  1.0000
  C   C70       1.0  0.51657  0.46477  0.49405  1.0000
  H   H132      1.0  0.53724  0.43957  0.18421  1.0000
  Fe  Fe10      1.0  0.56261  0.65396  0.45521  1.0000
  C   C71       1.0  0.52739  0.50277  0.49325  1.0000
  C   C72       1.0  0.52605  0.39289  0.12791  1.0000
  H   H133      1.0  0.48356  0.45523  0.51203  1.0000
  C   C73       1.0  0.54992  0.66628  0.31101  1.0000
  C   C74       1.0  0.55858  0.42224  0.15488  1.0000
  H   H134      1.0  0.54830  0.57962  0.25313  1.0000
  S   S17       1.0  0.48586  0.53431  0.51994  1.0000
  C   C75       1.0  0.53241  0.66262  0.25672  1.0000
  C   C76       1.0  0.56420  0.55987  0.33492  1.0000
  H   H135      1.0  0.24174  0.66412  0.51245  1.0000
  C   C77       1.0  0.56173  0.65153  0.21206  1.0000
  S   S18       1.0  0.56599  0.57542  0.03088  1.0000
  H   H136      1.0  0.18391  0.65659  0.48688  1.0000
  H   H137      1.0  0.33067  0.65576  0.35497  1.0000
  H   H138      1.0  0.13834  0.65457  0.30508  1.0000
  Fe  Fe11      1.0  0.46430  0.67197  0.49840  1.0000
  H   H139      1.0  0.18508  0.66554  0.39082  1.0000
  H   H140      1.0  0.26157  0.66874  0.41974  1.0000
  C   C78       1.0  0.48329  0.48756  0.82444  1.0000
  H   H141      1.0  0.38055  0.61729  0.66917  1.0000
  H   H142      1.0  0.52149  0.61923  0.68034  1.0000
  S   S19       1.0  0.53627  0.59591  0.88167  1.0000
  S   S20       1.0  0.47096  0.63645  0.57566  1.0000
  Fe  Fe12      1.0  0.54284  0.66152  0.57999  1.0000
  C   C79       1.0  0.52810  0.60895  0.76923  1.0000
  C   C80       1.0  0.55404  0.44167  0.63010  1.0000
  C   C81       1.0  0.53444  0.50172  0.81728  1.0000
  C   C82       1.0  0.43028  0.36543  0.81419  1.0000
  C   C83       1.0  0.53845  0.62755  0.71842  1.0000
  H   H143      1.0  0.51162  0.47115  0.94531  1.0000
  C   C84       1.0  0.54218  0.45932  0.96379  1.0000
  H   H144      1.0  0.44154  0.34984  0.72835  1.0000
  H   H145      1.0  0.18737  0.64914  0.59033  1.0000
  H   H146      1.0  0.42865  0.39545  0.80342  1.0000
  C   C85       1.0  0.54634  0.42080  0.96820  1.0000
  H   H147      1.0  0.45199  0.54252  0.83013  1.0000
  H   H148      1.0  0.52653  0.46091  0.61606  1.0000
  H   H149      1.0  0.50249  0.58678  0.77022  1.0000
  H   H150      1.0  0.46750  0.52267  0.89709  1.0000
  H   H151      1.0  0.43476  0.60268  0.69927  1.0000
  H   H152      1.0  0.48132  0.46156  0.84970  1.0000
  H   H153      1.0  0.38020  0.59216  0.73513  1.0000
  S   S21       1.0  0.50173  0.39270  0.94175  1.0000
  H   H154      1.0  0.38112  0.34984  0.75089  1.0000
  H   H155      1.0  0.46158  0.66842  0.69052  1.0000
  C   C86       1.0  0.39932  0.61334  0.70913  1.0000
  H   H156      1.0  0.41720  0.50538  0.86118  1.0000
  C   C87       1.0  0.40212  0.64988  0.74152  1.0000
  H   H157      1.0  0.36856  0.66776  0.57710  1.0000
  C   C88       1.0  0.55049  0.61923  0.81859  1.0000
  H   H158      1.0  0.42004  0.64396  0.78136  1.0000
  H   H159      1.0  0.36577  0.65850  0.75069  1.0000
  H   H160      1.0  0.46725  0.48222  0.78323  1.0000
  C   C89       1.0  0.45326  0.51634  0.85507  1.0000
  H   H161      1.0  0.53348  0.52944  0.79630  1.0000
  H   H162      1.0  0.54111  0.42747  0.82867  1.0000
  H   H163      1.0  0.52188  0.44276  0.73548  1.0000
  H   H164      1.0  0.54669  0.50703  0.86062  1.0000
  H   H165      1.0  0.54257  0.34506  0.74862  1.0000
  H   H166      1.0  0.46645  0.35908  0.82658  1.0000
  H   H167      1.0  0.53788  0.41454  0.64231  1.0000
  H   H168      1.0  0.52483  0.49026  0.71438  1.0000
  C   C90       1.0  0.54637  0.46680  0.72980  1.0000
  C   C91       1.0  0.41677  0.34216  0.76334  1.0000
  H   H169      1.0  0.40614  0.35984  0.85061  1.0000
  S   S22       1.0  0.40150  0.70608  0.47546  1.0000
  H   H170      1.0  0.11208  0.69374  0.27070  1.0000
  S   S23       1.0  0.53367  0.70044  0.50711  1.0000
  H   H171      1.0  0.34677  0.77133  0.49172  1.0000
  H   H172      1.0  0.29080  0.77196  0.41053  1.0000
  C   C92       1.0  0.25615  0.78217  0.42475  1.0000
  C   C93       1.0  0.17687  0.69565  0.39397  1.0000
  H   H173      1.0  0.18545  0.90367  0.35141  1.0000
  H   H174      1.0  0.12016  0.81221  0.45061  1.0000
  H   H175      1.0  0.15795  0.82502  0.11580  1.0000
  C   C94       1.0  0.09971  0.79965  0.41803  1.0000
  H   H176      1.0  0.25449  0.82293  0.35634  1.0000
  C   C95       1.0  0.17374  0.92582  0.38074  1.0000
  H   H177      1.0  0.10543  0.93830  0.12907  1.0000
  H   H178      1.0  0.10882  0.88605  0.29743  1.0000
  C   C96       1.0  0.11997  0.92556  0.38545  1.0000
  H   H179      1.0  0.21849  0.76004  0.35612  1.0000
  H   H180      1.0  0.14492  0.73681  0.33852  1.0000
  N   N5        1.0  0.21673  0.71672  0.42057  1.0000
  H   H181      1.0  0.18298  0.76963  0.41597  1.0000
  H   H182      1.0  0.18814  0.94109  0.46716  1.0000
  C   C97       1.0  0.10220  0.81396  0.36301  1.0000
  C   C98       1.0  0.20857  0.71539  0.48369  1.0000
  H   H183      1.0  0.17835  0.93286  0.26880  1.0000
  H   H184      1.0  0.13237  0.78419  0.08408  1.0000
  H   H185      1.0  0.07411  0.91482  0.25538  1.0000
  C   C99       1.0  0.21658  0.75705  0.40260  1.0000
  C   C100      1.0  0.14684  0.92603  0.24504  1.0000
  C   C101      1.0  0.16091  0.70889  0.33514  1.0000
  H   H186      1.0  0.19024  0.71067  0.30411  1.0000
  H   H187      1.0  0.10913  0.94119  0.42363  1.0000
  H   H188      1.0  0.12551  0.83690  0.35337  1.0000
  C   C102      1.0  0.10447  0.91532  0.28389  1.0000
  H   H189      1.0  0.12819  0.88502  0.18149  1.0000
  H   H190      1.0  0.23340  0.91476  0.43263  1.0000
  H   H191      1.0  0.14336  0.98330  0.30912  1.0000
  C   C103      1.0  0.08051  0.97187  0.06157  1.0000
  C   C104      1.0  0.15924  0.89431  0.20487  1.0000
  H   H192      1.0  0.18780  0.95304  0.36600  1.0000
  C   C105      1.0  0.25133  0.82202  0.40306  1.0000
  N   N6        1.0  0.09451  0.93943  0.33476  1.0000
  C   C106      1.0  0.19509  0.91776  0.43778  1.0000
  H   H193      1.0  0.10998  0.89633  0.39532  1.0000
  H   H194      1.0  0.14468  0.69706  0.42131  1.0000
  H   H195      1.0  0.18043  0.89168  0.45659  1.0000
  H   H196      1.0  0.13822  0.95087  0.21939  1.0000
  H   H197      1.0  0.18658  0.90373  0.17397  1.0000
  H   H198      1.0  0.25646  0.68166  0.31961  1.0000
  C   C107      1.0  0.12393  0.68278  0.31174  1.0000
  H   H199      1.0  0.17579  0.73024  0.49521  1.0000
  H   H200      1.0  0.27925  0.83976  0.42058  1.0000
  H   H201      1.0  0.17258  0.87018  0.22882  1.0000
  H   H202      1.0  0.21707  0.83351  0.41656  1.0000
  H   H203      1.0  0.25501  0.78356  0.47121  1.0000
  C   C108      1.0  0.07677  0.94340  0.10175  1.0000
  C   C109      1.0  0.20617  0.67594  0.51071  1.0000
  C   C110      1.0  0.10615  0.97961  0.32144  1.0000
  S   S24       1.0  0.13242  0.99800  0.05598  1.0000
  H   H204      1.0  0.23667  0.73013  0.50591  1.0000
  H   H205      1.0  0.09321  0.68095  0.34107  1.0000
  C   C111      1.0  0.26282  0.69861  0.40742  1.0000
  C   C112      1.0  0.16420  0.80188  0.08584  1.0000
  H   H206      1.0  0.27972  0.72820  0.32744  1.0000
  H   H207      1.0  0.33969  0.68456  0.29316  1.0000
  C   C113      1.0  0.27941  0.69960  0.34498  1.0000
  H   H208      1.0  0.29068  0.71091  0.43358  1.0000
  S   S25       1.0  0.08016  0.81683  0.25195  1.0000
  H   H209      1.0  0.12655  0.86111  0.03773  1.0000
  C   C114      1.0  0.07547  0.79818  0.32048  1.0000
  C   C115      1.0  0.07292  0.76787  0.42999  1.0000
  C   C116      1.0  0.32889  0.68462  0.33840  1.0000
  H   H210      1.0  0.21322  0.89195  0.03940  1.0000
  H   H211      1.0  0.19280  0.78453  0.10193  1.0000
  H   H212      1.0  0.35380  0.70243  0.36141  1.0000
  H   H213      1.0  0.08662  0.98868  0.28394  1.0000
  S   S26       1.0  0.07516  0.74627  0.49640  1.0000
  C   C117      1.0  0.17755  0.81682  0.02718  1.0000
  H   H214      1.0  0.11475  0.00052  0.40807  1.0000
  H   H215      1.0  0.52728  0.67508  0.34535  1.0000
  H   H216      1.0  0.21153  0.83119  0.03003  1.0000
  C   C118      1.0  0.33867  0.75253  0.52637  1.0000
  H   H217      1.0  0.14745  0.91770  0.99313  1.0000
  H   H218      1.0  0.50863  0.76788  0.59460  1.0000
  C   C119      1.0  0.30603  0.76281  0.56839  1.0000
  H   H219      1.0  0.46779  0.80292  0.61862  1.0000
  H   H220      1.0  0.10956  0.82280  0.99574  1.0000
  C   C120      1.0  0.10656  0.87149  0.91951  1.0000
  H   H221      1.0  0.12627  0.90925  0.71602  1.0000
  H   H222      1.0  0.12167  0.93600  0.77983  1.0000
  S   S27       1.0  0.16519  0.83297  0.68706  1.0000
  H   H223      1.0  0.07301  0.96203  0.70447  1.0000
  C   C121      1.0  0.21875  0.90174  0.99529  1.0000
  H   H224      1.0  0.21231  0.80856  0.81143  1.0000
  H   H225      1.0  0.14803  0.00573  0.73152  1.0000
  H   H226      1.0  0.12499  0.74099  0.89727  1.0000
  H   H227      1.0  0.11513  0.76661  0.80062  1.0000
  H   H228      1.0  0.40732  0.75401  0.63599  1.0000
  C   C122      1.0  0.39132  0.73662  0.74707  1.0000
  C   C123      1.0  0.36831  0.72939  0.80607  1.0000
  C   C124      1.0  0.11097  0.97828  0.55450  1.0000
  C   C125      1.0  0.23986  0.94083  0.99803  1.0000
  H   H229      1.0  0.52226  0.76301  0.88727  1.0000
  H   H230      1.0  0.23800  0.84960  0.77931  1.0000
  H   H231      1.0  0.36518  0.72983  0.71470  1.0000
  C   C126      1.0  0.35156  0.69440  0.57489  1.0000
  H   H232      1.0  0.16393  0.86416  0.82855  1.0000
  Fe  Fe13      1.0  0.09569  0.80442  0.68571  1.0000
  H   H233      1.0  0.46081  0.76840  0.81549  1.0000
  C   C127      1.0  0.46587  0.71065  0.78487  1.0000
  C   C128      1.0  0.22886  0.83592  0.82023  1.0000
  C   C129      1.0  0.19539  0.86048  0.85415  1.0000
  H   H234      1.0  0.44711  0.71943  0.60894  1.0000
  H   H235      1.0  0.07389  0.89033  0.52782  1.0000
  H   H236      1.0  0.13961  0.99320  0.57304  1.0000
  S   S28       1.0  0.25627  0.75172  0.66776  1.0000
  H   H237      1.0  0.28917  0.78952  0.56624  1.0000
  Fe  Fe14      1.0  0.14713  0.85423  0.60130  1.0000
  C   C130      1.0  0.31894  0.70471  0.61700  1.0000
  H   H238      1.0  0.24473  0.88401  0.97350  1.0000
  H   H239      1.0  0.21267  0.88788  0.85954  1.0000
  S   S29       1.0  0.12347  0.75222  0.64713  1.0000
  C   C131      1.0  0.18639  0.67727  0.57094  1.0000
  H   H240      1.0  0.20718  0.69650  0.59692  1.0000
  C   C132      1.0  0.11086  0.93934  0.55408  1.0000
  H   H241      1.0  0.30363  0.74036  0.85221  1.0000
  H   H242      1.0  0.31117  0.68604  0.65194  1.0000
  H   H243      1.0  0.21599  0.83585  0.93224  1.0000
  H   H244      1.0  0.16621  0.81486  0.90361  1.0000
  H   H245      1.0  0.39587  0.76736  0.74378  1.0000
  H   H246      1.0  0.29619  0.72814  0.77952  1.0000
  C   C133      1.0  0.17167  0.90196  0.96505  1.0000
  C   C134      1.0  0.29598  0.73889  0.61373  1.0000
  C   C135      1.0  0.42790  0.68014  0.70590  1.0000
  N   N7        1.0  0.43667  0.71706  0.73376  1.0000
  H   H247      1.0  0.26153  0.83144  0.84333  1.0000
  C   C136      1.0  0.13905  0.84228  0.00354  1.0000
  C   C137      1.0  0.46505  0.74073  0.69243  1.0000
  N   N8        1.0  0.15099  0.86453  0.95069  1.0000
  C   C138      1.0  0.18267  0.84242  0.91206  1.0000
  H   H248      1.0  0.24656  0.95229  0.95501  1.0000
  Fe  Fe15      1.0  0.11008  0.77950  0.56386  1.0000
  H   H249      1.0  0.50058  0.72907  0.68632  1.0000
  H   H250      1.0  0.14961  0.68661  0.57102  1.0000
  H   H251      1.0  0.17553  0.91971  0.92667  1.0000
  H   H252      1.0  0.36704  0.69958  0.81751  1.0000
  Fe  Fe16      1.0  0.19215  0.78279  0.64104  1.0000
  H   H253      1.0  0.38824  0.74393  0.83894  1.0000
  C   C139      1.0  0.07377  0.92028  0.52985  1.0000
  H   H254      1.0  0.07361  0.90720  0.98452  1.0000
  S   S30       1.0  0.18068  0.80668  0.55481  1.0000
  C   C140      1.0  0.50584  0.73760  0.86995  1.0000
  C   C141      1.0  0.31844  0.74393  0.80885  1.0000
  H   H255      1.0  0.18242  0.79241  0.99917  1.0000
  H   H256      1.0  0.51663  0.75652  0.78491  1.0000
  H   H257      1.0  0.31764  0.77390  0.79738  1.0000
  C   C142      1.0  0.08979  0.77260  0.83375  1.0000
  C   C143      1.0  0.47118  0.77524  0.59859  1.0000
  H   H258      1.0  0.45677  0.77680  0.55561  1.0000
  C   C144      1.0  0.44441  0.74571  0.63304  1.0000
  H   H259      1.0  0.47034  0.76916  0.70949  1.0000
  H   H260      1.0  0.11263  0.89266  0.88565  1.0000
  C   C145      1.0  0.48695  0.74600  0.81163  1.0000
  S   S31       1.0  0.15778  0.91539  0.58336  1.0000
  C   C146      1.0  0.07401  0.99809  0.53141  1.0000
  H   H261      1.0  0.09517  0.84582  0.89766  1.0000
  C   C147      1.0  0.09535  0.75822  0.88838  1.0000
  C   C148      1.0  0.10244  0.91729  0.75138  1.0000
  C   C149      1.0  0.36169  0.71842  0.52963  1.0000
  H   H262      1.0  0.40651  0.68378  0.66809  1.0000
  H   H263      1.0  0.53261  0.71550  0.86724  1.0000
  H   H264      1.0  0.47728  0.72836  0.89934  1.0000
  S   S32       1.0  0.07586  0.82894  0.60287  1.0000
  H   H265      1.0  0.09145  0.89199  0.77549  1.0000
  H   H266      1.0  0.49570  0.69234  0.77381  1.0000
  H   H267      1.0  0.44623  0.69509  0.81829  1.0000
  S   S33       1.0  0.06832  0.74623  0.99859  1.0000
  H   H268      1.0  0.27341  0.93991  0.02027  1.0000
  H   H269      1.0  0.21613  0.95970  0.02155  1.0000
  S   S34       1.0  0.99315  0.17357  0.46017  1.0000
  H   H270      1.0  0.71943  0.25176  0.34507  1.0000
  S   S35       1.0  0.86296  0.14781  0.41368  1.0000
  H   H271      1.0  0.04491  0.07799  0.23034  1.0000
  H   H272      1.0  0.85284  0.29328  0.25240  1.0000
  S   S36       1.0  0.97739  0.09418  0.39494  1.0000
  H   H273      1.0  0.72015  0.21948  0.44290  1.0000
  C   C150      1.0  0.73706  0.25075  0.30291  1.0000
  Fe  Fe17      1.0  0.93394  0.13338  0.44728  1.0000
  C   C151      1.0  0.04103  0.16668  0.26411  1.0000
  H   H274      1.0  0.76876  0.28777  0.40484  1.0000
  H   H275      1.0  0.88151  0.19810  0.50621  1.0000
  H   H276      1.0  0.84366  0.26002  0.40397  1.0000
  S   S37       1.0  0.05618  0.10068  0.49248  1.0000
  H   H277      1.0  0.86231  0.02821  0.05701  1.0000
  H   H278      1.0  0.91908  0.05710  0.29256  1.0000
  H   H279      1.0  0.01195  0.02604  0.13673  1.0000
  C   C152      1.0  0.04402  0.05162  0.20658  1.0000
  H   H280      1.0  0.00092  0.18713  0.19487  1.0000
  H   H281      1.0  0.01670  0.17621  0.29628  1.0000
  C   C153      1.0  0.75521  0.21484  0.45685  1.0000
  C   C154      1.0  0.78227  0.18636  0.43278  1.0000
  H   H282      1.0  0.95605  0.22056  0.35001  1.0000
  H   H283      1.0  0.76793  0.16917  0.40011  1.0000
  H   H284      1.0  0.97475  0.09895  0.24291  1.0000
  C   C155      1.0  0.69116  0.33386  0.13541  1.0000
  C   C156      1.0  0.82820  0.18061  0.44970  1.0000
  H   H285      1.0  0.03520  0.02825  0.23543  1.0000
  H   H286      1.0  0.97416  0.11941  0.17529  1.0000
  H   H287      1.0  0.91786  0.22455  0.41078  1.0000
  C   C157      1.0  0.95588  0.09843  0.20269  1.0000
  H   H288      1.0  0.62457  0.26471  0.31249  1.0000
  C   C158      1.0  0.72041  0.21527  0.27421  1.0000
  C   C159      1.0  0.77401  0.23761  0.49818  1.0000
  H   H289      1.0  0.89370  0.06694  0.13168  1.0000
  S   S38       1.0  0.65161  0.31002  0.40883  1.0000
  C   C160      1.0  0.90590  0.11336  0.21384  1.0000
  C   C161      1.0  0.00877  0.05324  0.15850  1.0000
  Fe  Fe18      1.0  0.99274  0.06588  0.47672  1.0000
  S   S39       1.0  0.60483  0.26127  0.51621  1.0000
  H   H290      1.0  0.89243  0.12551  0.17433  1.0000
  H   H291      1.0  0.02158  0.07480  0.12769  1.0000
  H   H292      1.0  0.94278  0.08755  0.09596  1.0000
  H   H293      1.0  0.73488  0.21376  0.23047  1.0000
  S   S40       1.0  0.59090  0.26613  0.11212  1.0000
  C   C162      1.0  0.94217  0.03460  0.27722  1.0000
  H   H294      1.0  0.79691  0.22701  0.33871  1.0000
  C   C163      1.0  0.93137  0.06285  0.12168  1.0000
  Fe  Fe19      1.0  0.03726  0.13182  0.41412  1.0000
  H   H295      1.0  0.86912  0.15388  0.26540  1.0000
  C   C164      1.0  0.84628  0.20249  0.49259  1.0000
  H   H296      1.0  0.72511  0.27479  0.27805  1.0000
  C   C165      1.0  0.59748  0.26400  0.28179  1.0000
  Fe  Fe20      1.0  0.67179  0.29231  0.49596  1.0000
  Fe  Fe21      1.0  0.58262  0.28296  0.43166  1.0000
  N   N9        1.0  0.95863  0.06079  0.17529  1.0000
  C   C166      1.0  0.90524  0.14379  0.25856  1.0000
  H   H297      1.0  0.91763  0.13283  0.29934  1.0000
  H   H298      1.0  0.90701  0.26298  0.29613  1.0000
  C   C167      1.0  0.93862  0.02984  0.21229  1.0000
  H   H299      1.0  0.88138  0.09095  0.22772  1.0000
  H   H300      1.0  0.64517  0.26923  0.21063  1.0000
  H   H301      1.0  0.71889  0.31783  0.15580  1.0000
  H   H302      1.0  0.73115  0.19032  0.29828  1.0000
  H   H303      1.0  0.90082  0.02562  0.20451  1.0000
  C   C168      1.0  0.93479  0.02852  0.08261  1.0000
  C   C169      1.0  0.03221  0.17289  0.20680  1.0000
  H   H304      1.0  0.68181  0.21503  0.27243  1.0000
  C   C170      1.0  0.60906  0.26644  0.22413  1.0000
  H   H305      1.0  0.80712  0.24204  0.26863  1.0000
  H   H306      1.0  0.66692  0.31382  0.11612  1.0000
  H   H307      1.0  0.92772  0.16762  0.24498  1.0000
  C   C171      1.0  0.79078  0.25066  0.30950  1.0000
  H   H308      1.0  0.85501  0.33205  0.29721  1.0000
  H   H309      1.0  0.87513  0.22249  0.32073  1.0000
  C   C172      1.0  0.89139  0.24905  0.33393  1.0000
  C   C173      1.0  0.93134  0.23926  0.37245  1.0000
  S   S41       1.0  0.04909  0.16545  0.09316  1.0000
  N   N10       1.0  0.81382  0.28581  0.33084  1.0000
  C   C174      1.0  0.85550  0.27460  0.36452  1.0000
  C   C175      1.0  0.78097  0.30650  0.36994  1.0000
  H   H310      1.0  0.97777  0.04184  0.29022  1.0000
  H   H311      1.0  0.74884  0.31463  0.34829  1.0000
  H   H312      1.0  0.95055  0.26467  0.38513  1.0000
  H   H313      1.0  0.96918  0.02857  0.06026  1.0000
  C   C176      1.0  0.89782  0.02938  0.03743  1.0000
  H   H314      1.0  0.87539  0.29949  0.37823  1.0000
  C   C177      1.0  0.57428  0.26450  0.18382  1.0000
  C   C178      1.0  0.81926  0.23096  0.51664  1.0000
  H   H315      1.0  0.82705  0.33476  0.42911  1.0000
  H   H316      1.0  0.05834  0.00966  0.37936  1.0000
  C   C179      1.0  0.83114  0.30985  0.28227  1.0000
  H   H317      1.0  0.77376  0.30632  0.22409  1.0000
  S   S42       1.0  0.74316  0.27575  0.52591  1.0000
  C   C180      1.0  0.79342  0.32813  0.24627  1.0000
  H   H318      1.0  0.83901  0.33801  0.17259  1.0000
  C   C181      1.0  0.06312  0.15996  0.16473  1.0000
  H   H319      1.0  0.78025  0.29630  0.70211  1.0000
  H   H320      1.0  0.70609  0.26606  0.78958  1.0000
  H   H321      1.0  0.65149  0.24640  0.77320  1.0000
  H   H322      1.0  0.04470  0.18778  0.73232  1.0000
  H   H323      1.0  0.69077  0.18452  0.69379  1.0000
  C   C182      1.0  0.02686  0.14101  0.68058  1.0000
  H   H324      1.0  0.91423  0.03331  0.60355  1.0000
  H   H325      1.0  0.01079  0.05261  0.72974  1.0000
  C   C183      1.0  0.68978  0.24263  0.76703  1.0000
  H   H326      1.0  0.67391  0.23547  0.59213  1.0000
  C   C184      1.0  0.01745  0.10285  0.67998  1.0000
  C   C185      1.0  0.01833  0.08209  0.73029  1.0000
  C   C186      1.0  0.68279  0.20892  0.61262  1.0000
  H   H327      1.0  0.65574  0.17744  0.54289  1.0000
  C   C187      1.0  0.02956  0.09918  0.78123  1.0000
  H   H328      1.0  0.63980  0.21200  0.68895  1.0000
  H   H329      1.0  0.71567  0.31929  0.73884  1.0000
  H   H330      1.0  0.78051  0.26950  0.76704  1.0000
  H   H331      1.0  0.84586  0.23173  0.72814  1.0000
  H   H332      1.0  0.94653  0.03609  0.66740  1.0000
  C   C188      1.0  0.03749  0.15822  0.73164  1.0000
  C   C189      1.0  0.65074  0.17887  0.58939  1.0000
  S   S43       1.0  0.02683  0.16768  0.61808  1.0000
  H   H333      1.0  0.65420  0.31118  0.74861  1.0000
  H   H334      1.0  0.00947  0.08945  0.64070  1.0000
  H   H335      1.0  0.83393  0.24841  0.54878  1.0000
  H   H336      1.0  0.76176  0.24145  0.64733  1.0000
  Fe  Fe22      1.0  0.57954  0.31585  0.54975  1.0000
  H   H337      1.0  0.68231  0.18260  0.78500  1.0000
  H   H338      1.0  0.71903  0.20171  0.59982  1.0000
  C   C190      1.0  0.67765  0.21144  0.67770  1.0000
  C   C191      1.0  0.68499  0.27952  0.67845  1.0000
  C   C192      1.0  0.83732  0.25910  0.70929  1.0000
  H   H339      1.0  0.76535  0.21118  0.70581  1.0000
  S   S44       1.0  0.03135  0.07201  0.84312  1.0000
  H   H340      1.0  0.61368  0.18550  0.59900  1.0000
  H   H341      1.0  0.65407  0.21649  0.86995  1.0000
  C   C193      1.0  0.69175  0.21089  0.86259  1.0000
  H   H342      1.0  0.64886  0.27588  0.66326  1.0000
  N   N11       1.0  0.70226  0.24380  0.70479  1.0000
  C   C194      1.0  0.70279  0.20685  0.79957  1.0000
  H   H343      1.0  0.74047  0.20084  0.79450  1.0000
  H   H344      1.0  0.70034  0.18473  0.88496  1.0000
  C   C195      1.0  0.75383  0.23946  0.69343  1.0000
  H   H345      1.0  0.71256  0.23390  0.88067  1.0000
  S   S45       1.0  0.05302  0.07761  0.00473  1.0000
  H   H346      1.0  0.65900  0.15128  0.60768  1.0000
  H   H347      1.0  0.70619  0.28676  0.63995  1.0000
  C   C196      1.0  0.78611  0.26845  0.72074  1.0000
  H   H348      1.0  0.04718  0.15081  0.82107  1.0000
  Fe  Fe23      1.0  0.00681  0.13899  0.53746  1.0000
  H   H349      1.0  0.84513  0.25838  0.66320  1.0000
  H   H350      1.0  0.85993  0.28064  0.72823  1.0000
  C   C197      1.0  0.68281  0.31453  0.71653  1.0000
  H   H351      1.0  0.90171  0.05499  0.01126  1.0000
  C   C198      1.0  0.03900  0.13734  0.78186  1.0000
  C   C199      1.0  0.94525  0.02277  0.62542  1.0000
  H   H352      1.0  0.97686  0.03071  0.60004  1.0000
  S   S46       1.0  0.94411  0.10181  0.52796  1.0000
  C   C200      1.0  0.59049  0.45083  0.44706  1.0000
  C   C201      1.0  0.66577  0.35808  0.17879  1.0000
  H   H353      1.0  0.77762  0.38872  0.44849  1.0000
  C   C202      1.0  0.80077  0.34214  0.39746  1.0000
  H   H354      1.0  0.63314  0.56386  0.36956  1.0000
  C   C203      1.0  0.60865  0.64453  0.22162  1.0000
  C   C204      1.0  0.59123  0.39959  0.24544  1.0000
  N   N12       1.0  0.60149  0.40856  0.18418  1.0000
  H   H355      1.0  0.68121  0.50693  0.15932  1.0000
  H   H356      1.0  0.63430  0.49837  0.42784  1.0000
  C   C205      1.0  0.63772  0.43949  0.18160  1.0000
  S   S47       1.0  0.66246  0.60586  0.08525  1.0000
  H   H357      1.0  0.68510  0.49945  0.23451  1.0000
  H   H358      1.0  0.57908  0.54404  0.46946  1.0000
  C   C206      1.0  0.62067  0.47890  0.19842  1.0000
  H   H359      1.0  0.70724  0.35146  0.10144  1.0000
  C   C207      1.0  0.57027  0.51478  0.47008  1.0000
  C   C208      1.0  0.61691  0.55516  0.32966  1.0000
  S   S48       1.0  0.62905  0.41864  0.41545  1.0000
  H   H360      1.0  0.79440  0.64547  0.32459  1.0000
  C   C209      1.0  0.95445  0.65452  0.08727  1.0000
  C   C210      1.0  0.77800  0.66966  0.08695  1.0000
  H   H361      1.0  0.62965  0.38346  0.10885  1.0000
  H   H362      1.0  0.81707  0.36112  0.36564  1.0000
  H   H363      1.0  0.63180  0.57260  0.29490  1.0000
  H   H364      1.0  0.66703  0.43334  0.20976  1.0000
  C   C211      1.0  0.62165  0.37557  0.15340  1.0000
  H   H365      1.0  0.59605  0.35238  0.15063  1.0000
  H   H366      1.0  0.95788  0.62395  0.08281  1.0000
  H   H367      1.0  0.64778  0.53507  0.20734  1.0000
  H   H368      1.0  0.62385  0.39191  0.26698  1.0000
  Fe  Fe24      1.0  0.64060  0.55854  0.02965  1.0000
  H   H369      1.0  0.91902  0.66087  0.10412  1.0000
  H   H370      1.0  0.60356  0.47853  0.24069  1.0000
  H   H371      1.0  0.65324  0.44205  0.13815  1.0000
  C   C212      1.0  0.66128  0.50664  0.20001  1.0000
  C   C213      1.0  0.60146  0.48890  0.44631  1.0000
  H   H372      1.0  0.74273  0.66830  0.25176  1.0000
  S   S49       1.0  0.65770  0.49764  0.03972  1.0000
  H   H373      1.0  0.62555  0.52559  0.32190  1.0000
  H   H374      1.0  0.66231  0.64229  0.28330  1.0000
  Fe  Fe25      1.0  0.62056  0.36037  0.45049  1.0000
  H   H375      1.0  0.75729  0.64468  0.09337  1.0000
  H   H376      1.0  0.73570  0.37330  0.39831  1.0000
  H   H377      1.0  0.63132  0.63564  0.18764  1.0000
  C   C214      1.0  0.62621  0.64845  0.27574  1.0000
  H   H378      1.0  0.83537  0.37664  0.22110  1.0000
  Fe  Fe26      1.0  0.58861  0.62543  0.07784  1.0000
  H   H379      1.0  0.59569  0.48981  0.16756  1.0000
  H   H380      1.0  0.56899  0.44080  0.11877  1.0000
  H   H381      1.0  0.74524  0.34640  0.46155  1.0000
  H   H382      1.0  0.78765  0.36639  0.17573  1.0000
  H   H383      1.0  0.57853  0.42452  0.26824  1.0000
  H   H384      1.0  0.65231  0.41792  0.02985  1.0000
  S   S50       1.0  0.61881  0.66118  0.38836  1.0000
  H   H385      1.0  0.98016  0.66435  0.11816  1.0000
  H   H386      1.0  0.81562  0.66305  0.16393  1.0000
  C   C215      1.0  0.59677  0.65888  0.32055  1.0000
  H   H387      1.0  0.69135  0.37893  0.19294  1.0000
  H   H388      1.0  0.58651  0.34572  0.33197  1.0000
  C   C216      1.0  0.76238  0.36384  0.42820  1.0000
  C   C217      1.0  0.81539  0.35381  0.20126  1.0000
  H   H389      1.0  0.65544  0.34052  0.21578  1.0000
  H   H390      1.0  0.76913  0.34514  0.27210  1.0000
  C   C218      1.0  0.58632  0.40572  0.99164  1.0000
  S   S51       1.0  0.65926  0.58822  0.94888  1.0000
  H   H391      1.0  0.63867  0.48179  0.75175  1.0000
  C   C219      1.0  0.58300  0.64839  0.81722  1.0000
  C   C220      1.0  0.68308  0.53244  0.81305  1.0000
  C   C221      1.0  0.58016  0.45833  0.67938  1.0000
  H   H392      1.0  0.67637  0.55732  0.78658  1.0000
  H   H393      1.0  0.03405  0.65325  0.81296  1.0000
  H   H394      1.0  0.84484  0.63353  0.94852  1.0000
  C   C222      1.0  0.57475  0.44241  0.82110  1.0000
  H   H395      1.0  0.58271  0.36906  0.85418  1.0000
  C   C223      1.0  0.92784  0.66099  0.98650  1.0000
  C   C224      1.0  0.62133  0.42943  0.01190  1.0000
  C   C225      1.0  0.63730  0.51258  0.82903  1.0000
  C   C226      1.0  0.60862  0.41299  0.79735  1.0000
  H   H396      1.0  0.59712  0.48454  0.66409  1.0000
  C   C227      1.0  0.59199  0.66796  0.76674  1.0000
  H   H397      1.0  0.98844  0.64864  0.90487  1.0000
  H   H398      1.0  0.90951  0.63393  0.88103  1.0000
  Fe  Fe27      1.0  0.58516  0.60708  0.95244  1.0000
  H   H399      1.0  0.67232  0.37406  0.71073  1.0000
  H   H400      1.0  0.61545  0.53295  0.85229  1.0000
  C   C228      1.0  0.61639  0.38225  0.84081  1.0000
  Fe  Fe28      1.0  0.67404  0.63751  0.00407  1.0000
  H   H401      1.0  0.63349  0.39373  0.87849  1.0000
  H   H402      1.0  0.60038  0.65641  0.85527  1.0000
  H   H403      1.0  0.70054  0.54172  0.85182  1.0000
  H   H404      1.0  0.63913  0.36052  0.82227  1.0000
  H   H405      1.0  0.70696  0.51349  0.78983  1.0000
  C   C229      1.0  0.81229  0.64457  0.87006  1.0000
  H   H406      1.0  0.64562  0.48934  0.85786  1.0000
  H   H407      1.0  0.70041  0.35427  0.64940  1.0000
  H   H408      1.0  0.93309  0.63065  0.97979  1.0000
  H   H409      1.0  0.63849  0.34728  0.66253  1.0000
  H   H410      1.0  0.99961  0.66710  0.01696  1.0000
  H   H411      1.0  0.64310  0.42527  0.78590  1.0000
  C   C230      1.0  0.61263  0.49834  0.77567  1.0000
  H   H412      1.0  0.59351  0.39960  0.75994  1.0000
  C   C231      1.0  0.84564  0.65602  0.91621  1.0000
  S   S52       1.0  0.57750  0.61711  0.52885  1.0000
  H   H413      1.0  0.57869  0.43697  0.59408  1.0000
  H   H414      1.0  0.60588  0.52312  0.74865  1.0000
  H   H415      1.0  0.77718  0.63879  0.88897  1.0000
  C   C232      1.0  0.57763  0.48277  0.98246  1.0000
  H   H416      1.0  0.60801  0.43882  0.69056  1.0000
  H   H417      1.0  0.57489  0.51215  0.97578  1.0000
  C   C233      1.0  0.61643  0.46810  0.00866  1.0000
  H   H418      1.0  0.82463  0.61898  0.84868  1.0000
  S   S53       1.0  0.64745  0.34558  0.53507  1.0000
  C   C234      1.0  0.89594  0.66194  0.89222  1.0000
  C   C235      1.0  0.67292  0.34960  0.68250  1.0000
  H   H419      1.0  0.89287  0.66369  0.00748  1.0000
  S   S54       1.0  0.60093  0.65942  0.99934  1.0000
  H   H420      1.0  0.59027  0.37593  0.99418  1.0000
  H   H421      1.0  0.58649  0.45027  0.86359  1.0000
  H   H422      1.0  0.80907  0.66728  0.83855  1.0000
  C   C236      1.0  0.56946  0.65770  0.71744  1.0000
  N   N13       1.0  0.56780  0.47668  0.78551  1.0000
  H   H423      1.0  0.79469  0.77534  0.17213  1.0000
  H   H424      1.0  0.72075  0.74738  0.36099  1.0000
  S   S55       1.0  0.95276  0.81866  0.18896  1.0000
  C   C237      1.0  0.65289  0.76823  0.38176  1.0000
  H   H425      1.0  0.88976  0.99284  0.30123  1.0000
  H   H426      1.0  0.02643  0.75491  0.30033  1.0000
  H   H427      1.0  0.66121  0.76905  0.14696  1.0000
  H   H428      1.0  0.63752  0.68803  0.11833  1.0000
  H   H429      1.0  0.74426  0.77623  0.12862  1.0000
  C   C238      1.0  0.69438  0.76494  0.34055  1.0000
  S   S56       1.0  0.94797  0.78831  0.05750  1.0000
  H   H430      1.0  0.03556  0.88462  0.39684  1.0000
  C   C239      1.0  0.83884  0.71209  0.11837  1.0000
  H   H431      1.0  0.95844  0.91715  0.39918  1.0000
  H   H432      1.0  0.64931  0.76430  0.26931  1.0000
  H   H433      1.0  0.67346  0.71961  0.07616  1.0000
  C   C240      1.0  0.77091  0.82961  0.15125  1.0000
  C   C241      1.0  0.04630  0.75187  0.38753  1.0000
  H   H434      1.0  0.69711  0.80180  0.21294  1.0000
  S   S57       1.0  0.04419  0.82590  0.10304  1.0000
  H   H435      1.0  0.03384  0.95262  0.38706  1.0000
  C   C242      1.0  0.76074  0.78887  0.16578  1.0000
  Fe  Fe29      1.0  0.93831  0.76454  0.14471  1.0000
  H   H436      1.0  0.68738  0.69537  0.20476  1.0000
  H   H437      1.0  0.93058  0.00212  0.10673  1.0000
  H   H438      1.0  0.78617  0.72513  0.22416  1.0000
  H   H439      1.0  0.62423  0.73842  0.18891  1.0000
  Fe  Fe30      1.0  0.02737  0.80031  0.18738  1.0000
  H   H440      1.0  0.66466  0.78009  0.42214  1.0000
  S   S58       1.0  0.87932  0.72497  0.16968  1.0000
  S   S59       1.0  0.01214  0.74424  0.15081  1.0000
  H   H441      1.0  0.95553  0.86994  0.37417  1.0000
  H   H442      1.0  0.00815  0.92518  0.48833  1.0000
  C   C243      1.0  0.76006  0.72782  0.25909  1.0000
  H   H443      1.0  0.73811  0.84455  0.14280  1.0000
  H   H444      1.0  0.61245  0.72893  0.08812  1.0000
  N   N14       1.0  0.71662  0.74604  0.23814  1.0000
  H   H445      1.0  0.79378  0.83127  0.11284  1.0000
  C   C244      1.0  0.83268  0.73396  0.07036  1.0000
  H   H446      1.0  0.95342  0.90787  0.32456  1.0000
  C   C245      1.0  0.81118  0.68004  0.12674  1.0000
  C   C246      1.0  0.96912  0.89831  0.36433  1.0000
  C   C247      1.0  0.65539  0.73979  0.16028  1.0000
  C   C248      1.0  0.04282  0.93698  0.34815  1.0000
  C   C249      1.0  0.69828  0.72354  0.18997  1.0000
  C   C250      1.0  0.03679  0.94010  0.50683  1.0000
  H   H447      1.0  0.74774  0.79994  0.25344  1.0000
  H   H448      1.0  0.81140  0.69222  0.34228  1.0000
  Fe  Fe31      1.0  0.96897  0.84065  0.10199  1.0000
  C   C251      1.0  0.03684  0.97906  0.50742  1.0000
  C   C252      1.0  0.03616  0.92155  0.10653  1.0000
  H   H449      1.0  0.66447  0.71967  0.29315  1.0000
  C   C253      1.0  0.02217  0.89723  0.35774  1.0000
  H   H450      1.0  0.94843  0.97529  0.29456  1.0000
  C   C254      1.0  0.72905  0.78520  0.21956  1.0000
  H   H451      1.0  0.78923  0.84345  0.18620  1.0000
  H   H452      1.0  0.03333  0.90006  0.13842  1.0000
  S   S60       1.0  0.95038  0.89791  0.07156  1.0000
  H   H453      1.0  0.72633  0.71850  0.15788  1.0000
  C   C255      1.0  0.67932  0.74778  0.28392  1.0000
  H   H454      1.0  0.70929  0.79321  0.33420  1.0000
  H   H455      1.0  0.77740  0.74568  0.29063  1.0000
  C   C256      1.0  0.64419  0.71767  0.10756  1.0000
  H   H456      1.0  0.02538  0.72731  0.39673  1.0000
  H   H457      1.0  0.02318  0.95032  0.31369  1.0000
  C   C257      1.0  0.99931  0.92767  0.07027  1.0000
  C   C258      1.0  0.04695  0.76738  0.33299  1.0000
  H   H458      1.0  0.03053  0.87848  0.32208  1.0000
  H   H459      1.0  0.62594  0.78668  0.36433  1.0000
  H   H460      1.0  0.63713  0.74048  0.39077  1.0000
  C   C259      1.0  0.77228  0.69137  0.03859  1.0000
  H   H461      1.0  0.85282  0.75920  0.06423  1.0000
  Fe  Fe32      1.0  0.02258  0.77177  0.06632  1.0000
  C   C260      1.0  0.92705  0.99915  0.30865  1.0000
  S   S61       1.0  0.98988  0.00290  0.47817  1.0000
  H   H462      1.0  0.95496  0.00288  0.20062  1.0000
  C   C261      1.0  0.75368  0.68821  0.28450  1.0000
  H   H463      1.0  0.72740  0.68756  0.31952  1.0000
  H   H464      1.0  0.96139  0.70442  0.03744  1.0000
  C   C262      1.0  0.00256  0.95675  0.03087  1.0000
  C   C263      1.0  0.79964  0.72356  0.03059  1.0000
  C   C264      1.0  0.96349  0.67400  0.03061  1.0000
  H   H465      1.0  0.93157  0.00292  0.35466  1.0000
  C   C265      1.0  0.79950  0.67410  0.30765  1.0000
  H   H466      1.0  0.82693  0.67348  0.27379  1.0000
  H   H467      1.0  0.92598  0.85519  0.67390  1.0000
  C   C266      1.0  0.03176  0.91175  0.68932  1.0000
  H   H468      1.0  0.94818  0.73765  0.95368  1.0000
  C   C267      1.0  0.94160  0.98060  0.63162  1.0000
  C   C268      1.0  0.92231  0.89312  0.82081  1.0000
  H   H469      1.0  0.00356  0.69260  0.93359  1.0000
  H   H470      1.0  0.86218  0.78569  0.94664  1.0000
  C   C269      1.0  0.98749  0.69558  0.84693  1.0000
  H   H471      1.0  0.01731  0.87812  0.88540  1.0000
  N   N15       1.0  0.98300  0.92447  0.67755  1.0000
  H   H472      1.0  0.88734  0.88777  0.80343  1.0000
  C   C270      1.0  0.06008  0.93729  0.72859  1.0000
  S   S62       1.0  0.04097  0.81145  0.75434  1.0000
  H   H473      1.0  0.85900  0.73137  0.88338  1.0000
  H   H474      1.0  0.05252  0.90938  0.64924  1.0000
  H   H475      1.0  0.89212  0.72384  0.97792  1.0000
  C   C271      1.0  0.01797  0.80149  0.86491  1.0000
  C   C272      1.0  0.02428  0.78810  0.91967  1.0000
  C   C273      1.0  0.88570  0.78397  0.90887  1.0000
  C   C274      1.0  0.95600  0.85900  0.64400  1.0000
  H   H476      1.0  0.98768  0.81787  0.85576  1.0000
  H   H477      1.0  0.99931  0.79468  0.95269  1.0000
  C   C275      1.0  0.95117  0.92367  0.72933  1.0000
  H   H478      1.0  0.91415  0.92147  0.71668  1.0000
  H   H479      1.0  0.96111  0.68742  0.81607  1.0000
  C   C276      1.0  0.05065  0.79385  0.82194  1.0000
  H   H480      1.0  0.98706  0.84603  0.66198  1.0000
  H   H481      1.0  0.03848  0.94721  0.76477  1.0000
  H   H482      1.0  0.83234  0.68166  0.93624  1.0000
  H   H483      1.0  0.99804  0.98303  0.68984  1.0000
  H   H484      1.0  0.98851  0.72628  0.85003  1.0000
  C   C277      1.0  0.02532  0.89875  0.91826  1.0000
  H   H485      1.0  0.92232  0.92031  0.84278  1.0000
  H   H486      1.0  0.92870  0.91078  0.61880  1.0000
  H   H487      1.0  0.99377  0.89704  0.79384  1.0000
  H   H488      1.0  0.99312  0.90317  0.94410  1.0000
  H   H489      1.0  0.92948  0.87101  0.85220  1.0000
  H   H490      1.0  0.93576  0.96926  0.58887  1.0000
  C   C278      1.0  0.96355  0.90085  0.63108  1.0000
  H   H491      1.0  0.79511  0.74060  0.99345  1.0000
  H   H492      1.0  0.91915  0.79807  0.91802  1.0000
  H   H493      1.0  0.97386  0.83986  0.55909  1.0000
  H   H494      1.0  0.61608  0.69128  0.76601  1.0000
  H   H495      1.0  0.04633  0.99973  0.99375  1.0000
  C   C279      1.0  0.91672  0.72170  0.94120  1.0000
  H   H496      1.0  0.98639  0.90348  0.59266  1.0000
  H   H497      1.0  0.97429  0.96150  0.00249  1.0000
  C   C280      1.0  0.95971  0.89277  0.77386  1.0000
  H   H498      1.0  0.95993  0.86470  0.75533  1.0000
  C   C281      1.0  0.89365  0.74340  0.89269  1.0000
  H   H499      1.0  0.95345  0.95043  0.75261  1.0000
  H   H500      1.0  0.91505  0.74301  0.85338  1.0000
  H   H501      1.0  0.86931  0.79892  0.87354  1.0000
  C   C282      1.0  0.98669  0.96403  0.65583  1.0000
  H   H502      1.0  0.01426  0.96638  0.62214  1.0000
  H   H503      1.0  0.03583  0.92551  0.89786  1.0000
  H   H504      1.0  0.03158  0.88332  0.70722  1.0000
  H   H505      1.0  0.04929  0.86129  0.98138  1.0000
  H   H506      1.0  0.04290  0.69909  0.78315  1.0000
  H   H507      1.0  0.91074  0.97401  0.65902  1.0000
  H   H508      1.0  0.91241  0.84846  0.57154  1.0000
  H   H509      1.0  0.93907  0.80774  0.60094  1.0000
  H   H510      1.0  0.06281  0.68895  0.85292  1.0000
  C   C283      1.0  0.06403  0.88462  0.95560  1.0000
  S   S63       1.0  0.73281  0.67869  0.98613  1.0000
  H   H511      1.0  0.89328  0.67683  0.85147  1.0000
  C   C284      1.0  0.94460  0.83762  0.59049  1.0000
  C   C285      1.0  0.03473  0.68340  0.82270  1.0000
  S   S64       1.0  0.57709  0.68480  0.65639  1.0000
  C   C286      1.0  0.06233  0.76571  0.93124  1.0000
  C   C287      1.0  0.97809  0.67844  0.90620  1.0000
  N   N16       1.0  0.92921  0.68155  0.93067  1.0000
  H   H512      1.0  0.90205  0.00491  0.00950  1.0000
  C   C288      1.0  0.04328  0.97861  0.02614  1.0000
