data_image0
_chemical_formula_structural       CHSCSHSCSH2FeS2FeS2H3FeCSHCHSH4CHC2HCHCH2CHC7H4C6H4C6H8C2HCH2CHCH3CH3CHCSCH4SH4CH6NC9HCH21C2H2CH4FeHCH4C2NH2C3HCH3C3H5NH3CH4CHFeHCH5C2HCH3CH3C2HCHCH4NHNC6H3FeSFeCH2CHSH2CH5CH5C2H5FeH3CH3SH4CSH2CH4CHSFeS2FeS2H2CSFeHSH3CSHFeCSCHSH2SHSC2H8C6H3CH2C2HCHC2H2CHCHC6H4C6H10NH2CH2C2H5CH5SH7C3H2CNCHCHC2H6CH2CH2C2H5CHCFeH4CFeSHCHFeCSHNS2HCHC2HCH4C2H4CH7CH6CH4C3HCHC3H3C3SH3C2HFeH6CH2CH3C2H4CH8CNCH2NCNC6HC2H7CHNHFeS2FeSCHS2HCHFeS2FeSHFeSCS2FeS2FeS2H2SC2HSHSHSFe2SC6H5CHSHC6H4C6H4CH2CHCHC6H4C6H5SHC2H2C2H6SHCH2NC5HC4HCSH9CH12CH5SNC5HC3H2CH10CH11FeC2H3NCHC6H17C3H2NC2HC2HC3SH10CH6CFeCHC2H5CHCH2CH5CH2CHC2H3CH8CHC3HC3H2C3H5CH4SH3CHCH3C2HCFeH3CHCSCHCH2CHNHCH2C3H2CFeH2CHFeCH3CH2C3H4CNHCH7SH2C2HCHFeH2CH3SH3S2HFeHSFeSH2CHFeSHFeHSFeHCS3H4SFeS2HCFeSHSC6H4C6H5C2H7C6H4C6H4C6H3CHC2HSH2CH3CHFeH3C2SCSH2C2H14CH3CH2NCHC2H4NC5SC4SCH11SH7C2HC2FeH3CSH2C2H5CNC12H30CSH2SHSNHCHC6H3CFeH2SHSH3C2H9S2C2H2C2HC3H4FeHCHSH2C3H6CH3C3HCSCH4CH2CHCHFeCH4FeNSHCFeHCHFeH11CH4CH4CHCHCH2C2HFe2CSHS3NHFeS2H2FeSHSH4CHFeHSHCHSCHCSCHSH2C2FeHCHCH2CHC6H5CH2C6H4C6H4NC6HC4H5CH17CH8CHCH2CNH2C2H2SH2C2FeHCH3SH3C2H3SHC2HCHS2CFeHFeH2CH2FeH5CH11C2HCHCHCH4C4HCHCH7CH2CH2C3H2CH2NHFeH3NCHCHC2H2CH2SHCHSCH2S2HFeSFeS2HFeSCSH4SC3H5FeC7H5SH3CHC6H3SC6H4CNH2C2H2CHC3HC2HSH2CHCH2S2FeCH2CH2SH7CH4C2H3CH5CH3CHCHC2H2C2HC2H7CH6FeHCH7CH3CH2CHC2H3CHCFeHCH5C2H3CH5FeCNCH3CHNH6CHCH3CH2C3HCH2C2HNHCHC2H9CH2C2HCH3CH4FeS2FeSFeSHS2H2SHCFeSC2SFeSFeS2NSH3SCFeSCSHFeSC6H6CH2CH5C6HC2HC6H4C6H4C6H8NC2SH2CH3C2HSCH3CH3CFeHCHFeCH5CH5CHCHCH2SCH2SHC2H5CH3CHFeCH2CH6CH7CH2CH2FeC2H3C3H2C2H2CH2CH5C3H6C4H4CH2FeNHCHCH3C2H2CHCHCH5CH2CH3CSCH3CHCH8NC12H31S2H3C2NC2H2C3FeH3NHC2H4FeH3SH7SHC2H2NHC3H2S2C3H2C4SHC2HC2H3CHCHSH2FeH2SH2SHCS2CFeCSFeSH2SHC2FeSHCFeSFeS2FeNFeS2FeS2FeHCFeSHSHC6H6C3H2C6H5SHSCH2NHC6H4C6H4C6H7CSH4CHSFeSH4NCHCH4CHCH5C2H5NC6HC4H5CH7NCH2SH12CH3FeCHCH2CHCH3FeH2SCHCH2SH8CH2CH5CHCH5SNH2CH3SH2C4H6CHCH2CHCH3CHCSC2FeCSCH4SCH2CSH3C3H4C2HCH6CHC2H2CHCH4CSH4NC12H10SH2CHCSC2HCH3CH6CH2CHCH6C2HFeHFeC2H4C2H2C2HCHCHCH3C2HNSHS4CFeSFeS2CHCHFeS2C2HFeS2FeS2FeSFeS2FeS2FeS2HC6H4C2HC3HC7H4C6H10C6H3C7H5CH4NC2HC3NCHCHCH10CHCH3CH7CH3CH10CHSH4S2H2SHCHC2H2CHCH2C5HNC10H13SH7C2NCHC6HCHCH4SH8C2H2CH6CH6CH3CHCH4CHCH2FeHSCH3FeH2NH4CH3CH10C2H2CH5FeH4C3HCHCFeH2FeSHCH2C2HCH5FeH7NCHCH2NCHCH2CHCH2SHC2HCHCHC3HFeNH5CH2CHCH4CH2CFeS2FeS2CFeSHSFeS2HS2H3FeS2FeSFe2S5HSH2SHFeSC6H4CH2CHC7HC6H4C6H4C6H4C6H4CHCH2C3HC4H2C2H8CHC2HCFeHCH3NCH3NC4H4CH3CHFeH8SHCHC2H3CH2CH2CNSH3CHC2H2CH3SCH4C2H3C2H4CH2C2H4C3H3C2H4CHCFeCHSNC8H19C3HCH3CH3CH10CH4CH2SCH2CH4NH5SHCHC2H2SH2CH7C2H3CHNCHCH8CH2CH2CHCHC3H4CH4CHCNC10FeH20FeHNHCSH2SH2CHCH6SH2CHCHCHCH2CHCH4FeS2FeS2CH4FeHSH3SHSH2SCNFeCSHS2HC3H5C6H4C3H2CH2CH2C7H4C6H3C2H5NHC2HCH2CHFeCHN2CHS2H16CH2CH13C2H3C2HC3H9CH3CH8CHC2H4SHCH3CHCH2CH3FeH2CH4CH3CHC3HCHCHC4H6CHC4FeCH2C2HCH2S2H2C2HSCHCSCH2FeS2FeS3FeS2HFeS2FeH3CHNCFeHSH4SH3C2H2C4HCH4C6H4CSC7H3C6H2CFeCSH2CHCSH2CH3CHC4H4CH2CH2C2H2CSHCHCH2CH3C3H3CHC2HCHCH12C2H4CH9CNCH3CH2CHCH4CH7C2HNH3CH3CH2FeCH6C2HFeHCH2SH5CNH4FeS2CS2FeSCSFeS2H2CHFeSHS2H5C2SFeS2FeSFeSFeHS3CHC2H4C6H4C6H4C6H6CHSC6H4C6H2SC2H2FeSHSCH3CH8FeH5CHC2H2C2H5NC10HCH22FeH6NCHNC10HCH18FeH3C2H4NC2H2C4H5C4H5CSH2SH3CH3C3H9CH2CH2C2H4CHSHFeCH3C2HSC3H2SH5CHCNFeCHC2HNH3C2HCHSCFeCH12NHCHCH3CH3FeC3H2C2H2CHSCH2C2H3C3H2CHCH5CHC3FeS2FeHFeSHSCHSH2FeSHFeS2FeSFeHS2CH3SFeH2SNFeSCSFeSC6H3FeC6H4C7HFeH2CSC2HCHSC7H4C6H9FeNC9HC2H6SH3SH8C3S2H3NC8HCH17SH8FeC2H6CHFeH3C2H2CH6CH4CHCH4SC2H2NC11H26FeCH2SHCH3CHFeHC4H2CHNC2H5C2HCHCH2CH2CHCH2CHCH3NHCH2C2H2CH5CFeCHSH5CH2S2HSH6CH2SCHCH2SHSH6CH8C3FeH3SC2H3SHFeSCHSFeSH4FeS2FeS2HC5H5C6H4CSH2CHCNHNHC6H4C6H5CH2CH2CH3CH2CH5SH2C2H12C2H5SH4CFeC2HSHC2H2CH2CH7FeNHC2HC2H2CH3SHC2HCH4C2HCH3C2HCHCHCH3NH3FeSH2CHCHCH7C2H4CSCH4CH3C2NC6HC2H3CH2CH8C2SC2HC2H9CHNSH3CH3CH4CH2CH2CH2SH4SHCS2HFeS2FeSCSC2SC2H2FeHSH5SH6Fe2H2C3H6C6H6CH2C6H4C6H4NC12H30CHNC5H2C6H7FeC2H8CH2CH2CH5C3H2SHCHC3SHC2H2NH2SH4CHC3HNCH4NH7CHCFeH3C2SHCHCHC2HCH2C2NH4C2H2CH2CSCHCH2S
_chemical_formula_sum              "C1728 H3072 S384 Fe192 N96"
_cell_length_a       113.743
_cell_length_b       33.072
_cell_length_c       58.2228
_cell_angle_alpha    87.189
_cell_angle_beta     86.9738
_cell_angle_gamma    87.7855

_space_group_name_H-M_alt    "P 1"
_space_group_IT_number       1

loop_
  _space_group_symop_operation_xyz
  'x, y, z'

loop_
  _atom_site_type_symbol
  _atom_site_label
  _atom_site_symmetry_multiplicity
  _atom_site_fract_x
  _atom_site_fract_y
  _atom_site_fract_z
  _atom_site_occupancy
  C   C1        1.0  0.16191  0.33150  0.07955  1.0000
  H   H1        1.0  0.17980  0.16863  0.43159  1.0000
  S   S1        1.0  0.20529  0.33277  0.07830  1.0000
  C   C2        1.0  0.00087  0.00980  0.27802  1.0000
  S   S2        1.0  0.20823  0.14979  0.12642  1.0000
  H   H2        1.0  0.14546  0.00076  0.32347  1.0000
  S   S3        1.0  0.02199  0.02374  0.12664  1.0000
  C   C3        1.0  0.08979  0.98397  0.18272  1.0000
  S   S4        1.0  0.14692  0.01441  0.47062  1.0000
  H   H3        1.0  0.12563  0.09837  0.41012  1.0000
  H   H4        1.0  0.17837  0.29780  0.07923  1.0000
  Fe  Fe1       1.0  0.98926  0.25540  0.11576  1.0000
  S   S5        1.0  0.99283  0.31978  0.12405  1.0000
  S   S6        1.0  0.00316  0.20977  0.13096  1.0000
  Fe  Fe2       1.0  0.98837  0.33850  0.08802  1.0000
  S   S7        1.0  0.99794  0.38086  0.06165  1.0000
  S   S8        1.0  0.98610  0.27401  0.07861  1.0000
  H   H5        1.0  0.16679  0.23258  0.15455  1.0000
  H   H6        1.0  0.22066  0.44138  0.03088  1.0000
  H   H7        1.0  0.17627  0.33323  0.10177  1.0000
  Fe  Fe3       1.0  0.16299  0.04299  0.22137  1.0000
  C   C4        1.0  0.16515  0.12709  0.43908  1.0000
  S   S9        1.0  0.17262  0.10145  0.21128  1.0000
  H   H8        1.0  0.15512  0.12506  0.37294  1.0000
  C   C5        1.0  0.20257  0.99222  0.15567  1.0000
  H   H9        1.0  0.17599  0.05566  0.43537  1.0000
  S   S10       1.0  0.14996  0.04064  0.25228  1.0000
  H   H10       1.0  0.22416  0.04822  0.07280  1.0000
  H   H11       1.0  0.16256  0.10574  0.45376  1.0000
  H   H12       1.0  0.19988  0.17854  0.08134  1.0000
  H   H13       1.0  0.02958  0.39161  0.01314  1.0000
  C   C6        1.0  0.15996  0.19796  0.12903  1.0000
  H   H14       1.0  0.14890  0.14684  0.13805  1.0000
  C   C7        1.0  0.00729  0.42152  0.06547  1.0000
  C   C8        1.0  0.98798  0.08655  0.19709  1.0000
  H   H15       1.0  0.13579  0.07392  0.38988  1.0000
  C   C9        1.0  0.17591  0.15014  0.44628  1.0000
  H   H16       1.0  0.02725  0.34087  0.00468  1.0000
  C   C10       1.0  0.01276  0.42601  0.08609  1.0000
  H   H17       1.0  0.13319  0.05152  0.41859  1.0000
  H   H18       1.0  0.20055  0.04640  0.18713  1.0000
  C   C11       1.0  0.00015  0.39584  0.17209  1.0000
  H   H19       1.0  0.01128  0.40428  0.10029  1.0000
  C   C12       1.0  0.21086  0.02470  0.21572  1.0000
  C   C13       1.0  0.01657  0.07509  0.12916  1.0000
  C   C14       1.0  0.02172  0.10249  0.14287  1.0000
  C   C15       1.0  0.01741  0.14323  0.14335  1.0000
  C   C16       1.0  0.00782  0.15730  0.13035  1.0000
  C   C17       1.0  0.00244  0.12955  0.11724  1.0000
  C   C18       1.0  0.00685  0.08898  0.11652  1.0000
  H   H20       1.0  0.02922  0.09256  0.15266  1.0000
  H   H21       1.0  0.02165  0.16418  0.15365  1.0000
  H   H22       1.0  0.99497  0.13939  0.10738  1.0000
  H   H23       1.0  0.00272  0.06820  0.10592  1.0000
  C   C19       1.0  0.19922  0.35413  0.05258  1.0000
  C   C20       1.0  0.20370  0.34485  0.03054  1.0000
  C   C21       1.0  0.19845  0.36271  0.01082  1.0000
  C   C22       1.0  0.18867  0.39005  0.01282  1.0000
  C   C23       1.0  0.18418  0.39912  0.03487  1.0000
  C   C24       1.0  0.18947  0.38155  0.05455  1.0000
  H   H24       1.0  0.21118  0.32383  0.02866  1.0000
  H   H25       1.0  0.02211  0.04621  0.19260  1.0000
  H   H26       1.0  0.17647  0.41909  0.03673  1.0000
  H   H27       1.0  0.18589  0.38889  0.07148  1.0000
  C   C25       1.0  0.18243  0.11423  0.18742  1.0000
  C   C26       1.0  0.18293  0.09324  0.16708  1.0000
  C   C27       1.0  0.19070  0.10517  0.14848  1.0000
  C   C28       1.0  0.19820  0.13772  0.15005  1.0000
  C   C29       1.0  0.19775  0.15851  0.17042  1.0000
  C   C30       1.0  0.18982  0.14713  0.18885  1.0000
  H   H28       1.0  0.17723  0.06816  0.16561  1.0000
  H   H29       1.0  0.19093  0.08899  0.13274  1.0000
  H   H30       1.0  0.20363  0.18299  0.17215  1.0000
  H   H31       1.0  0.18953  0.16356  0.20451  1.0000
  H   H32       1.0  0.17723  0.19596  0.14368  1.0000
  H   H33       1.0  0.20026  0.28119  0.18421  1.0000
  H   H34       1.0  0.21465  0.05963  0.14094  1.0000
  H   H35       1.0  0.99109  0.01117  0.27934  1.0000
  C   C31       1.0  0.01891  0.04142  0.21092  1.0000
  C   C32       1.0  0.20383  0.05392  0.23125  1.0000
  H   H36       1.0  0.04109  0.07566  0.20255  1.0000
  C   C33       1.0  0.02041  0.45811  0.08808  1.0000
  H   H37       1.0  0.18545  0.09252  0.42202  1.0000
  H   H38       1.0  0.18775  0.31512  0.17930  1.0000
  C   C34       1.0  0.03844  0.06902  0.22095  1.0000
  H   H39       1.0  0.16241  0.25556  0.09840  1.0000
  C   C35       1.0  0.10072  0.00010  0.17529  1.0000
  H   H40       1.0  0.17499  0.21691  0.07980  1.0000
  H   H41       1.0  0.18279  0.12842  0.45279  1.0000
  H   H42       1.0  0.04174  0.03804  0.22623  1.0000
  C   C36       1.0  0.20404  0.01679  0.19421  1.0000
  H   H43       1.0  0.02228  0.10415  0.21940  1.0000
  H   H44       1.0  0.19290  0.99978  0.38956  1.0000
  H   H45       1.0  0.98492  0.06169  0.18705  1.0000
  C   C37       1.0  0.00124  0.00660  0.20179  1.0000
  H   H46       1.0  0.19263  0.21722  0.11817  1.0000
  C   C38       1.0  0.19467  0.29559  0.17079  1.0000
  S   S11       1.0  0.21658  0.26955  0.12601  1.0000
  C   C39       1.0  0.16488  0.12365  0.37315  1.0000
  H   H47       1.0  0.18685  0.46781  0.07011  1.0000
  H   H48       1.0  0.00099  0.39162  0.19098  1.0000
  H   H49       1.0  0.15640  0.06474  0.39847  1.0000
  H   H50       1.0  0.16030  0.28915  0.12095  1.0000
  S   S12       1.0  0.15158  0.00715  0.19998  1.0000
  H   H51       1.0  0.00426  0.03738  0.28516  1.0000
  H   H52       1.0  0.16548  0.35582  0.06765  1.0000
  H   H53       1.0  0.18391  0.06765  0.38397  1.0000
  H   H54       1.0  0.04264  0.09107  0.23143  1.0000
  C   C40       1.0  0.21992  0.05861  0.15647  1.0000
  H   H55       1.0  0.16167  0.18830  0.11123  1.0000
  H   H56       1.0  0.17931  0.15138  0.35267  1.0000
  H   H57       1.0  0.21549  0.07832  0.16943  1.0000
  H   H58       1.0  0.19853  0.03355  0.40944  1.0000
  H   H59       1.0  0.00118  0.03208  0.16578  1.0000
  H   H60       1.0  0.20489  0.45098  0.05938  1.0000
  N   N1        1.0  0.02698  0.28674  0.07195  1.0000
  C   C41       1.0  0.02314  0.30713  0.04964  1.0000
  C   C42       1.0  0.01961  0.25027  0.07835  1.0000
  C   C43       1.0  0.02478  0.31694  0.09053  1.0000
  C   C44       1.0  0.03994  0.27504  0.07089  1.0000
  C   C45       1.0  0.04439  0.24683  0.05161  1.0000
  C   C46       1.0  0.02952  0.34631  0.04140  1.0000
  C   C47       1.0  0.02627  0.30042  0.11572  1.0000
  C   C48       1.0  0.01548  0.22574  0.05832  1.0000
  C   C49       1.0  0.00994  0.18637  0.06733  1.0000
  H   H61       1.0  0.06184  0.27202  0.04623  1.0000
  C   C50       1.0  0.02518  0.36288  0.01826  1.0000
  H   H62       1.0  0.19609  0.00061  0.20081  1.0000
  H   H63       1.0  0.01352  0.31479  0.05115  1.0000
  H   H64       1.0  0.02418  0.28640  0.03524  1.0000
  H   H65       1.0  0.02424  0.22903  0.09062  1.0000
  H   H66       1.0  0.01128  0.25976  0.08787  1.0000
  H   H67       1.0  0.01566  0.33046  0.08977  1.0000
  H   H68       1.0  0.03080  0.34264  0.08768  1.0000
  H   H69       1.0  0.04531  0.30259  0.06956  1.0000
  H   H70       1.0  0.04242  0.25884  0.08719  1.0000
  H   H71       1.0  0.04175  0.25851  0.03441  1.0000
  H   H72       1.0  0.04098  0.21608  0.05531  1.0000
  H   H73       1.0  0.02779  0.37056  0.05375  1.0000
  H   H74       1.0  0.03917  0.34043  0.03920  1.0000
  H   H75       1.0  0.03506  0.28558  0.11794  1.0000
  H   H76       1.0  0.01950  0.27808  0.12101  1.0000
  H   H77       1.0  0.00867  0.24373  0.04885  1.0000
  H   H78       1.0  0.02274  0.21795  0.04578  1.0000
  H   H79       1.0  0.00701  0.16958  0.05272  1.0000
  H   H80       1.0  0.01639  0.16676  0.07681  1.0000
  H   H81       1.0  0.00213  0.19301  0.07897  1.0000
  H   H82       1.0  0.06079  0.22117  0.03692  1.0000
  C   C51       1.0  0.99172  0.44242  0.14045  1.0000
  C   C52       1.0  0.05783  0.24228  0.05051  1.0000
  H   H83       1.0  0.01551  0.36939  0.01957  1.0000
  H   H84       1.0  0.18013  0.00107  0.13737  1.0000
  C   C53       1.0  0.10809  0.99090  0.21388  1.0000
  H   H85       1.0  0.16785  0.09268  0.36865  1.0000
  H   H86       1.0  0.15207  0.21890  0.12914  1.0000
  H   H87       1.0  0.98956  0.12695  0.16636  1.0000
  H   H88       1.0  0.02471  0.46112  0.10401  1.0000
  Fe  Fe4       1.0  0.21981  0.28546  0.08823  1.0000
  H   H89       1.0  0.22052  0.12195  0.07624  1.0000
  C   C54       1.0  0.13408  0.08056  0.40831  1.0000
  H   H90       1.0  0.20243  0.08386  0.22207  1.0000
  H   H91       1.0  0.19573  0.22261  0.06336  1.0000
  H   H92       1.0  0.98492  0.42033  0.13755  1.0000
  H   H93       1.0  0.10214  0.01030  0.15745  1.0000
  C   C55       1.0  0.15687  0.16043  0.14421  1.0000
  C   C56       1.0  0.02506  0.07275  0.22476  1.0000
  N   N2        1.0  0.21061  0.99369  0.17549  1.0000
  H   H94       1.0  0.17992  0.17534  0.09883  1.0000
  H   H95       1.0  0.02558  0.32193  0.15041  1.0000
  C   C57       1.0  0.00965  0.44922  0.04684  1.0000
  C   C58       1.0  0.18909  0.26275  0.15781  1.0000
  C   C59       1.0  0.22811  0.41064  0.13698  1.0000
  H   H96       1.0  0.20324  0.99221  0.45730  1.0000
  C   C60       1.0  0.99406  0.43689  0.16649  1.0000
  H   H97       1.0  0.22162  0.40200  0.06855  1.0000
  H   H98       1.0  0.20033  0.31475  0.15892  1.0000
  H   H99       1.0  0.16423  0.13741  0.14342  1.0000
  C   C61       1.0  0.16952  0.15299  0.35400  1.0000
  C   C62       1.0  0.18065  0.04874  0.39906  1.0000
  C   C63       1.0  0.19252  0.19453  0.07250  1.0000
  H   H100      1.0  0.19122  0.25852  0.09839  1.0000
  H   H101      1.0  0.00910  0.39425  0.16352  1.0000
  H   H102      1.0  0.16626  0.14470  0.33726  1.0000
  H   H103      1.0  0.06302  0.02652  0.48731  1.0000
  H   H104      1.0  0.18755  0.30236  0.12751  1.0000
  N   N3        1.0  0.00562  0.04315  0.21275  1.0000
  H   H105      1.0  0.01630  0.35088  0.13106  1.0000
  H   H106      1.0  0.17465  0.30141  0.14626  1.0000
  H   H107      1.0  0.14178  0.11063  0.43524  1.0000
  C   C64       1.0  0.02497  0.33467  0.13248  1.0000
  H   H108      1.0  0.15748  0.30986  0.06916  1.0000
  H   H109      1.0  0.00555  0.44580  0.03072  1.0000
  H   H110      1.0  0.15775  0.14995  0.43780  1.0000
  H   H111      1.0  0.00303  0.07097  0.24568  1.0000
  C   C65       1.0  0.22162  0.01455  0.16644  1.0000
  H   H112      1.0  0.15568  0.05559  0.42844  1.0000
  Fe  Fe5       1.0  0.21983  0.20457  0.11763  1.0000
  H   H113      1.0  0.18362  0.24492  0.17066  1.0000
  C   C66       1.0  0.14785  0.99155  0.36013  1.0000
  H   H114      1.0  0.19908  0.02310  0.15076  1.0000
  H   H115      1.0  0.17842  0.14209  0.39512  1.0000
  H   H116      1.0  0.16641  0.18454  0.35729  1.0000
  H   H117      1.0  0.14441  0.13402  0.40699  1.0000
  H   H118      1.0  0.98509  0.42181  0.09831  1.0000
  C   C67       1.0  0.16890  0.13508  0.39707  1.0000
  C   C68       1.0  0.17243  0.17836  0.46573  1.0000
  H   H119      1.0  0.15506  0.16842  0.16241  1.0000
  C   C69       1.0  0.15603  0.08047  0.41487  1.0000
  H   H120      1.0  0.03207  0.35661  0.12889  1.0000
  H   H121      1.0  0.16428  0.16462  0.40061  1.0000
  H   H122      1.0  0.98768  0.15269  0.19309  1.0000
  C   C70       1.0  0.22257  0.45734  0.04654  1.0000
  H   H123      1.0  0.19621  0.24227  0.15105  1.0000
  H   H124      1.0  0.98556  0.43840  0.17683  1.0000
  H   H125      1.0  0.15535  0.34549  0.09184  1.0000
  C   C71       1.0  0.22801  0.42574  0.06325  1.0000
  C   C72       1.0  0.00139  0.08212  0.20073  1.0000
  H   H126      1.0  0.18946  0.17431  0.05954  1.0000
  C   C73       1.0  0.14406  0.10454  0.41690  1.0000
  H   H127      1.0  0.99976  0.46025  0.17237  1.0000
  C   C74       1.0  0.17736  0.07578  0.41956  1.0000
  H   H128      1.0  0.98197  0.05006  0.47959  1.0000
  H   H129      1.0  0.00614  0.08678  0.18362  1.0000
  H   H130      1.0  0.16592  0.20214  0.45998  1.0000
  H   H131      1.0  0.22533  0.46716  0.15324  1.0000
  N   N4        1.0  0.16685  0.10471  0.41704  1.0000
  H   H132      1.0  0.16859  0.16089  0.48093  1.0000
  N   N5        1.0  0.17628  0.25210  0.12288  1.0000
  C   C75       1.0  0.16721  0.27560  0.10906  1.0000
  C   C76       1.0  0.17051  0.21953  0.13831  1.0000
  C   C77       1.0  0.18166  0.28164  0.13803  1.0000
  C   C78       1.0  0.18608  0.23417  0.10762  1.0000
  C   C79       1.0  0.18240  0.20439  0.08983  1.0000
  C   C80       1.0  0.17194  0.31003  0.09238  1.0000
  H   H133      1.0  0.02301  0.06803  0.24351  1.0000
  H   H134      1.0  0.21134  0.03780  0.46010  1.0000
  H   H135      1.0  0.21892  0.40081  0.14032  1.0000
  Fe  Fe6       1.0  0.13948  0.99938  0.23165  1.0000
  S   S13       1.0  0.11928  0.99418  0.23417  1.0000
  Fe  Fe7       1.0  0.16444  0.01245  0.48752  1.0000
  C   C81       1.0  0.19056  0.01798  0.40479  1.0000
  H   H136      1.0  0.06102  0.22974  0.06722  1.0000
  H   H137      1.0  0.00362  0.10857  0.21054  1.0000
  C   C82       1.0  0.00100  0.04248  0.23753  1.0000
  H   H138      1.0  0.19906  0.46652  0.02184  1.0000
  S   S14       1.0  0.22225  0.21974  0.07947  1.0000
  H   H139      1.0  0.13919  0.00406  0.36495  1.0000
  H   H140      1.0  0.19511  0.04173  0.23675  1.0000
  C   C83       1.0  0.20318  0.02179  0.46557  1.0000
  H   H141      1.0  0.22920  0.42455  0.17231  1.0000
  H   H142      1.0  0.18035  0.19338  0.47105  1.0000
  H   H143      1.0  0.17308  0.03146  0.39428  1.0000
  H   H144      1.0  0.99968  0.43146  0.13035  1.0000
  H   H145      1.0  0.19551  0.04051  0.45965  1.0000
  C   C84       1.0  0.98500  0.12631  0.18374  1.0000
  H   H146      1.0  0.99122  0.04177  0.23849  1.0000
  H   H147      1.0  0.20198  0.35517  0.99388  1.0000
  H   H148      1.0  0.99496  0.37077  0.16639  1.0000
  H   H149      1.0  0.20872  0.05845  0.24687  1.0000
  H   H150      1.0  0.22986  0.10135  0.09821  1.0000
  C   C85       1.0  0.10979  0.00361  0.19071  1.0000
  C   C86       1.0  0.00409  0.00427  0.17560  1.0000
  H   H151      1.0  0.11805  0.01654  0.18471  1.0000
  H   H152      1.0  0.13814  0.99492  0.14902  1.0000
  H   H153      1.0  0.21225  0.99593  0.22599  1.0000
  H   H154      1.0  0.20759  0.98123  0.14009  1.0000
  H   H155      1.0  0.98699  0.11174  0.48755  1.0000
  Fe  Fe8       1.0  0.16022  0.98467  0.26419  1.0000
  H   H156      1.0  0.02243  0.01071  0.21616  1.0000
  H   H157      1.0  0.21945  0.03840  0.21112  1.0000
  H   H158      1.0  0.22617  0.99657  0.15267  1.0000
  C   C87       1.0  0.21103  0.47642  0.05715  1.0000
  H   H159      1.0  0.99157  0.00406  0.20527  1.0000
  H   H160      1.0  0.22808  0.01575  0.17995  1.0000
  H   H161      1.0  0.22843  0.98433  0.06255  1.0000
  S   S15       1.0  0.04364  0.99453  0.17863  1.0000
  H   H162      1.0  0.04794  0.98468  0.44529  1.0000
  H   H163      1.0  0.98288  0.08660  0.21386  1.0000
  H   H164      1.0  0.98248  0.46425  0.06197  1.0000
  H   H165      1.0  0.18770  0.99695  0.41926  1.0000
  C   C88       1.0  0.15138  0.98967  0.33649  1.0000
  S   S16       1.0  0.17375  0.98881  0.23413  1.0000
  H   H166      1.0  0.22886  0.42570  0.11956  1.0000
  H   H167      1.0  0.01372  0.99957  0.17236  1.0000
  C   C89       1.0  0.00538  0.00588  0.25301  1.0000
  H   H168      1.0  0.01513  0.00323  0.25281  1.0000
  H   H169      1.0  0.22926  0.48028  0.04216  1.0000
  H   H170      1.0  0.98908  0.99141  0.38275  1.0000
  H   H171      1.0  0.00399  0.98291  0.28852  1.0000
  C   C90       1.0  0.22935  0.10789  0.07941  1.0000
  H   H172      1.0  0.22984  0.07691  0.04785  1.0000
  S   S17       1.0  0.15032  0.98129  0.40717  1.0000
  Fe  Fe9       1.0  0.21619  0.27137  0.61347  1.0000
  S   S18       1.0  0.21223  0.26672  0.57620  1.0000
  S   S19       1.0  0.20605  0.32608  0.62929  1.0000
  Fe  Fe10      1.0  0.21321  0.19892  0.58219  1.0000
  S   S20       1.0  0.19895  0.15295  0.57574  1.0000
  S   S21       1.0  0.21620  0.20337  0.62015  1.0000
  H   H173      1.0  0.22084  0.44412  0.92733  1.0000
  H   H174      1.0  0.17854  0.28411  0.57053  1.0000
  C   C91       1.0  0.22438  0.43635  0.62070  1.0000
  S   S22       1.0  0.98263  0.19598  0.57621  1.0000
  Fe  Fe11      1.0  0.16026  0.43432  0.72132  1.0000
  H   H175      1.0  0.15319  0.13324  0.57792  1.0000
  S   S23       1.0  0.16752  0.37238  0.70919  1.0000
  H   H176      1.0  0.04983  0.00006  0.53457  1.0000
  H   H177      1.0  0.17255  0.44379  0.92980  1.0000
  H   H178      1.0  0.17913  0.22796  0.66231  1.0000
  C   C92       1.0  0.98790  0.11331  0.50633  1.0000
  S   S24       1.0  0.14365  0.44014  0.74446  1.0000
  H   H179      1.0  0.22814  0.07026  0.79103  1.0000
  Fe  Fe12      1.0  0.99015  0.13341  0.58645  1.0000
  C   C93       1.0  0.21419  0.43906  0.63882  1.0000
  S   S25       1.0  0.00283  0.10200  0.56042  1.0000
  C   C94       1.0  0.06264  0.44879  0.77434  1.0000
  H   H180      1.0  0.99209  0.33273  0.66209  1.0000
  S   S26       1.0  0.99282  0.14900  0.62313  1.0000
  H   H181      1.0  0.04082  0.03681  0.56068  1.0000
  H   H182      1.0  0.06113  0.05800  0.56749  1.0000
  S   S27       1.0  0.18230  0.41144  0.98739  1.0000
  H   H183      1.0  0.06349  0.41179  0.69419  1.0000
  S   S28       1.0  0.02457  0.41931  0.63010  1.0000
  C   C95       1.0  0.00917  0.05205  0.56248  1.0000
  C   C96       1.0  0.00799  0.02739  0.58260  1.0000
  H   H184      1.0  0.20545  0.00929  0.57248  1.0000
  H   H185      1.0  0.18041  0.47893  0.85084  1.0000
  H   H186      1.0  0.19265  0.23755  0.64520  1.0000
  H   H187      1.0  0.07912  0.41290  0.69837  1.0000
  H   H188      1.0  0.00303  0.03863  0.59749  1.0000
  H   H189      1.0  0.19338  0.33110  0.58362  1.0000
  H   H190      1.0  0.03070  0.05822  0.59630  1.0000
  H   H191      1.0  0.20702  0.40186  0.73445  1.0000
  C   C97       1.0  0.99952  0.31038  0.63013  1.0000
  C   C98       1.0  0.00820  0.31710  0.61247  1.0000
  C   C99       1.0  0.01580  0.35008  0.61295  1.0000
  C   C100      1.0  0.01503  0.37684  0.63120  1.0000
  C   C101      1.0  0.00641  0.36999  0.64894  1.0000
  C   C102      1.0  0.99872  0.33731  0.64830  1.0000
  H   H192      1.0  0.00900  0.29701  0.59832  1.0000
  H   H193      1.0  0.02235  0.35483  0.59904  1.0000
  H   H194      1.0  0.00557  0.39011  0.66307  1.0000
  C   C103      1.0  0.22587  0.41242  0.54929  1.0000
  H   H195      1.0  0.16884  0.14901  0.60268  1.0000
  H   H196      1.0  0.01667  0.05578  0.52768  1.0000
  C   C104      1.0  0.01568  0.03691  0.54331  1.0000
  C   C105      1.0  0.01347  0.98839  0.58367  1.0000
  H   H197      1.0  0.20106  0.45120  0.85996  1.0000
  C   C106      1.0  0.19190  0.17934  0.66296  1.0000
  H   H198      1.0  0.15564  0.17865  0.61027  1.0000
  C   C107      1.0  0.20127  0.98270  0.56584  1.0000
  C   C108      1.0  0.17959  0.41524  0.89822  1.0000
  H   H199      1.0  0.06780  0.41971  0.77437  1.0000
  H   H200      1.0  0.98048  0.17522  0.50583  1.0000
  C   C109      1.0  0.05859  0.02704  0.57385  1.0000
  H   H201      1.0  0.07134  0.36709  0.70494  1.0000
  C   C110      1.0  0.16993  0.21378  0.59287  1.0000
  H   H202      1.0  0.19079  0.41061  0.82113  1.0000
  C   C111      1.0  0.19238  0.13054  0.55233  1.0000
  C   C112      1.0  0.19491  0.14235  0.52923  1.0000
  C   C113      1.0  0.18949  0.12340  0.51145  1.0000
  C   C114      1.0  0.18147  0.09225  0.51635  1.0000
  C   C115      1.0  0.17895  0.08040  0.53944  1.0000
  C   C116      1.0  0.18434  0.09944  0.55724  1.0000
  H   H203      1.0  0.20107  0.16608  0.52505  1.0000
  H   H204      1.0  0.15911  0.22511  0.63955  1.0000
  H   H205      1.0  0.17273  0.05687  0.54360  1.0000
  H   H206      1.0  0.18225  0.09002  0.57499  1.0000
  C   C117      1.0  0.19518  0.33731  0.65159  1.0000
  C   C118      1.0  0.19310  0.31151  0.67104  1.0000
  C   C119      1.0  0.18457  0.32259  0.68839  1.0000
  C   C120      1.0  0.17821  0.35996  0.68685  1.0000
  C   C121      1.0  0.18025  0.38562  0.66737  1.0000
  C   C122      1.0  0.18865  0.37430  0.64988  1.0000
  H   H207      1.0  0.19820  0.28341  0.67298  1.0000
  H   H208      1.0  0.18304  0.30239  0.70334  1.0000
  H   H209      1.0  0.17522  0.41395  0.66569  1.0000
  H   H210      1.0  0.19008  0.39437  0.63486  1.0000
  H   H211      1.0  0.99630  0.17122  0.50178  1.0000
  H   H212      1.0  0.18530  0.15738  0.66985  1.0000
  H   H213      1.0  0.19849  0.16351  0.65149  1.0000
  H   H214      1.0  0.19652  0.19053  0.67762  1.0000
  H   H215      1.0  0.18720  0.18625  0.61752  1.0000
  H   H216      1.0  0.22850  0.39289  0.56439  1.0000
  N   N6        1.0  0.06673  0.47732  0.75475  1.0000
  H   H217      1.0  0.16772  0.30445  0.59082  1.0000
  H   H218      1.0  0.20331  0.41409  0.68022  1.0000
  C   C123      1.0  0.98853  0.15810  0.51133  1.0000
  H   H219      1.0  0.16460  0.15888  0.56095  1.0000
  H   H220      1.0  0.16488  0.31504  0.62954  1.0000
  C   C124      1.0  0.06592  0.45973  0.73140  1.0000
  C   C125      1.0  0.98575  0.02452  0.52172  1.0000
  H   H221      1.0  0.98459  0.47115  0.75447  1.0000
  H   H222      1.0  0.08145  0.04575  0.57992  1.0000
  H   H223      1.0  0.22941  0.06016  0.76084  1.0000
  H   H224      1.0  0.09029  0.44445  0.74008  1.0000
  H   H225      1.0  0.17409  0.17687  0.63477  1.0000
  C   C126      1.0  0.18586  0.21509  0.65004  1.0000
  H   H226      1.0  0.98492  0.43887  0.59130  1.0000
  H   H227      1.0  0.14511  0.29942  0.64787  1.0000
  H   H228      1.0  0.98946  0.16173  0.52999  1.0000
  H   H229      1.0  0.06053  0.03787  0.52925  1.0000
  H   H230      1.0  0.07559  0.40143  0.74010  1.0000
  S   S29       1.0  0.04161  0.45863  0.68398  1.0000
  H   H231      1.0  0.19639  0.01353  0.53447  1.0000
  H   H232      1.0  0.14869  0.42952  0.85413  1.0000
  H   H233      1.0  0.06435  0.46160  0.79116  1.0000
  H   H234      1.0  0.99372  0.03309  0.51095  1.0000
  H   H235      1.0  0.15096  0.18585  0.56901  1.0000
  H   H236      1.0  0.22764  0.47278  0.53487  1.0000
  H   H237      1.0  0.15227  0.27010  0.67068  1.0000
  C   C127      1.0  0.21252  0.98879  0.50095  1.0000
  C   C128      1.0  0.18861  0.98206  0.57603  1.0000
  C   C129      1.0  0.20839  0.47651  0.98008  1.0000
  H   H238      1.0  0.21353  0.40868  0.64764  1.0000
  H   H239      1.0  0.18368  0.01047  0.57107  1.0000
  C   C130      1.0  0.20212  0.01558  0.49178  1.0000
  N   N7        1.0  0.17359  0.23335  0.61421  1.0000
  C   C131      1.0  0.15759  0.16255  0.57482  1.0000
  H   H240      1.0  0.21469  0.40892  0.88162  1.0000
  C   C132      1.0  0.15144  0.46036  0.85481  1.0000
  H   H241      1.0  0.16818  0.35373  0.92431  1.0000
  C   C133      1.0  0.20155  0.98547  0.53911  1.0000
  C   C134      1.0  0.18341  0.44688  0.84912  1.0000
  H   H242      1.0  0.15084  0.45908  0.89217  1.0000
  H   H243      1.0  0.17171  0.42669  0.88910  1.0000
  H   H244      1.0  0.19172  0.45832  0.65688  1.0000
  H   H245      1.0  0.21667  0.07156  0.51457  1.0000
  H   H246      1.0  0.19528  0.46280  0.81963  1.0000
  H   H247      1.0  0.12059  0.41252  0.94738  1.0000
  C   C135      1.0  0.16270  0.24930  0.62747  1.0000
  H   H248      1.0  0.16443  0.23541  0.58239  1.0000
  H   H249      1.0  0.17572  0.42732  0.85205  1.0000
  C   C136      1.0  0.07064  0.40063  0.70537  1.0000
  H   H250      1.0  0.05137  0.37425  0.78281  1.0000
  H   H251      1.0  0.18464  0.28309  0.62107  1.0000
  C   C137      1.0  0.00179  0.44823  0.57243  1.0000
  C   C138      1.0  0.98391  0.00123  0.70415  1.0000
  H   H252      1.0  0.12819  0.44583  0.96452  1.0000
  H   H253      1.0  0.19160  0.13285  0.49373  1.0000
  H   H254      1.0  0.20603  0.44587  0.62955  1.0000
  H   H255      1.0  0.19959  0.39274  0.91036  1.0000
  H   H256      1.0  0.22360  0.08117  0.56431  1.0000
  C   C139      1.0  0.99321  0.42151  0.58679  1.0000
  H   H257      1.0  0.16302  0.38395  0.94794  1.0000
  C   C140      1.0  0.21648  0.06076  0.53292  1.0000
  Fe  Fe13      1.0  0.15409  0.47629  0.76788  1.0000
  H   H258      1.0  0.15438  0.32368  0.66686  1.0000
  H   H259      1.0  0.04624  0.43505  0.75764  1.0000
  H   H260      1.0  0.17180  0.28592  0.65184  1.0000
  H   H261      1.0  0.20739  0.06392  0.54045  1.0000
  C   C141      1.0  0.16289  0.17462  0.59698  1.0000
  Fe  Fe14      1.0  0.03132  0.46966  0.65210  1.0000
  S   S30       1.0  0.17081  0.46606  0.74610  1.0000
  H   H262      1.0  0.04818  0.42132  0.57168  1.0000
  C   C142      1.0  0.04934  0.43925  0.77510  1.0000
  H   H263      1.0  0.22083  0.00013  0.49240  1.0000
  Fe  Fe15      1.0  0.16964  0.46691  0.98332  1.0000
  C   C143      1.0  0.15324  0.29555  0.65762  1.0000
  S   S31       1.0  0.15240  0.45954  0.80717  1.0000
  H   H264      1.0  0.04951  0.40462  0.80795  1.0000
  N   N8        1.0  0.21360  0.98459  0.52683  1.0000
  S   S32       1.0  0.15273  0.46946  0.96440  1.0000
  S   S33       1.0  0.17486  0.06975  0.49298  1.0000
  H   H265      1.0  0.00943  0.42887  0.56679  1.0000
  C   C144      1.0  0.18011  0.20118  0.62844  1.0000
  H   H266      1.0  0.20873  0.44381  0.98551  1.0000
  C   C145      1.0  0.11582  0.47619  0.94166  1.0000
  C   C146      1.0  0.06810  0.41309  0.73009  1.0000
  H   H267      1.0  0.04317  0.08910  0.58914  1.0000
  C   C147      1.0  0.09697  0.00793  0.57413  1.0000
  H   H268      1.0  0.07212  0.47496  0.71867  1.0000
  H   H269      1.0  0.98192  0.01435  0.73979  1.0000
  H   H270      1.0  0.10880  0.47506  0.95568  1.0000
  H   H271      1.0  0.06017  0.39712  0.73703  1.0000
  C   C148      1.0  0.12484  0.44220  0.94720  1.0000
  C   C149      1.0  0.19317  0.43440  0.86609  1.0000
  H   H272      1.0  0.21476  0.43072  0.69621  1.0000
  H   H273      1.0  0.19030  0.25243  0.59914  1.0000
  H   H274      1.0  0.17783  0.20604  0.58151  1.0000
  H   H275      1.0  0.99641  0.09835  0.51090  1.0000
  C   C150      1.0  0.05946  0.00523  0.53441  1.0000
  H   H276      1.0  0.19135  0.40423  0.74105  1.0000
  H   H277      1.0  0.19945  0.44064  0.92282  1.0000
  H   H278      1.0  0.19820  0.46811  0.72157  1.0000
  H   H279      1.0  0.22578  0.46859  0.56597  1.0000
  H   H280      1.0  0.98750  0.46450  0.82978  1.0000
  H   H281      1.0  0.98784  0.03005  0.53981  1.0000
  H   H282      1.0  0.19717  0.37595  0.71717  1.0000
  C   C151      1.0  0.22133  0.01647  0.53501  1.0000
  H   H283      1.0  0.22636  0.01941  0.78174  1.0000
  H   H284      1.0  0.18050  0.35745  0.57285  1.0000
  H   H285      1.0  0.22996  0.01623  0.52512  1.0000
  H   H286      1.0  0.22271  0.41221  0.60877  1.0000
  H   H287      1.0  0.15771  0.39575  0.91965  1.0000
  H   H288      1.0  0.18133  0.38348  0.89298  1.0000
  C   C152      1.0  0.18787  0.44244  0.82412  1.0000
  H   H289      1.0  0.04401  0.46485  0.78249  1.0000
  H   H290      1.0  0.07997  0.02241  0.54203  1.0000
  H   H291      1.0  0.06197  0.02309  0.59135  1.0000
  H   H292      1.0  0.22349  0.00938  0.55324  1.0000
  C   C153      1.0  0.17726  0.29720  0.58775  1.0000
  C   C154      1.0  0.17569  0.41350  0.92424  1.0000
  C   C155      1.0  0.16399  0.28785  0.64135  1.0000
  H   H293      1.0  0.18226  0.35206  0.60343  1.0000
  C   C156      1.0  0.04048  0.05805  0.59469  1.0000
  H   H294      1.0  0.15546  0.25711  0.61568  1.0000
  C   C157      1.0  0.16552  0.38493  0.92921  1.0000
  C   C158      1.0  0.22402  0.08901  0.54551  1.0000
  C   C159      1.0  0.18192  0.26623  0.60638  1.0000
  H   H295      1.0  0.02690  0.43262  0.57913  1.0000
  H   H296      1.0  0.18297  0.40253  0.93514  1.0000
  H   H297      1.0  0.10760  0.44608  0.76293  1.0000
  C   C160      1.0  0.04672  0.40121  0.79016  1.0000
  C   C161      1.0  0.18378  0.33682  0.58691  1.0000
  C   C162      1.0  0.20016  0.42586  0.90595  1.0000
  S   S34       1.0  0.98931  0.26983  0.63028  1.0000
  H   H298      1.0  0.21611  0.41343  0.54902  1.0000
  H   H299      1.0  0.04515  0.44684  0.59797  1.0000
  H   H300      1.0  0.09797  0.44491  0.66756  1.0000
  C   C163      1.0  0.03205  0.45859  0.57217  1.0000
  C   C164      1.0  0.15268  0.47704  0.87646  1.0000
  H   H301      1.0  0.99300  0.01255  0.70222  1.0000
  Fe  Fe16      1.0  0.98435  0.21040  0.61360  1.0000
  H   H302      1.0  0.03218  0.45971  0.55312  1.0000
  H   H303      1.0  0.99102  0.39521  0.57685  1.0000
  H   H304      1.0  0.05706  0.46648  0.72451  1.0000
  H   H305      1.0  0.00834  0.47150  0.60326  1.0000
  H   H306      1.0  0.03710  0.39621  0.79093  1.0000
  H   H307      1.0  0.13229  0.44215  0.93406  1.0000
  C   C165      1.0  0.08357  0.01313  0.57737  1.0000
  H   H308      1.0  0.22465  0.46256  0.66441  1.0000
  H   H309      1.0  0.19561  0.40187  0.86362  1.0000
  C   C166      1.0  0.02102  0.99765  0.54427  1.0000
  H   H310      1.0  0.10026  0.02484  0.55826  1.0000
  H   H311      1.0  0.11182  0.46983  0.92532  1.0000
  H   H312      1.0  0.99718  0.40972  0.60290  1.0000
  C   C167      1.0  0.06058  0.99468  0.49142  1.0000
  C   C168      1.0  0.08885  0.45492  0.75790  1.0000
  H   H313      1.0  0.22111  0.39082  0.92139  1.0000
  H   H314      1.0  0.99718  0.45961  0.55691  1.0000
  H   H315      1.0  0.22949  0.39847  0.53332  1.0000
  H   H316      1.0  0.18062  0.45094  0.81252  1.0000
  C   C169      1.0  0.22198  0.42197  0.91357  1.0000
  H   H317      1.0  0.99209  0.46226  0.71405  1.0000
  H   H318      1.0  0.08660  0.42892  0.76981  1.0000
  H   H319      1.0  0.10119  0.01972  0.58910  1.0000
  H   H320      1.0  0.22580  0.05095  0.62280  1.0000
  H   H321      1.0  0.05048  0.47488  0.57222  1.0000
  H   H322      1.0  0.22061  0.12077  0.54295  1.0000
  H   H323      1.0  0.20163  0.04574  0.49917  1.0000
  H   H324      1.0  0.11604  0.45942  0.68757  1.0000
  C   C170      1.0  0.09793  0.47072  0.67829  1.0000
  N   N9        1.0  0.20656  0.47797  0.67465  1.0000
  C   C171      1.0  0.04475  0.45014  0.57895  1.0000
  H   H325      1.0  0.19366  0.00061  0.49623  1.0000
  H   H326      1.0  0.22516  0.46548  0.61056  1.0000
  N   N10       1.0  0.19010  0.44059  0.89129  1.0000
  C   C172      1.0  0.10822  0.47885  0.68963  1.0000
  N   N11       1.0  0.06414  0.99600  0.55800  1.0000
  C   C173      1.0  0.21288  0.43077  0.89540  1.0000
  C   C174      1.0  0.19826  0.40356  0.72685  1.0000
  C   C175      1.0  0.20591  0.43998  0.69005  1.0000
  C   C176      1.0  0.04495  0.02760  0.57703  1.0000
  C   C177      1.0  0.21626  0.47177  0.65632  1.0000
  C   C178      1.0  0.10060  0.47024  0.76490  1.0000
  H   H327      1.0  0.04390  0.04964  0.61186  1.0000
  C   C179      1.0  0.19698  0.44166  0.71108  1.0000
  C   C180      1.0  0.07741  0.99960  0.55599  1.0000
  H   H328      1.0  0.02606  0.98652  0.52947  1.0000
  H   H329      1.0  0.21430  0.46154  0.88772  1.0000
  H   H330      1.0  0.04181  0.99746  0.58321  1.0000
  H   H331      1.0  0.18782  0.44334  0.70524  1.0000
  H   H332      1.0  0.08078  0.99591  0.59335  1.0000
  H   H333      1.0  0.09998  0.47880  0.78314  1.0000
  H   H334      1.0  0.05086  0.99263  0.49141  1.0000
  C   C181      1.0  0.98107  0.98781  0.72926  1.0000
  H   H335      1.0  0.07483  0.98132  0.51335  1.0000
  N   N12       1.0  0.02306  0.77603  0.18787  1.0000
  H   H336      1.0  0.04188  0.71222  0.17977  1.0000
  Fe  Fe17      1.0  0.04442  0.89105  0.14800  1.0000
  S   S35       1.0  0.05369  0.90001  0.18074  1.0000
  S   S36       1.0  0.04656  0.82518  0.13628  1.0000
  Fe  Fe18      1.0  0.03712  0.93412  0.19271  1.0000
  S   S37       1.0  0.02966  0.92975  0.22998  1.0000
  C   C182      1.0  0.98130  0.95121  0.40948  1.0000
  H   H337      1.0  0.02921  0.69484  0.19674  1.0000
  S   S38       1.0  0.02746  0.92142  0.16141  1.0000
  S   S39       1.0  0.05114  0.94891  0.13082  1.0000
  H   H338      1.0  0.01979  0.74820  0.22213  1.0000
  C   C183      1.0  0.20198  0.49836  0.02035  1.0000
  H   H339      1.0  0.00534  0.54231  0.35598  1.0000
  Fe  Fe19      1.0  0.03959  0.66466  0.03662  1.0000
  S   S40       1.0  0.04909  0.65688  0.00219  1.0000
  S   S41       1.0  0.03567  0.73063  0.04644  1.0000
  Fe  Fe20      1.0  0.03829  0.57281  0.04469  1.0000
  S   S42       1.0  0.04819  0.55917  0.01109  1.0000
  H   H340      1.0  0.17729  0.76673  0.26602  1.0000
  Fe  Fe21      1.0  0.06039  0.60818  0.01927  1.0000
  S   S43       1.0  0.07999  0.61905  0.00975  1.0000
  C   C184      1.0  0.98128  0.64890  0.30608  1.0000
  S   S44       1.0  0.05142  0.61844  0.05417  1.0000
  S   S45       1.0  0.02581  0.62009  0.02915  1.0000
  Fe  Fe22      1.0  0.98225  0.79125  0.36102  1.0000
  S   S46       1.0  0.21782  0.70015  0.13435  1.0000
  S   S47       1.0  0.19647  0.68033  0.08851  1.0000
  Fe  Fe23      1.0  0.21805  0.76769  0.13816  1.0000
  S   S48       1.0  0.21334  0.80145  0.17091  1.0000
  S   S49       1.0  0.21132  0.78374  0.10322  1.0000
  H   H341      1.0  0.06036  0.93471  0.42364  1.0000
  H   H342      1.0  0.00010  0.74383  0.18786  1.0000
  S   S50       1.0  0.14973  0.91566  0.46729  1.0000
  C   C185      1.0  0.00494  0.70975  0.02121  1.0000
  C   C186      1.0  0.08810  0.97119  0.20591  1.0000
  H   H343      1.0  0.02239  0.70932  0.00587  1.0000
  S   S51       1.0  0.98884  0.81719  0.27253  1.0000
  H   H344      1.0  0.18606  0.87945  0.25330  1.0000
  S   S52       1.0  0.99336  0.76754  0.39088  1.0000
  H   H345      1.0  0.17443  0.76633  0.29649  1.0000
  S   S53       1.0  0.14913  0.94315  0.24541  1.0000
  Fe  Fe24      1.0  0.03634  0.60898  0.99598  1.0000
  Fe  Fe25      1.0  0.16164  0.95270  0.21465  1.0000
  S   S54       1.0  0.16540  0.90311  0.18926  1.0000
  C   C187      1.0  0.01345  0.84209  0.44018  1.0000
  C   C188      1.0  0.00907  0.86062  0.41991  1.0000
  C   C189      1.0  0.00285  0.83839  0.40472  1.0000
  C   C190      1.0  0.00100  0.79720  0.40956  1.0000
  C   C191      1.0  0.00544  0.77865  0.42976  1.0000
  C   C192      1.0  0.01160  0.80092  0.44501  1.0000
  H   H346      1.0  0.01046  0.89243  0.41596  1.0000
  H   H347      1.0  0.99959  0.85300  0.38915  1.0000
  H   H348      1.0  0.00409  0.74679  0.43365  1.0000
  H   H349      1.0  0.12264  0.59332  0.99495  1.0000
  H   H350      1.0  0.22719  0.96402  0.20826  1.0000
  C   C193      1.0  0.98996  0.86513  0.48732  1.0000
  H   H351      1.0  0.20915  0.57115  0.02906  1.0000
  S   S55       1.0  0.02088  0.87207  0.45897  1.0000
  H   H352      1.0  0.17448  0.80262  0.32742  1.0000
  C   C194      1.0  0.20001  0.83002  0.17548  1.0000
  C   C195      1.0  0.19092  0.82992  0.16022  1.0000
  C   C196      1.0  0.18036  0.85245  0.16473  1.0000
  C   C197      1.0  0.17891  0.87601  0.18417  1.0000
  C   C198      1.0  0.18808  0.87689  0.19916  1.0000
  C   C199      1.0  0.19848  0.85332  0.19506  1.0000
  H   H353      1.0  0.19197  0.81197  0.14515  1.0000
  H   H354      1.0  0.17331  0.85168  0.15300  1.0000
  H   H355      1.0  0.18711  0.89547  0.21391  1.0000
  H   H356      1.0  0.20537  0.85288  0.20713  1.0000
  C   C200      1.0  0.18639  0.62675  0.02082  1.0000
  C   C201      1.0  0.19683  0.64810  0.02148  1.0000
  C   C202      1.0  0.20001  0.66510  0.04193  1.0000
  C   C203      1.0  0.19276  0.66086  0.06200  1.0000
  C   C204      1.0  0.18225  0.63992  0.06127  1.0000
  C   C205      1.0  0.17902  0.62326  0.04076  1.0000
  H   H357      1.0  0.20252  0.65142  0.00607  1.0000
  H   H358      1.0  0.20804  0.68151  0.04217  1.0000
  H   H359      1.0  0.17655  0.63673  0.07666  1.0000
  H   H360      1.0  0.17087  0.60756  0.04039  1.0000
  C   C206      1.0  0.98087  0.89155  0.45039  1.0000
  H   H361      1.0  0.21968  0.54569  0.07584  1.0000
  H   H362      1.0  0.20843  0.58432  0.07011  1.0000
  C   C207      1.0  0.09296  0.58683  0.00841  1.0000
  H   H363      1.0  0.21804  0.95029  0.09758  1.0000
  C   C208      1.0  0.22568  0.94246  0.19489  1.0000
  H   H364      1.0  0.01700  0.73360  0.16410  1.0000
  C   C209      1.0  0.04318  0.79960  0.11124  1.0000
  C   C210      1.0  0.04530  0.75733  0.11085  1.0000
  C   C211      1.0  0.04291  0.73564  0.09139  1.0000
  C   C212      1.0  0.03849  0.75604  0.07186  1.0000
  C   C213      1.0  0.03636  0.79826  0.07226  1.0000
  C   C214      1.0  0.03866  0.81991  0.09179  1.0000
  H   H365      1.0  0.04883  0.74123  0.12572  1.0000
  H   H366      1.0  0.04450  0.70317  0.09147  1.0000
  H   H367      1.0  0.03291  0.81444  0.05732  1.0000
  H   H368      1.0  0.03699  0.85235  0.09173  1.0000
  C   C215      1.0  0.01771  0.90086  0.24156  1.0000
  C   C216      1.0  0.00968  0.88451  0.22752  1.0000
  C   C217      1.0  0.00072  0.85976  0.23731  1.0000
  C   C218      1.0  0.99948  0.85197  0.26130  1.0000
  C   C219      1.0  0.00715  0.87003  0.27542  1.0000
  C   C220      1.0  0.01623  0.89423  0.26557  1.0000
  H   H369      1.0  0.01039  0.89105  0.20916  1.0000
  H   H370      1.0  0.99470  0.84656  0.22627  1.0000
  H   H371      1.0  0.00629  0.86441  0.29388  1.0000
  H   H372      1.0  0.02227  0.90726  0.27663  1.0000
  H   H373      1.0  0.00349  0.87646  0.15926  1.0000
  S   S56       1.0  0.07455  0.88493  0.48960  1.0000
  H   H374      1.0  0.98925  0.70887  0.22037  1.0000
  C   C221      1.0  0.04418  0.95581  0.44074  1.0000
  C   C222      1.0  0.09279  0.54532  0.01427  1.0000
  H   H375      1.0  0.15973  0.82127  0.35796  1.0000
  H   H376      1.0  0.14273  0.93896  0.17737  1.0000
  C   C223      1.0  0.09717  0.97479  0.22134  1.0000
  C   C224      1.0  0.18129  0.77151  0.28261  1.0000
  H   H377      1.0  0.01051  0.79070  0.21569  1.0000
  H   H378      1.0  0.15722  0.87042  0.34394  1.0000
  H   H379      1.0  0.12205  0.94961  0.16521  1.0000
  H   H380      1.0  0.02811  0.76689  0.39932  1.0000
  H   H381      1.0  0.99668  0.72880  0.02160  1.0000
  H   H382      1.0  0.04247  0.74369  0.40379  1.0000
  S   S57       1.0  0.17297  0.97196  0.46072  1.0000
  H   H383      1.0  0.06645  0.91364  0.35649  1.0000
  C   C225      1.0  0.98410  0.64823  0.28014  1.0000
  H   H384      1.0  0.99450  0.62858  0.35923  1.0000
  H   H385      1.0  0.15622  0.78903  0.24183  1.0000
  N   N13       1.0  0.12316  0.88592  0.17486  1.0000
  C   C226      1.0  0.12714  0.92196  0.15992  1.0000
  C   C227      1.0  0.11000  0.88129  0.17344  1.0000
  C   C228      1.0  0.12549  0.89400  0.19954  1.0000
  C   C229      1.0  0.12995  0.84751  0.16881  1.0000
  C   C230      1.0  0.12975  0.83536  0.14353  1.0000
  H   H386      1.0  0.19454  0.93279  0.16171  1.0000
  C   C231      1.0  0.12076  0.86241  0.21813  1.0000
  C   C232      1.0  0.10440  0.89376  0.15026  1.0000
  C   C233      1.0  0.09166  0.88058  0.15035  1.0000
  C   C234      1.0  0.13823  0.79928  0.13906  1.0000
  H   H387      1.0  0.03945  0.96132  0.42461  1.0000
  C   C235      1.0  0.12180  0.87703  0.24239  1.0000
  S   S58       1.0  0.16764  0.97060  0.30016  1.0000
  H   H388      1.0  0.12517  0.91893  0.14167  1.0000
  H   H389      1.0  0.10761  0.84953  0.17823  1.0000
  H   H390      1.0  0.10503  0.90046  0.18623  1.0000
  H   H391      1.0  0.12170  0.92430  0.20393  1.0000
  H   H392      1.0  0.13510  0.89523  0.20202  1.0000
  H   H393      1.0  0.13932  0.84918  0.17332  1.0000
  H   H394      1.0  0.12651  0.82131  0.17947  1.0000
  H   H395      1.0  0.13243  0.86034  0.13123  1.0000
  H   H396      1.0  0.12080  0.82604  0.13986  1.0000
  C   C236      1.0  0.00496  0.73409  0.20323  1.0000
  H   H397      1.0  0.01147  0.57883  0.14185  1.0000
  H   H398      1.0  0.12591  0.83333  0.21694  1.0000
  H   H399      1.0  0.11134  0.85646  0.21632  1.0000
  H   H400      1.0  0.10426  0.92729  0.14754  1.0000
  H   H401      1.0  0.10930  0.88057  0.13534  1.0000
  H   H402      1.0  0.09133  0.84704  0.15084  1.0000
  H   H403      1.0  0.08644  0.89221  0.16547  1.0000
  H   H404      1.0  0.08753  0.89317  0.13455  1.0000
  H   H405      1.0  0.13587  0.77276  0.15061  1.0000
  H   H406      1.0  0.13780  0.79061  0.12094  1.0000
  H   H407      1.0  0.14744  0.80726  0.14186  1.0000
  H   H408      1.0  0.00677  0.49544  0.12532  1.0000
  C   C237      1.0  0.16651  0.96117  0.37085  1.0000
  H   H409      1.0  0.11265  0.70102  0.04430  1.0000
  H   H410      1.0  0.11855  0.85368  0.25529  1.0000
  H   H411      1.0  0.13109  0.88266  0.24561  1.0000
  H   H412      1.0  0.11640  0.90539  0.24478  1.0000
  H   H413      1.0  0.14906  0.83891  0.23907  1.0000
  S   S59       1.0  0.03230  0.52621  0.07294  1.0000
  N   N14       1.0  0.07747  0.73645  0.05913  1.0000
  C   C238      1.0  0.06991  0.72872  0.03933  1.0000
  C   C239      1.0  0.07583  0.70304  0.07753  1.0000
  C   C240      1.0  0.07292  0.77570  0.06928  1.0000
  C   C241      1.0  0.09036  0.74033  0.05182  1.0000
  C   C242      1.0  0.09524  0.71506  0.03131  1.0000
  H   H414      1.0  0.98955  0.65366  0.31458  1.0000
  C   C243      1.0  0.07796  0.78612  0.09243  1.0000
  C   C244      1.0  0.07981  0.65972  0.07092  1.0000
  C   C245      1.0  0.07659  0.62860  0.09030  1.0000
  H   H415      1.0  0.04174  0.84521  0.99581  1.0000
  H   H416      1.0  0.01273  0.58711  0.36286  1.0000
  C   C246      1.0  0.07519  0.83038  0.09779  1.0000
  H   H417      1.0  0.06085  0.72132  0.04593  1.0000
  H   H418      1.0  0.07310  0.70142  0.03020  1.0000
  H   H419      1.0  0.08088  0.70871  0.09279  1.0000
  H   H420      1.0  0.06639  0.70246  0.08371  1.0000
  H   H421      1.0  0.06315  0.77577  0.07208  1.0000
  H   H422      1.0  0.07473  0.80179  0.05695  1.0000
  H   H423      1.0  0.09233  0.77235  0.04667  1.0000
  H   H424      1.0  0.09591  0.73264  0.06673  1.0000
  H   H425      1.0  0.09177  0.72771  0.01491  1.0000
  H   H426      1.0  0.09277  0.68305  0.03314  1.0000
  C   C247      1.0  0.19170  0.96518  0.15983  1.0000
  H   H427      1.0  0.17533  0.52392  0.08906  1.0000
  H   H428      1.0  0.08766  0.78082  0.09213  1.0000
  H   H429      1.0  0.07386  0.76719  0.10676  1.0000
  H   H430      1.0  0.07561  0.65090  0.05531  1.0000
  H   H431      1.0  0.08953  0.65751  0.06806  1.0000
  H   H432      1.0  0.06693  0.62945  0.09434  1.0000
  H   H433      1.0  0.07928  0.59773  0.08482  1.0000
  H   H434      1.0  0.08120  0.63449  0.10607  1.0000
  H   H435      1.0  0.08711  0.81720  0.46091  1.0000
  H   H436      1.0  0.98546  0.92032  0.45191  1.0000
  H   H437      1.0  0.03779  0.94598  0.45481  1.0000
  Fe  Fe26      1.0  0.21218  0.71613  0.09822  1.0000
  C   C248      1.0  0.98323  0.96523  0.38422  1.0000
  C   C249      1.0  0.21362  0.95056  0.18381  1.0000
  H   H438      1.0  0.08004  0.85099  0.08532  1.0000
  H   H439      1.0  0.06559  0.83764  0.09709  1.0000
  H   H440      1.0  0.07784  0.83591  0.11540  1.0000
  N   N15       1.0  0.05787  0.85270  0.42102  1.0000
  C   C250      1.0  0.04916  0.88207  0.43231  1.0000
  H   H441      1.0  0.03713  0.64429  0.16902  1.0000
  C   C251      1.0  0.06832  0.84773  0.43606  1.0000
  C   C252      1.0  0.06209  0.86715  0.39705  1.0000
  C   C253      1.0  0.05323  0.89342  0.38267  1.0000
  C   C254      1.0  0.05406  0.92364  0.43751  1.0000
  C   C255      1.0  0.07795  0.81551  0.42896  1.0000
  C   C256      1.0  0.05778  0.89908  0.35759  1.0000
  H   H442      1.0  0.22591  0.94123  0.12357  1.0000
  H   H443      1.0  0.99045  0.62293  0.27609  1.0000
  H   H444      1.0  0.04568  0.86861  0.44909  1.0000
  H   H445      1.0  0.04126  0.88762  0.42208  1.0000
  H   H446      1.0  0.06532  0.83968  0.45418  1.0000
  H   H447      1.0  0.07283  0.87691  0.43667  1.0000
  H   H448      1.0  0.07002  0.88576  0.39771  1.0000
  H   H449      1.0  0.06512  0.84075  0.38683  1.0000
  H   H450      1.0  0.05195  0.92401  0.38962  1.0000
  H   H451      1.0  0.04445  0.88018  0.38282  1.0000
  H   H452      1.0  0.05882  0.92052  0.45370  1.0000
  H   H453      1.0  0.09567  0.79523  0.43740  1.0000
  H   H454      1.0  0.08037  0.81836  0.41026  1.0000
  H   H455      1.0  0.19510  0.74115  0.30245  1.0000
  H   H456      1.0  0.09312  0.84930  0.43745  1.0000
  H   H457      1.0  0.98750  0.87130  0.44159  1.0000
  H   H458      1.0  0.05868  0.86944  0.34936  1.0000
  C   C257      1.0  0.03161  0.67072  0.16295  1.0000
  C   C258      1.0  0.22669  0.89967  0.20590  1.0000
  C   C259      1.0  0.06334  0.75158  0.99938  1.0000
  H   H459      1.0  0.98833  0.97383  0.16717  1.0000
  H   H460      1.0  0.03265  0.77908  0.99606  1.0000
  N   N16       1.0  0.17741  0.84998  0.28322  1.0000
  C   C260      1.0  0.16629  0.84247  0.27124  1.0000
  C   C261      1.0  0.17412  0.86070  0.30771  1.0000
  H   H461      1.0  0.03848  0.75891  0.20695  1.0000
  C   C262      1.0  0.18626  0.81464  0.28250  1.0000
  C   C263      1.0  0.16783  0.83931  0.24473  1.0000
  H   H462      1.0  0.15851  0.82028  0.21583  1.0000
  C   C264      1.0  0.16809  0.82794  0.32358  1.0000
  C   C265      1.0  0.16386  0.84529  0.34660  1.0000
  C   C266      1.0  0.15721  0.82065  0.23488  1.0000
  S   S60       1.0  0.18313  0.60450  0.99483  1.0000
  H   H463      1.0  0.15962  0.86749  0.27442  1.0000
  H   H464      1.0  0.16201  0.81481  0.27851  1.0000
  H   H465      1.0  0.18201  0.86848  0.31680  1.0000
  H   H466      1.0  0.16817  0.88819  0.30767  1.0000
  H   H467      1.0  0.17633  0.91198  0.26924  1.0000
  H   H468      1.0  0.17136  0.85695  0.35548  1.0000
  H   H469      1.0  0.19224  0.81719  0.26673  1.0000
  H   H470      1.0  0.19217  0.81545  0.29712  1.0000
  H   H471      1.0  0.16864  0.87014  0.23652  1.0000
  H   H472      1.0  0.17587  0.82111  0.23968  1.0000
  C   C267      1.0  0.00652  0.81120  0.16384  1.0000
  H   H473      1.0  0.07480  0.78454  0.43324  1.0000
  H   H474      1.0  0.16029  0.81612  0.31586  1.0000
  H   H475      1.0  0.01490  0.78624  0.46053  1.0000
  H   H476      1.0  0.99543  0.89232  0.48683  1.0000
  H   H477      1.0  0.98737  0.94046  0.37398  1.0000
  H   H478      1.0  0.17872  0.94697  0.34238  1.0000
  C   C268      1.0  0.05235  0.81191  0.42079  1.0000
  Fe  Fe27      1.0  0.03477  0.98055  0.14649  1.0000
  C   C269      1.0  0.18298  0.88657  0.27111  1.0000
  H   H479      1.0  0.19080  0.55386  0.04862  1.0000
  C   C270      1.0  0.19440  0.52541  0.05693  1.0000
  C   C271      1.0  0.03605  0.76768  0.40961  1.0000
  H   H480      1.0  0.03440  0.83208  0.41117  1.0000
  H   H481      1.0  0.04989  0.80095  0.43879  1.0000
  H   H482      1.0  0.19094  0.91863  0.29838  1.0000
  H   H483      1.0  0.99337  0.48714  0.09537  1.0000
  H   H484      1.0  0.98806  0.67723  0.27397  1.0000
  C   C272      1.0  0.11421  0.53822  0.00620  1.0000
  H   H485      1.0  0.05875  0.78893  0.41373  1.0000
  C   C273      1.0  0.22579  0.59936  0.05762  1.0000
  H   H486      1.0  0.05376  0.82406  0.21299  1.0000
  H   H487      1.0  0.08455  0.53175  0.01980  1.0000
  C   C274      1.0  0.04139  0.80942  0.40632  1.0000
  H   H488      1.0  0.04392  0.81384  0.38773  1.0000
  H   H489      1.0  0.22007  0.89588  0.22047  1.0000
  H   H490      1.0  0.00045  0.72022  0.23965  1.0000
  H   H491      1.0  0.15285  0.97366  0.14448  1.0000
  H   H492      1.0  0.19639  0.53274  0.07474  1.0000
  C   C275      1.0  0.04613  0.82259  0.22568  1.0000
  H   H493      1.0  0.04724  0.79539  0.23743  1.0000
  H   H494      1.0  0.04598  0.84993  0.23608  1.0000
  C   C276      1.0  0.10822  0.92551  0.48451  1.0000
  H   H495      1.0  0.09506  0.90812  0.46183  1.0000
  C   C277      1.0  0.10334  0.52128  0.01320  1.0000
  C   C278      1.0  0.98304  0.57884  0.35158  1.0000
  H   H496      1.0  0.98461  0.55018  0.34252  1.0000
  H   H497      1.0  0.19417  0.51681  0.01441  1.0000
  H   H498      1.0  0.99152  0.76068  0.22672  1.0000
  C   C279      1.0  0.03460  0.82143  0.21343  1.0000
  H   H499      1.0  0.04134  0.79245  0.18265  1.0000
  H   H500      1.0  0.10407  0.63576  0.99654  1.0000
  H   H501      1.0  0.02735  0.81909  0.22687  1.0000
  H   H502      1.0  0.03031  0.75627  0.15504  1.0000
  H   H503      1.0  0.09570  0.96504  0.23924  1.0000
  H   H504      1.0  0.99533  0.84695  0.14085  1.0000
  H   H505      1.0  0.00854  0.60706  0.11534  1.0000
  H   H506      1.0  0.03334  0.76121  0.42800  1.0000
  C   C280      1.0  0.03477  0.78567  0.19709  1.0000
  H   H507      1.0  0.03350  0.85070  0.20349  1.0000
  C   C281      1.0  0.99805  0.96875  0.16601  1.0000
  C   C282      1.0  0.01839  0.81394  0.17542  1.0000
  C   C283      1.0  0.10381  0.60375  0.00121  1.0000
  H   H508      1.0  0.00818  0.70673  0.03891  1.0000
  C   C284      1.0  0.15535  0.97735  0.37755  1.0000
  C   C285      1.0  0.01481  0.76339  0.20795  1.0000
  C   C286      1.0  0.03241  0.70534  0.17920  1.0000
  H   H509      1.0  0.02505  0.82472  0.16206  1.0000
  H   H510      1.0  0.21394  0.92989  0.16918  1.0000
  C   C287      1.0  0.19106  0.73893  0.28561  1.0000
  C   C288      1.0  0.19377  0.90317  0.28239  1.0000
  C   C289      1.0  0.11437  0.57971  0.00015  1.0000
  H   H511      1.0  0.18734  0.70844  0.28509  1.0000
  H   H512      1.0  0.19800  0.74205  0.27151  1.0000
  H   H513      1.0  0.01088  0.85307  0.13473  1.0000
  H   H514      1.0  0.18166  0.48600  0.04265  1.0000
  H   H515      1.0  0.21155  0.53438  0.99342  1.0000
  C   C290      1.0  0.02533  0.74364  0.17062  1.0000
  H   H516      1.0  0.00881  0.70328  0.20039  1.0000
  H   H517      1.0  0.01699  0.83889  0.18736  1.0000
  H   H518      1.0  0.22303  0.62190  0.04399  1.0000
  H   H519      1.0  0.20027  0.87844  0.28667  1.0000
  S   S61       1.0  0.98441  0.84906  0.33961  1.0000
  H   H520      1.0  0.20654  0.93912  0.19613  1.0000
  H   H521      1.0  0.99923  0.80885  0.17724  1.0000
  H   H522      1.0  0.01600  0.75910  0.01167  1.0000
  C   C291      1.0  0.22685  0.94322  0.10448  1.0000
  H   H523      1.0  0.00120  0.56769  0.38226  1.0000
  C   C292      1.0  0.08913  0.81966  0.44201  1.0000
  H   H524      1.0  0.05145  0.91884  0.34789  1.0000
  H   H525      1.0  0.14599  0.90498  0.15436  1.0000
  H   H526      1.0  0.06866  0.72617  0.99180  1.0000
  C   C293      1.0  0.21635  0.56797  0.06268  1.0000
  C   C294      1.0  0.21336  0.54724  0.04044  1.0000
  H   H527      1.0  0.22540  0.87674  0.19299  1.0000
  C   C295      1.0  0.06865  0.76458  0.02126  1.0000
  Fe  Fe28      1.0  0.98045  0.81319  0.30926  1.0000
  H   H528      1.0  0.06466  0.97554  0.47778  1.0000
  H   H529      1.0  0.03486  0.68025  0.14523  1.0000
  H   H530      1.0  0.02237  0.66119  0.16250  1.0000
  C   C296      1.0  0.14038  0.93120  0.15998  1.0000
  H   H531      1.0  0.00077  0.51481  0.15154  1.0000
  C   C297      1.0  0.09706  0.91159  0.47955  1.0000
  S   S62       1.0  0.16256  0.50807  0.01079  1.0000
  C   C298      1.0  0.17331  0.51435  0.07172  1.0000
  H   H532      1.0  0.05416  0.74215  0.00331  1.0000
  C   C299      1.0  0.00393  0.84931  0.14876  1.0000
  H   H533      1.0  0.99074  0.57261  0.13052  1.0000
  H   H534      1.0  0.01678  0.55957  0.11444  1.0000
  C   C300      1.0  0.19999  0.93455  0.26636  1.0000
  H   H535      1.0  0.01897  0.50246  0.03433  1.0000
  N   N17       1.0  0.20544  0.51146  0.04356  1.0000
  H   H536      1.0  0.07729  0.77795  0.01653  1.0000
  C   C301      1.0  0.99603  0.73080  0.22376  1.0000
  H   H537      1.0  0.00647  0.78523  0.15257  1.0000
  H   H538      1.0  0.06265  0.78871  0.02840  1.0000
  C   C302      1.0  0.10868  0.71567  0.02881  1.0000
  C   C303      1.0  0.98518  0.48540  0.10680  1.0000
  C   C304      1.0  0.99510  0.59902  0.35098  1.0000
  H   H539      1.0  0.18855  0.96057  0.12342  1.0000
  H   H540      1.0  0.11166  0.74725  0.02629  1.0000
  C   C305      1.0  0.99878  0.51077  0.13335  1.0000
  Fe  Fe29      1.0  0.05957  0.95925  0.16442  1.0000
  H   H541      1.0  0.22031  0.49283  0.00485  1.0000
  H   H542      1.0  0.22710  0.61579  0.07342  1.0000
  C   C306      1.0  0.99788  0.55423  0.12192  1.0000
  H   H543      1.0  0.22183  0.53904  0.03132  1.0000
  Fe  Fe30      1.0  0.15525  0.97050  0.44523  1.0000
  C   C307      1.0  0.17006  0.95943  0.34721  1.0000
  H   H544      1.0  0.22430  0.56316  0.13239  1.0000
  H   H545      1.0  0.14154  0.96118  0.12573  1.0000
  H   H546      1.0  0.11188  0.69856  0.01362  1.0000
  C   C308      1.0  0.00938  0.57614  0.12358  1.0000
  H   H547      1.0  0.20301  0.92127  0.24982  1.0000
  H   H548      1.0  0.10309  0.48928  0.01796  1.0000
  C   C309      1.0  0.18368  0.96941  0.13955  1.0000
  C   C310      1.0  0.00411  0.57224  0.36382  1.0000
  C   C311      1.0  0.18425  0.49524  0.05961  1.0000
  H   H549      1.0  0.99862  0.60330  0.33294  1.0000
  H   H550      1.0  0.17615  0.94914  0.14287  1.0000
  H   H551      1.0  0.00096  0.96585  0.14762  1.0000
  H   H552      1.0  0.07978  0.95878  0.21199  1.0000
  C   C312      1.0  0.16255  0.97365  0.32979  1.0000
  N   N18       1.0  0.98819  0.48482  0.13185  1.0000
  H   H553      1.0  0.00042  0.94015  0.17572  1.0000
  C   C313      1.0  0.21133  0.50222  0.99995  1.0000
  H   H554      1.0  0.99013  0.94572  0.41654  1.0000
  H   H555      1.0  0.16996  0.54105  0.06138  1.0000
  H   H556      1.0  0.00306  0.67904  0.01572  1.0000
  H   H557      1.0  0.19395  0.96110  0.26290  1.0000
  H   H558      1.0  0.99510  0.84033  0.47877  1.0000
  H   H559      1.0  0.11466  0.93245  0.47067  1.0000
  H   H560      1.0  0.17241  0.95003  0.38389  1.0000
  S   S63       1.0  0.12722  0.50619  0.00544  1.0000
  H   H561      1.0  0.18629  0.97319  0.17544  1.0000
  H   H562      1.0  0.02594  0.85158  0.99642  1.0000
  C   C314      1.0  0.14335  0.96749  0.14374  1.0000
  C   C315      1.0  0.02270  0.48603  0.06947  1.0000
  H   H563      1.0  0.20777  0.94529  0.27471  1.0000
  C   C316      1.0  0.01435  0.72915  0.00496  1.0000
  H   H564      1.0  0.16625  0.49195  0.07371  1.0000
  Fe  Fe31      1.0  0.16689  0.92050  0.48470  1.0000
  H   H565      1.0  0.99618  0.55373  0.10334  1.0000
  H   H566      1.0  0.21255  0.48498  0.07494  1.0000
  C   C317      1.0  0.01727  0.48136  0.04882  1.0000
  H   H567      1.0  0.98101  0.50626  0.16435  1.0000
  H   H568      1.0  0.00209  0.97710  0.24722  1.0000
  H   H569      1.0  0.00523  0.97830  0.20970  1.0000
  S   S64       1.0  0.07878  0.97989  0.16218  1.0000
  H   H570      1.0  0.23013  0.91314  0.09861  1.0000
  H   H571      1.0  0.98022  0.58312  0.30823  1.0000
  H   H572      1.0  0.98063  0.56907  0.36973  1.0000
  S   S65       1.0  0.15251  0.56896  0.96861  1.0000
  S   S66       1.0  0.03077  0.60349  0.95897  1.0000
  H   H573      1.0  0.05138  0.94904  0.56325  1.0000
  Fe  Fe32      1.0  0.13993  0.49894  0.72441  1.0000
  H   H574      1.0  0.18309  0.56451  0.87901  1.0000
  S   S67       1.0  0.14969  0.53547  0.74889  1.0000
  Fe  Fe33      1.0  0.16574  0.52294  0.72543  1.0000
  S   S68       1.0  0.18127  0.56434  0.71791  1.0000
  H   H575      1.0  0.01291  0.54676  0.50423  1.0000
  H   H576      1.0  0.05164  0.59642  0.75776  1.0000
  C   C318      1.0  0.04994  0.70121  0.94346  1.0000
  H   H577      1.0  0.05445  0.71382  0.95781  1.0000
  Fe  Fe34      1.0  0.03491  0.88523  0.53870  1.0000
  S   S69       1.0  0.15927  0.96061  0.51219  1.0000
  H   H578      1.0  0.99326  0.51345  0.75891  1.0000
  Fe  Fe35      1.0  0.04150  0.79689  0.52909  1.0000
  H   H579      1.0  0.19727  0.58163  0.88599  1.0000
  S   S70       1.0  0.04267  0.72853  0.53932  1.0000
  Fe  Fe36      1.0  0.05680  0.86611  0.50726  1.0000
  H   H580      1.0  0.12911  0.51557  0.85494  1.0000
  C   C319      1.0  0.02229  0.79162  0.96487  1.0000
  S   S71       1.0  0.05152  0.84639  0.54389  1.0000
  S   S72       1.0  0.02455  0.83452  0.52620  1.0000
  S   S73       1.0  0.17858  0.86380  0.49085  1.0000
  H   H581      1.0  0.99462  0.92185  0.52764  1.0000
  H   H582      1.0  0.13087  0.66528  0.92404  1.0000
  H   H583      1.0  0.02653  0.68761  0.96176  1.0000
  H   H584      1.0  0.21132  0.95857  0.49381  1.0000
  S   S74       1.0  0.17704  0.51730  0.96033  1.0000
  Fe  Fe37      1.0  0.03617  0.56172  0.65039  1.0000
  S   S75       1.0  0.04648  0.55615  0.68254  1.0000
  S   S76       1.0  0.03427  0.62699  0.63529  1.0000
  H   H585      1.0  0.20153  0.52346  0.69920  1.0000
  C   C320      1.0  0.01999  0.97323  0.56455  1.0000
  Fe  Fe38      1.0  0.03223  0.51538  0.69682  1.0000
  S   S77       1.0  0.02606  0.51381  0.73488  1.0000
  H   H586      1.0  0.09822  0.56371  0.71591  1.0000
  S   S78       1.0  0.02113  0.52442  0.66586  1.0000
  C   C321      1.0  0.04010  0.70082  0.56615  1.0000
  C   C322      1.0  0.03776  0.71999  0.58687  1.0000
  C   C323      1.0  0.03597  0.69682  0.60771  1.0000
  C   C324      1.0  0.03651  0.65417  0.60825  1.0000
  C   C325      1.0  0.03881  0.63486  0.58754  1.0000
  C   C326      1.0  0.04064  0.65807  0.56667  1.0000
  H   H587      1.0  0.03731  0.75274  0.58684  1.0000
  H   H588      1.0  0.03414  0.71216  0.62357  1.0000
  H   H589      1.0  0.03919  0.60218  0.58760  1.0000
  H   H590      1.0  0.04246  0.64287  0.55076  1.0000
  C   C327      1.0  0.18838  0.85508  0.51337  1.0000
  C   C328      1.0  0.19629  0.82137  0.51274  1.0000
  C   C329      1.0  0.20447  0.81396  0.52992  1.0000
  C   C330      1.0  0.20472  0.83996  0.54808  1.0000
  C   C331      1.0  0.19655  0.87285  0.54915  1.0000
  C   C332      1.0  0.18843  0.88053  0.53185  1.0000
  H   H591      1.0  0.99577  0.50184  0.79492  1.0000
  H   H592      1.0  0.21084  0.78891  0.52867  1.0000
  H   H593      1.0  0.19666  0.89289  0.56322  1.0000
  H   H594      1.0  0.18225  0.90615  0.53271  1.0000
  H   H595      1.0  0.99742  0.74240  0.90461  1.0000
  C   C333      1.0  0.10237  0.92180  0.52497  1.0000
  C   C334      1.0  0.09126  0.90738  0.52003  1.0000
  H   H596      1.0  0.06685  0.53189  0.57016  1.0000
  H   H597      1.0  0.02455  0.50774  0.50485  1.0000
  H   H598      1.0  0.07945  0.50440  0.77504  1.0000
  H   H599      1.0  0.20253  0.69205  0.53392  1.0000
  H   H600      1.0  0.08488  0.89998  0.53386  1.0000
  H   H601      1.0  0.10480  0.52915  0.90111  1.0000
  H   H602      1.0  0.99513  0.87714  0.78278  1.0000
  C   C335      1.0  0.18482  0.59615  0.69325  1.0000
  C   C336      1.0  0.19568  0.61532  0.69179  1.0000
  C   C337      1.0  0.19905  0.64015  0.67237  1.0000
  C   C338      1.0  0.19151  0.64645  0.65424  1.0000
  C   C339      1.0  0.18060  0.62749  0.65572  1.0000
  C   C340      1.0  0.17726  0.60244  0.67511  1.0000
  H   H603      1.0  0.20151  0.61112  0.70586  1.0000
  H   H604      1.0  0.20742  0.65475  0.67156  1.0000
  H   H605      1.0  0.17469  0.63215  0.64181  1.0000
  H   H606      1.0  0.16885  0.58812  0.67609  1.0000
  C   C341      1.0  0.00469  0.61515  0.77201  1.0000
  C   C342      1.0  0.00891  0.58061  0.78425  1.0000
  C   C343      1.0  0.01547  0.54999  0.77265  1.0000
  C   C344      1.0  0.01797  0.55363  0.74873  1.0000
  C   C345      1.0  0.01390  0.58842  0.73652  1.0000
  C   C346      1.0  0.00736  0.61903  0.74813  1.0000
  H   H607      1.0  0.00727  0.57779  0.80271  1.0000
  H   H608      1.0  0.01867  0.52342  0.78231  1.0000
  H   H609      1.0  0.01580  0.59181  0.71814  1.0000
  H   H610      1.0  0.00429  0.64586  0.73851  1.0000
  C   C347      1.0  0.01755  0.61833  0.94524  1.0000
  C   C348      1.0  0.01744  0.61813  0.92108  1.0000
  C   C349      1.0  0.00732  0.63126  0.90935  1.0000
  C   C350      1.0  0.99718  0.64502  0.92169  1.0000
  C   C351      1.0  0.99725  0.64479  0.94588  1.0000
  C   C352      1.0  0.00732  0.63119  0.95761  1.0000
  H   H611      1.0  0.02528  0.60806  0.91133  1.0000
  H   H612      1.0  0.00743  0.63134  0.89076  1.0000
  H   H613      1.0  0.98944  0.65521  0.95561  1.0000
  C   C353      1.0  0.03820  0.72400  0.93974  1.0000
  H   H614      1.0  0.98439  0.57697  0.76729  1.0000
  C   C354      1.0  0.08781  0.52897  0.69450  1.0000
  C   C355      1.0  0.09814  0.53742  0.70558  1.0000
  H   H615      1.0  0.03460  0.86178  0.96986  1.0000
  S   S79       1.0  0.02713  0.92459  0.56729  1.0000
  H   H616      1.0  0.12171  0.56408  0.85840  1.0000
  H   H617      1.0  0.18815  0.67152  0.53967  1.0000
  C   C356      1.0  0.00115  0.76920  0.93685  1.0000
  H   H618      1.0  0.22325  0.58899  0.59043  1.0000
  H   H619      1.0  0.98692  0.55128  0.72540  1.0000
  H   H620      1.0  0.19946  0.48485  0.97428  1.0000
  C   C357      1.0  0.12165  0.53158  0.86419  1.0000
  H   H621      1.0  0.19907  0.51370  0.87011  1.0000
  Fe  Fe39      1.0  0.22140  0.77932  0.58904  1.0000
  H   H622      1.0  0.10482  0.61489  0.65523  1.0000
  H   H623      1.0  0.22085  0.93897  0.55096  1.0000
  H   H624      1.0  0.00721  0.63082  0.97621  1.0000
  C   C358      1.0  0.01210  0.55399  0.58363  1.0000
  C   C359      1.0  0.01330  0.74668  0.93873  1.0000
  S   S80       1.0  0.07506  0.48436  0.66522  1.0000
  C   C360      1.0  0.00684  0.59894  0.61706  1.0000
  S   S81       1.0  0.15588  0.49082  0.69956  1.0000
  H   H625      1.0  0.18865  0.97933  0.59511  1.0000
  H   H626      1.0  0.98805  0.85520  0.50559  1.0000
  C   C361      1.0  0.12141  0.51845  0.94021  1.0000
  C   C362      1.0  0.99080  0.90761  0.78452  1.0000
  H   H627      1.0  0.19627  0.80142  0.49855  1.0000
  H   H628      1.0  0.13167  0.53899  0.89366  1.0000
  H   H629      1.0  0.18158  0.55107  0.62316  1.0000
  H   H630      1.0  0.08066  0.57310  0.96431  1.0000
  H   H631      1.0  0.21086  0.54096  0.67605  1.0000
  H   H632      1.0  0.22824  0.50244  0.69264  1.0000
  H   H633      1.0  0.01209  0.71456  0.93457  1.0000
  H   H634      1.0  0.01915  0.75947  0.92448  1.0000
  H   H635      1.0  0.06065  0.88831  0.61479  1.0000
  H   H636      1.0  0.21885  0.48438  0.71659  1.0000
  H   H637      1.0  0.20335  0.51306  0.89971  1.0000
  H   H638      1.0  0.05460  0.54445  0.58963  1.0000
  H   H639      1.0  0.03437  0.71121  0.92461  1.0000
  H   H640      1.0  0.00238  0.75604  0.98122  1.0000
  C   C363      1.0  0.15852  0.53964  0.85693  1.0000
  H   H641      1.0  0.03996  0.75635  0.93550  1.0000
  H   H642      1.0  0.00130  0.80015  0.94335  1.0000
  H   H643      1.0  0.16132  0.57043  0.85754  1.0000
  C   C364      1.0  0.19419  0.52106  0.64561  1.0000
  H   H644      1.0  0.99741  0.60222  0.61305  1.0000
  H   H645      1.0  0.02050  0.57525  0.53914  1.0000
  N   N19       1.0  0.01900  0.74846  0.96155  1.0000
  C   C365      1.0  0.19048  0.55900  0.89066  1.0000
  H   H646      1.0  0.07056  0.56423  0.74320  1.0000
  C   C366      1.0  0.06333  0.55436  0.58256  1.0000
  C   C367      1.0  0.19477  0.48607  0.66430  1.0000
  H   H647      1.0  0.02119  0.55491  0.61584  1.0000
  H   H648      1.0  0.99420  0.50641  0.69508  1.0000
  H   H649      1.0  0.18020  0.49687  0.62665  1.0000
  H   H650      1.0  0.05955  0.96011  0.60320  1.0000
  N   N20       1.0  0.07360  0.62650  0.61992  1.0000
  C   C368      1.0  0.06748  0.58669  0.62060  1.0000
  C   C369      1.0  0.06757  0.65318  0.63763  1.0000
  C   C370      1.0  0.07181  0.64697  0.59650  1.0000
  C   C371      1.0  0.08667  0.62154  0.62351  1.0000
  C   C372      1.0  0.09073  0.58503  0.63939  1.0000
  S   S82       1.0  0.04084  0.90795  0.50329  1.0000
  C   C373      1.0  0.07612  0.69088  0.59271  1.0000
  C   C374      1.0  0.06842  0.63885  0.66320  1.0000
  C   C375      1.0  0.06035  0.66510  0.67869  1.0000
  C   C376      1.0  0.10362  0.58786  0.64511  1.0000
  S   S83       1.0  0.98132  0.70719  0.84110  1.0000
  C   C377      1.0  0.07603  0.70495  0.56730  1.0000
  H   H651      1.0  0.05778  0.59218  0.61965  1.0000
  H   H652      1.0  0.06832  0.56995  0.63744  1.0000
  H   H653      1.0  0.07135  0.68372  0.63661  1.0000
  H   H654      1.0  0.05808  0.65808  0.63400  1.0000
  H   H655      1.0  0.06229  0.64823  0.59283  1.0000
  H   H656      1.0  0.07635  0.62908  0.58278  1.0000
  H   H657      1.0  0.09175  0.61810  0.60678  1.0000
  H   H658      1.0  0.08994  0.64965  0.63039  1.0000
  H   H659      1.0  0.00481  0.52516  0.54486  1.0000
  H   H660      1.0  0.08542  0.58296  0.65579  1.0000
  H   H661      1.0  0.98850  0.78687  0.91119  1.0000
  S   S84       1.0  0.98447  0.66481  0.90782  1.0000
  H   H662      1.0  0.08520  0.69327  0.59850  1.0000
  H   H663      1.0  0.07013  0.71227  0.60225  1.0000
  H   H664      1.0  0.06583  0.60716  0.66650  1.0000
  H   H665      1.0  0.07757  0.64170  0.66855  1.0000
  H   H666      1.0  0.05097  0.66116  0.67509  1.0000
  H   H667      1.0  0.06161  0.65595  0.69700  1.0000
  H   H668      1.0  0.06242  0.69759  0.67597  1.0000
  C   C378      1.0  0.21937  0.94351  0.53229  1.0000
  C   C379      1.0  0.98467  0.51886  0.72744  1.0000
  H   H669      1.0  0.10637  0.56051  0.65563  1.0000
  C   C380      1.0  0.05890  0.51530  0.75598  1.0000
  C   C381      1.0  0.06089  0.95338  0.56555  1.0000
  Fe  Fe40      1.0  0.98415  0.65308  0.81861  1.0000
  H   H670      1.0  0.07874  0.73688  0.56516  1.0000
  H   H671      1.0  0.08225  0.68593  0.55671  1.0000
  H   H672      1.0  0.06702  0.70339  0.56090  1.0000
  C   C382      1.0  0.02689  0.49843  0.58215  1.0000
  S   S85       1.0  0.04565  0.50823  0.63471  1.0000
  H   H673      1.0  0.03186  0.53569  0.54007  1.0000
  H   H674      1.0  0.08174  0.97051  0.55065  1.0000
  C   C383      1.0  0.06361  0.93925  0.59049  1.0000
  C   C384      1.0  0.22006  0.50911  0.70321  1.0000
  H   H675      1.0  0.08222  0.51144  0.74475  1.0000
  H   H676      1.0  0.09730  0.52410  0.93799  1.0000
  H   H677      1.0  0.01459  0.80912  0.97243  1.0000
  H   H678      1.0  0.22959  0.54377  0.72643  1.0000
  H   H679      1.0  0.04132  0.78886  0.97009  1.0000
  C   C385      1.0  0.03383  0.84183  0.98574  1.0000
  N   N21       1.0  0.17455  0.76502  0.58120  1.0000
  C   C386      1.0  0.16434  0.75382  0.59766  1.0000
  C   C387      1.0  0.17015  0.78815  0.56000  1.0000
  C   C388      1.0  0.18058  0.72598  0.57363  1.0000
  C   C389      1.0  0.18348  0.78884  0.59260  1.0000
  C   C390      1.0  0.17904  0.82993  0.60200  1.0000
  C   C391      1.0  0.16743  0.72744  0.61948  1.0000
  C   C392      1.0  0.19046  0.73002  0.55427  1.0000
  C   C393      1.0  0.15886  0.81581  0.56317  1.0000
  C   C394      1.0  0.15668  0.84230  0.54144  1.0000
  C   C395      1.0  0.18845  0.84865  0.61551  1.0000
  C   C396      1.0  0.15656  0.72125  0.63567  1.0000
  C   C397      1.0  0.19519  0.68836  0.54713  1.0000
  H   H680      1.0  0.15786  0.73698  0.58846  1.0000
  H   H681      1.0  0.15942  0.78113  0.60379  1.0000
  H   H682      1.0  0.17727  0.80682  0.55164  1.0000
  H   H683      1.0  0.16793  0.76681  0.54676  1.0000
  H   H684      1.0  0.17395  0.70532  0.56772  1.0000
  H   H685      1.0  0.18482  0.70958  0.58832  1.0000
  H   H686      1.0  0.18762  0.77020  0.60665  1.0000
  H   H687      1.0  0.19095  0.79615  0.58027  1.0000
  H   H688      1.0  0.17112  0.82674  0.61374  1.0000
  H   H689      1.0  0.17705  0.85162  0.58745  1.0000
  H   H690      1.0  0.17080  0.69689  0.61476  1.0000
  H   H691      1.0  0.17409  0.74171  0.62936  1.0000
  H   H692      1.0  0.19798  0.74616  0.56032  1.0000
  H   H693      1.0  0.18728  0.74657  0.53864  1.0000
  H   H694      1.0  0.15106  0.79682  0.56666  1.0000
  H   H695      1.0  0.15931  0.83606  0.57764  1.0000
  H   H696      1.0  0.15636  0.82353  0.52618  1.0000
  H   H697      1.0  0.14815  0.85957  0.54356  1.0000
  H   H698      1.0  0.16374  0.86439  0.53821  1.0000
  H   H699      1.0  0.19039  0.82922  0.63106  1.0000
  H   H700      1.0  0.19670  0.85245  0.60464  1.0000
  H   H701      1.0  0.18525  0.87892  0.62113  1.0000
  H   H702      1.0  0.14964  0.70609  0.62684  1.0000
  H   H703      1.0  0.15905  0.70171  0.65087  1.0000
  H   H704      1.0  0.15298  0.75072  0.64186  1.0000
  H   H705      1.0  0.19859  0.67043  0.56218  1.0000
  H   H706      1.0  0.20069  0.51618  0.63107  1.0000
  H   H707      1.0  0.21394  0.55509  0.72712  1.0000
  H   H708      1.0  0.00366  0.79199  0.90114  1.0000
  H   H709      1.0  0.99425  0.75204  0.94693  1.0000
  C   C398      1.0  0.02263  0.54303  0.53564  1.0000
  S   S86       1.0  0.12478  0.94996  0.51461  1.0000
  H   H710      1.0  0.05541  0.61086  0.72813  1.0000
  H   H711      1.0  0.22719  0.53508  0.56229  1.0000
  S   S87       1.0  0.15862  0.53920  0.90448  1.0000
  H   H712      1.0  0.08992  0.55609  0.63083  1.0000
  S   S88       1.0  0.21919  0.71262  0.58508  1.0000
  N   N22       1.0  0.11397  0.55226  0.92932  1.0000
  H   H713      1.0  0.06215  0.58399  0.57308  1.0000
  C   C399      1.0  0.11925  0.59234  0.93339  1.0000
  H   H714      1.0  0.18712  0.56348  0.90868  1.0000
  C   C400      1.0  0.11259  0.54742  0.90388  1.0000
  C   C401      1.0  0.06218  0.55104  0.73891  1.0000
  C   C402      1.0  0.01011  0.73443  0.98015  1.0000
  C   C403      1.0  0.09337  0.58826  0.93607  1.0000
  C   C404      1.0  0.13176  0.59937  0.92263  1.0000
  C   C405      1.0  0.13647  0.63908  0.93012  1.0000
  H   H715      1.0  0.18793  0.49378  0.67797  1.0000
  H   H716      1.0  0.05575  0.70418  0.92758  1.0000
  H   H717      1.0  0.03327  0.52269  0.57788  1.0000
  C   C406      1.0  0.15730  0.52295  0.83528  1.0000
  Fe  Fe41      1.0  0.21245  0.71072  0.62227  1.0000
  H   H718      1.0  0.11375  0.61795  0.92623  1.0000
  H   H719      1.0  0.11941  0.59655  0.95224  1.0000
  S   S89       1.0  0.19529  0.67761  0.62943  1.0000
  H   H720      1.0  0.22331  0.57378  0.70311  1.0000
  S   S90       1.0  0.98355  0.60667  0.84828  1.0000
  H   H721      1.0  0.11061  0.57748  0.89517  1.0000
  H   H722      1.0  0.17838  0.49292  0.88727  1.0000
  H   H723      1.0  0.06283  0.94758  0.51758  1.0000
  C   C407      1.0  0.08850  0.90232  0.49722  1.0000
  C   C408      1.0  0.05883  0.89732  0.59666  1.0000
  H   H724      1.0  0.09317  0.59474  0.91721  1.0000
  H   H725      1.0  0.09612  0.61571  0.94435  1.0000
  H   H726      1.0  0.13803  0.57473  0.92788  1.0000
  H   H727      1.0  0.13160  0.60179  0.90357  1.0000
  H   H728      1.0  0.01267  0.96986  0.59948  1.0000
  H   H729      1.0  0.14557  0.64275  0.92258  1.0000
  H   H730      1.0  0.15914  0.54092  0.81956  1.0000
  H   H731      1.0  0.08011  0.54895  0.69614  1.0000
  H   H732      1.0  0.19632  0.96055  0.53322  1.0000
  S   S91       1.0  0.21345  0.77799  0.62506  1.0000
  S   S92       1.0  0.12128  0.52573  0.71726  1.0000
  C   C409      1.0  0.03301  0.79761  0.97973  1.0000
  C   C410      1.0  0.08082  0.58007  0.94543  1.0000
  H   H733      1.0  0.08074  0.56354  0.59437  1.0000
  H   H734      1.0  0.04417  0.57485  0.73487  1.0000
  C   C411      1.0  0.98784  0.51489  0.80410  1.0000
  C   C412      1.0  0.19584  0.51618  0.88828  1.0000
  H   H735      1.0  0.07501  0.60731  0.94219  1.0000
  C   C413      1.0  0.02197  0.53906  0.50969  1.0000
  C   C414      1.0  0.05276  0.58528  0.74005  1.0000
  C   C415      1.0  0.99563  0.95497  0.52862  1.0000
  H   H736      1.0  0.21345  0.91918  0.52806  1.0000
  H   H737      1.0  0.10326  0.49693  0.75379  1.0000
  H   H738      1.0  0.02811  0.56026  0.50036  1.0000
  H   H739      1.0  0.04852  0.66849  0.94739  1.0000
  Fe  Fe42      1.0  0.15970  0.52300  0.94344  1.0000
  H   H740      1.0  0.98863  0.91202  0.80310  1.0000
  C   C416      1.0  0.07185  0.55661  0.60193  1.0000
  H   H741      1.0  0.04915  0.89751  0.59486  1.0000
  S   S93       1.0  0.21620  0.83612  0.56754  1.0000
  H   H742      1.0  0.13676  0.63896  0.94917  1.0000
  H   H743      1.0  0.10940  0.58949  0.62913  1.0000
  C   C417      1.0  0.01389  0.51467  0.54927  1.0000
  C   C418      1.0  0.15631  0.51681  0.87770  1.0000
  C   C419      1.0  0.01202  0.55773  0.61010  1.0000
  H   H744      1.0  0.02441  0.80768  0.94797  1.0000
  H   H745      1.0  0.00753  0.60177  0.63587  1.0000
  H   H746      1.0  0.18460  0.48805  0.91425  1.0000
  H   H747      1.0  0.07327  0.93670  0.59227  1.0000
  H   H748      1.0  0.03463  0.72066  0.97671  1.0000
  H   H749      1.0  0.98399  0.97023  0.50165  1.0000
  C   C420      1.0  0.08764  0.49560  0.68064  1.0000
  H   H750      1.0  0.11331  0.51840  0.85953  1.0000
  H   H751      1.0  0.01175  0.62388  0.60793  1.0000
  H   H752      1.0  0.01875  0.57562  0.57646  1.0000
  C   C421      1.0  0.98455  0.50492  0.75323  1.0000
  C   C422      1.0  0.98794  0.49803  0.82903  1.0000
  C   C423      1.0  0.07917  0.48912  0.75843  1.0000
  H   H753      1.0  0.00364  0.96354  0.51801  1.0000
  C   C424      1.0  0.02953  0.71920  0.96111  1.0000
  S   S94       1.0  0.99607  0.65422  0.78556  1.0000
  C   C425      1.0  0.10844  0.51251  0.70325  1.0000
  H   H754      1.0  0.05859  0.52692  0.77367  1.0000
  H   H755      1.0  0.22658  0.54045  0.60450  1.0000
  H   H756      1.0  0.13025  0.51551  0.93134  1.0000
  H   H757      1.0  0.98158  0.63646  0.74066  1.0000
  C   C426      1.0  0.12309  0.52670  0.89014  1.0000
  H   H758      1.0  0.17506  0.52920  0.64955  1.0000
  H   H759      1.0  0.07270  0.52568  0.61028  1.0000
  C   C427      1.0  0.11097  0.93090  0.50729  1.0000
  H   H760      1.0  0.00658  0.70510  0.97569  1.0000
  C   C428      1.0  0.99751  0.77281  0.91190  1.0000
  H   H761      1.0  0.06313  0.77745  0.98650  1.0000
  Fe  Fe43      1.0  0.05519  0.50065  0.66773  1.0000
  C   C429      1.0  0.15379  0.48303  0.83399  1.0000
  H   H762      1.0  0.09962  0.97539  0.57291  1.0000
  H   H763      1.0  0.06302  0.54088  0.72103  1.0000
  H   H764      1.0  0.06317  0.87444  0.58538  1.0000
  H   H765      1.0  0.18398  0.95591  0.56997  1.0000
  Fe  Fe44      1.0  0.16943  0.55878  0.98718  1.0000
  N   N23       1.0  0.01472  0.51198  0.57511  1.0000
  S   S95       1.0  0.04783  0.81419  0.49245  1.0000
  H   H766      1.0  0.19590  0.55039  0.65300  1.0000
  C   C430      1.0  0.20927  0.51416  0.68798  1.0000
  Fe  Fe45      1.0  0.14228  0.95919  0.49323  1.0000
  H   H767      1.0  0.00344  0.56596  0.57756  1.0000
  C   C431      1.0  0.18200  0.52464  0.63567  1.0000
  H   H768      1.0  0.20585  0.95481  0.57257  1.0000
  Fe  Fe46      1.0  0.03154  0.85479  0.49072  1.0000
  H   H769      1.0  0.10441  0.92548  0.54266  1.0000
  H   H770      1.0  0.01521  0.48437  0.54198  1.0000
  H   H771      1.0  0.98850  0.54820  0.80440  1.0000
  H   H772      1.0  0.12365  0.49374  0.89473  1.0000
  H   H773      1.0  0.04966  0.50845  0.75258  1.0000
  H   H774      1.0  0.12328  0.52569  0.95809  1.0000
  H   H775      1.0  0.99681  0.96141  0.54689  1.0000
  H   H776      1.0  0.07724  0.55427  0.93685  1.0000
  H   H777      1.0  0.00679  0.53413  0.61962  1.0000
  H   H778      1.0  0.06556  0.93112  0.55425  1.0000
  H   H779      1.0  0.99620  0.50631  0.83671  1.0000
  C   C432      1.0  0.10193  0.55189  0.94173  1.0000
  H   H780      1.0  0.10280  0.55046  0.96075  1.0000
  H   H781      1.0  0.99708  0.93074  0.77775  1.0000
  H   H782      1.0  0.21812  0.50079  0.64653  1.0000
  H   H783      1.0  0.22960  0.86914  0.51960  1.0000
  C   C433      1.0  0.99403  0.49497  0.71335  1.0000
  H   H784      1.0  0.02695  0.49384  0.60120  1.0000
  H   H785      1.0  0.98795  0.96492  0.73439  1.0000
  H   H786      1.0  0.99710  0.50165  0.59028  1.0000
  H   H787      1.0  0.98039  0.51104  0.83946  1.0000
  C   C434      1.0  0.22181  0.54788  0.71568  1.0000
  H   H788      1.0  0.00289  0.49862  0.71992  1.0000
  C   C435      1.0  0.00550  0.48425  0.58627  1.0000
  H   H789      1.0  0.98203  0.90528  0.75270  1.0000
  C   C436      1.0  0.98475  0.97801  0.51982  1.0000
  H   H790      1.0  0.98331  0.97558  0.69270  1.0000
  H   H791      1.0  0.98082  0.54618  0.91635  1.0000
  C   C437      1.0  0.18667  0.48414  0.89564  1.0000
  C   C438      1.0  0.06510  0.97977  0.51470  1.0000
  H   H792      1.0  0.21485  0.48157  0.96536  1.0000
  Fe  Fe47      1.0  0.14608  0.51513  0.99023  1.0000
  Fe  Fe48      1.0  0.24144  0.22573  0.08619  1.0000
  C   C439      1.0  0.24367  0.04986  0.06933  1.0000
  S   S96       1.0  0.25799  0.19623  0.06870  1.0000
  H   H793      1.0  0.44160  0.23892  0.07409  1.0000
  S   S97       1.0  0.24147  0.30793  0.16077  1.0000
  S   S98       1.0  0.23932  0.29330  0.09211  1.0000
  S   S99       1.0  0.43816  0.42268  0.17235  1.0000
  N   N24       1.0  0.38112  0.00337  0.06632  1.0000
  H   H794      1.0  0.33000  0.46461  0.34900  1.0000
  Fe  Fe49      1.0  0.45816  0.19613  0.12543  1.0000
  S   S100      1.0  0.45998  0.14009  0.14915  1.0000
  S   S101      1.0  0.44415  0.24856  0.12724  1.0000
  H   H795      1.0  0.47359  0.06891  0.25048  1.0000
  H   H796      1.0  0.34891  0.40752  0.17803  1.0000
  Fe  Fe50      1.0  0.46190  0.10455  0.11671  1.0000
  S   S102      1.0  0.45455  0.04141  0.11426  1.0000
  H   H797      1.0  0.33457  0.40657  0.28349  1.0000
  S   S103      1.0  0.45862  0.15944  0.09348  1.0000
  H   H798      1.0  0.29919  0.44098  0.38306  1.0000
  H   H799      1.0  0.46988  0.37439  0.03283  1.0000
  H   H800      1.0  0.30034  0.41518  0.34352  1.0000
  H   H801      1.0  0.45879  0.38551  0.06456  1.0000
  C   C440      1.0  0.40670  0.01137  0.10838  1.0000
  H   H802      1.0  0.28517  0.47781  0.15243  1.0000
  Fe  Fe51      1.0  0.28987  0.45080  0.21162  1.0000
  H   H803      1.0  0.36443  0.12023  0.05791  1.0000
  S   S104      1.0  0.28694  0.40465  0.18432  1.0000
  H   H804      1.0  0.33419  0.46169  0.31164  1.0000
  C   C441      1.0  0.32812  0.42488  0.27329  1.0000
  H   H805      1.0  0.33800  0.45847  0.21849  1.0000
  S   S105      1.0  0.30545  0.44813  0.23443  1.0000
  C   C442      1.0  0.23113  0.06897  0.06633  1.0000
  H   H806      1.0  0.39206  0.04498  0.00142  1.0000
  C   C443      1.0  0.23118  0.43977  0.15518  1.0000
  S   S106      1.0  0.38061  0.47430  0.20230  1.0000
  C   C444      1.0  0.43151  0.47024  0.26270  1.0000
  H   H807      1.0  0.23738  0.07771  0.16434  1.0000
  S   S107      1.0  0.27735  0.47333  0.23975  1.0000
  H   H808      1.0  0.45940  0.43913  0.10838  1.0000
  H   H809      1.0  0.37229  0.04990  0.08639  1.0000
  C   C445      1.0  0.24437  0.45033  0.15265  1.0000
  C   C446      1.0  0.38889  0.99539  0.08643  1.0000
  Fe  Fe52      1.0  0.23615  0.27399  0.12943  1.0000
  H   H810      1.0  0.44270  0.47325  0.21885  1.0000
  C   C447      1.0  0.44475  0.02323  0.09450  1.0000
  H   H811      1.0  0.23612  0.13006  0.07366  1.0000
  C   C448      1.0  0.29719  0.44597  0.34613  1.0000
  H   H812      1.0  0.42049  0.44350  0.31756  1.0000
  H   H813      1.0  0.26177  0.40419  0.49024  1.0000
  C   C449      1.0  0.45893  0.26167  0.06375  1.0000
  H   H814      1.0  0.24980  0.07202  0.06079  1.0000
  C   C450      1.0  0.43933  0.37363  0.16041  1.0000
  C   C451      1.0  0.44936  0.34843  0.16456  1.0000
  C   C452      1.0  0.45091  0.30993  0.15498  1.0000
  C   C453      1.0  0.44248  0.29608  0.14083  1.0000
  C   C454      1.0  0.43243  0.32121  0.13675  1.0000
  C   C455      1.0  0.43084  0.35957  0.14647  1.0000
  H   H815      1.0  0.45601  0.35880  0.17529  1.0000
  H   H816      1.0  0.45863  0.29101  0.15851  1.0000
  H   H817      1.0  0.42582  0.31095  0.12591  1.0000
  H   H818      1.0  0.42309  0.37841  0.14301  1.0000
  H   H819      1.0  0.44995  0.30313  0.08647  1.0000
  C   C456      1.0  0.47246  0.34167  0.03345  1.0000
  H   H820      1.0  0.33186  0.42658  0.14723  1.0000
  H   H821      1.0  0.46313  0.24322  0.07767  1.0000
  C   C457      1.0  0.26058  0.15909  0.04760  1.0000
  C   C458      1.0  0.27188  0.14029  0.04506  1.0000
  C   C459      1.0  0.27450  0.11140  0.02826  1.0000
  C   C460      1.0  0.26586  0.10124  0.01353  1.0000
  C   C461      1.0  0.25457  0.12019  0.01600  1.0000
  C   C462      1.0  0.25192  0.14867  0.03299  1.0000
  H   H822      1.0  0.27869  0.14830  0.05613  1.0000
  H   H823      1.0  0.28322  0.09729  0.02657  1.0000
  H   H824      1.0  0.41649  0.42714  0.29076  1.0000
  H   H825      1.0  0.24324  0.16321  0.03445  1.0000
  C   C463      1.0  0.27406  0.37895  0.17786  1.0000
  C   C464      1.0  0.27380  0.36022  0.15667  1.0000
  C   C465      1.0  0.26392  0.33870  0.15102  1.0000
  C   C466      1.0  0.25418  0.33514  0.16665  1.0000
  C   C467      1.0  0.25444  0.35403  0.18780  1.0000
  C   C468      1.0  0.26427  0.37588  0.19335  1.0000
  H   H826      1.0  0.28131  0.36223  0.14453  1.0000
  H   H827      1.0  0.26389  0.32440  0.13470  1.0000
  H   H828      1.0  0.24700  0.35146  0.20008  1.0000
  H   H829      1.0  0.26435  0.38964  0.20982  1.0000
  N   N25       1.0  0.32514  0.38026  0.17148  1.0000
  C   C469      1.0  0.33716  0.35924  0.16981  1.0000
  C   C470      1.0  0.31696  0.36235  0.15525  1.0000
  C   C471      1.0  0.32666  0.42428  0.16400  1.0000
  C   C472      1.0  0.31983  0.37872  0.19580  1.0000
  C   C473      1.0  0.31813  0.33620  0.20749  1.0000
  C   C474      1.0  0.34670  0.37640  0.18438  1.0000
  H   H830      1.0  0.31868  0.46411  0.30926  1.0000
  C   C475      1.0  0.31856  0.31637  0.15108  1.0000
  C   C476      1.0  0.30811  0.30118  0.13888  1.0000
  C   C477      1.0  0.31372  0.33916  0.23264  1.0000
  C   C478      1.0  0.35814  0.35064  0.18281  1.0000
  H   H831      1.0  0.45124  0.32227  0.05767  1.0000
  H   H832      1.0  0.34063  0.36044  0.15152  1.0000
  H   H833      1.0  0.33669  0.32655  0.17481  1.0000
  H   H834      1.0  0.30760  0.36862  0.16102  1.0000
  H   H835      1.0  0.31798  0.37736  0.13771  1.0000
  C   C479      1.0  0.42904  0.99149  0.06405  1.0000
  H   H836      1.0  0.39766  0.99328  0.99963  1.0000
  H   H837      1.0  0.32498  0.39675  0.20710  1.0000
  H   H838      1.0  0.31092  0.39354  0.19628  1.0000
  H   H839      1.0  0.32646  0.31770  0.20730  1.0000
  H   H840      1.0  0.31130  0.32041  0.19882  1.0000
  H   H841      1.0  0.43481  0.47173  0.33553  1.0000
  H   H842      1.0  0.34374  0.37699  0.20281  1.0000
  H   H843      1.0  0.23546  0.01934  0.02995  1.0000
  H   H844      1.0  0.47151  0.06325  0.02112  1.0000
  H   H845      1.0  0.32664  0.31081  0.13993  1.0000
  H   H846      1.0  0.31945  0.29766  0.16719  1.0000
  H   H847      1.0  0.29986  0.30457  0.14985  1.0000
  H   H848      1.0  0.30701  0.31834  0.12220  1.0000
  H   H849      1.0  0.30961  0.26859  0.13545  1.0000
  H   H850      1.0  0.30502  0.35564  0.23378  1.0000
  H   H851      1.0  0.31263  0.30827  0.24066  1.0000
  H   H852      1.0  0.32010  0.35497  0.24252  1.0000
  C   C480      1.0  0.39857  0.02615  0.08937  1.0000
  H   H853      1.0  0.35669  0.31931  0.18987  1.0000
  H   H854      1.0  0.36164  0.34962  0.16465  1.0000
  H   H855      1.0  0.23649  0.05909  0.13572  1.0000
  H   H856      1.0  0.38037  0.08016  0.03723  1.0000
  H   H857      1.0  0.24783  0.11282  0.00462  1.0000
  H   H858      1.0  0.28760  0.01710  0.05308  1.0000
  H   H859      1.0  0.44192  0.08000  0.07563  1.0000
  H   H860      1.0  0.36569  0.04240  0.06017  1.0000
  C   C481      1.0  0.44183  0.98214  0.09633  1.0000
  H   H861      1.0  0.44125  0.40834  0.30855  1.0000
  C   C482      1.0  0.43979  0.04836  0.07726  1.0000
  H   H862      1.0  0.47063  0.39120  0.08246  1.0000
  H   H863      1.0  0.45676  0.36573  0.11691  1.0000
  C   C483      1.0  0.38036  0.08134  0.05624  1.0000
  N   N26       1.0  0.46682  0.32881  0.07694  1.0000
  H   H864      1.0  0.32996  0.41920  0.25479  1.0000
  H   H865      1.0  0.46816  0.06528  0.06361  1.0000
  C   C484      1.0  0.46291  0.37231  0.08026  1.0000
  C   C485      1.0  0.45628  0.30558  0.07125  1.0000
  H   H866      1.0  0.40419  0.03104  0.07345  1.0000
  H   H867      1.0  0.39448  0.05556  0.09451  1.0000
  S   S108      1.0  0.47760  0.20529  0.12255  1.0000
  H   H868      1.0  0.36487  0.36416  0.19298  1.0000
  H   H869      1.0  0.31363  0.38416  0.48540  1.0000
  C   C486      1.0  0.31516  0.45059  0.16138  1.0000
  C   C487      1.0  0.44759  0.24149  0.05839  1.0000
  Fe  Fe53      1.0  0.47826  0.16580  0.09216  1.0000
  H   H870      1.0  0.26836  0.02147  0.03620  1.0000
  C   C488      1.0  0.47632  0.32758  0.05783  1.0000
  H   H871      1.0  0.38962  0.08356  0.06081  1.0000
  H   H872      1.0  0.24981  0.45698  0.23766  1.0000
  H   H873      1.0  0.24836  0.44271  0.19631  1.0000
  S   S109      1.0  0.30387  0.46494  0.46187  1.0000
  H   H874      1.0  0.31908  0.41500  0.27837  1.0000
  H   H875      1.0  0.44972  0.21055  0.05243  1.0000
  H   H876      1.0  0.43400  0.33969  0.31665  1.0000
  C   C489      1.0  0.43197  0.03256  0.06218  1.0000
  C   C490      1.0  0.38176  0.00072  0.02191  1.0000
  H   H877      1.0  0.46473  0.30247  0.11178  1.0000
  H   H878      1.0  0.23036  0.10844  0.14236  1.0000
  H   H879      1.0  0.44521  0.36596  0.09704  1.0000
  S   S110      1.0  0.26847  0.06466  0.99212  1.0000
  H   H880      1.0  0.44694  0.46865  0.29759  1.0000
  C   C491      1.0  0.38953  0.01298  0.00069  1.0000
  C   C492      1.0  0.37372  0.12045  0.06289  1.0000
  H   H881      1.0  0.23188  0.00511  0.10305  1.0000
  C   C493      1.0  0.35673  0.46633  0.21158  1.0000
  H   H882      1.0  0.48004  0.36642  0.46321  1.0000
  S   S111      1.0  0.23915  0.20710  0.12394  1.0000
  S   S112      1.0  0.29511  0.45057  0.29887  1.0000
  C   C494      1.0  0.45371  0.37936  0.10045  1.0000
  Fe  Fe54      1.0  0.42407  0.47472  0.17574  1.0000
  H   H883      1.0  0.44300  0.25910  0.04458  1.0000
  Fe  Fe55      1.0  0.29317  0.47634  0.26164  1.0000
  H   H884      1.0  0.26574  0.46712  0.17635  1.0000
  H   H885      1.0  0.33176  0.43978  0.17658  1.0000
  C   C495      1.0  0.44424  0.45570  0.25527  1.0000
  H   H886      1.0  0.24957  0.42221  0.15744  1.0000
  H   H887      1.0  0.37798  0.14680  0.05380  1.0000
  Fe  Fe56      1.0  0.28844  0.46690  0.48818  1.0000
  H   H888      1.0  0.41932  0.35654  0.30957  1.0000
  H   H889      1.0  0.47685  0.39951  0.48630  1.0000
  H   H890      1.0  0.43934  0.42111  0.22644  1.0000
  H   H891      1.0  0.44483  0.47491  0.47296  1.0000
  H   H892      1.0  0.37390  0.12418  0.08173  1.0000
  C   C496      1.0  0.44518  0.44609  0.22981  1.0000
  H   H893      1.0  0.46488  0.26081  0.04807  1.0000
  H   H894      1.0  0.44724  0.42841  0.26534  1.0000
  H   H895      1.0  0.46493  0.32457  0.02823  1.0000
  H   H896      1.0  0.43468  0.38897  0.28381  1.0000
  H   H897      1.0  0.25903  0.99256  0.08461  1.0000
  H   H898      1.0  0.30922  0.43793  0.14927  1.0000
  H   H899      1.0  0.39515  0.02442  0.04234  1.0000
  H   H900      1.0  0.42594  0.37557  0.33436  1.0000
  H   H901      1.0  0.47934  0.30041  0.14306  1.0000
  H   H902      1.0  0.47610  0.27949  0.09468  1.0000
  H   H903      1.0  0.42815  0.05237  0.04902  1.0000
  C   C497      1.0  0.43287  0.40071  0.30122  1.0000
  C   C498      1.0  0.26851  0.01866  0.05517  1.0000
  H   H904      1.0  0.44449  0.42858  0.11795  1.0000
  C   C499      1.0  0.42767  0.36612  0.31640  1.0000
  H   H905      1.0  0.36026  0.99462  0.09422  1.0000
  C   C500      1.0  0.37441  0.04358  0.06798  1.0000
  H   H906      1.0  0.42528  0.44910  0.25589  1.0000
  C   C501      1.0  0.45128  0.42453  0.10373  1.0000
  H   H907      1.0  0.23508  0.47262  0.19470  1.0000
  H   H908      1.0  0.45438  0.43651  0.22475  1.0000
  H   H909      1.0  0.24662  0.45590  0.13406  1.0000
  H   H910      1.0  0.44794  0.43977  0.08781  1.0000
  C   C502      1.0  0.47185  0.30943  0.09848  1.0000
  C   C503      1.0  0.25816  0.99352  0.06568  1.0000
  C   C504      1.0  0.24480  0.47371  0.19162  1.0000
  C   C505      1.0  0.29655  0.46053  0.36866  1.0000
  H   H911      1.0  0.23408  0.38330  0.13742  1.0000
  C   C506      1.0  0.24479  0.01222  0.03397  1.0000
  H   H912      1.0  0.31031  0.45292  0.17827  1.0000
  C   C507      1.0  0.38861  0.00033  0.04427  1.0000
  H   H913      1.0  0.35904  0.43456  0.21460  1.0000
  H   H914      1.0  0.40170  0.00847  0.12525  1.0000
  H   H915      1.0  0.26816  0.04939  0.06203  1.0000
  H   H916      1.0  0.24972  0.03827  0.02622  1.0000
  H   H917      1.0  0.24563  0.04924  0.08787  1.0000
  H   H918      1.0  0.37388  0.02154  0.02265  1.0000
  H   H919      1.0  0.40306  0.47542  0.28443  1.0000
  C   C508      1.0  0.42410  0.43757  0.29985  1.0000
  H   H920      1.0  0.41376  0.03333  0.10972  1.0000
  H   H921      1.0  0.47721  0.36237  0.11658  1.0000
  C   C509      1.0  0.23179  0.07684  0.14931  1.0000
  H   H922      1.0  0.23078  0.44032  0.07874  1.0000
  H   H923      1.0  0.32549  0.41892  0.48435  1.0000
  C   C510      1.0  0.29374  0.47068  0.32703  1.0000
  C   C511      1.0  0.28037  0.99861  0.06105  1.0000
  C   C512      1.0  0.47918  0.06541  0.03197  1.0000
  H   H924      1.0  0.28126  0.99643  0.07998  1.0000
  H   H925      1.0  0.23612  0.98236  0.99373  1.0000
  C   C513      1.0  0.47588  0.04789  0.05614  1.0000
  H   H926      1.0  0.47347  0.01574  0.05558  1.0000
  H   H927      1.0  0.26752  0.44772  0.13729  1.0000
  N   N27       1.0  0.24596  0.00859  0.05970  1.0000
  H   H928      1.0  0.47185  0.99972  0.00591  1.0000
  Fe  Fe57      1.0  0.47964  0.14714  0.14424  1.0000
  H   H929      1.0  0.38358  0.99508  0.10299  1.0000
  H   H930      1.0  0.23588  0.41080  0.05476  1.0000
  H   H931      1.0  0.47946  0.12763  0.27089  1.0000
  N   N28       1.0  0.42868  0.47589  0.28811  1.0000
  C   C514      1.0  0.32913  0.47002  0.27708  1.0000
  H   H932      1.0  0.45051  0.47989  0.25764  1.0000
  C   C515      1.0  0.34479  0.47980  0.21386  1.0000
  H   H933      1.0  0.47965  0.34602  0.99814  1.0000
  C   C516      1.0  0.47804  0.99345  0.99102  1.0000
  C   C517      1.0  0.32697  0.47875  0.30286  1.0000
  H   H934      1.0  0.33820  0.47803  0.27111  1.0000
  H   H935      1.0  0.41097  0.98158  0.10436  1.0000
  C   C518      1.0  0.26735  0.48074  0.14020  1.0000
  H   H936      1.0  0.28019  0.02247  0.77317  1.0000
  H   H937      1.0  0.45795  0.21413  0.59706  1.0000
  S   S113      1.0  0.25070  0.15993  0.62243  1.0000
  H   H938      1.0  0.46947  0.32967  0.72531  1.0000
  C   C519      1.0  0.23128  0.04764  0.77838  1.0000
  H   H939      1.0  0.33486  0.99794  0.87550  1.0000
  S   S114      1.0  0.23836  0.30624  0.53818  1.0000
  C   C520      1.0  0.29531  0.00750  0.84762  1.0000
  H   H940      1.0  0.39995  0.05005  0.67627  1.0000
  H   H941      1.0  0.45249  0.43758  0.50350  1.0000
  S   S115      1.0  0.29837  0.02450  0.95631  1.0000
  S   S116      1.0  0.30158  0.02054  0.73852  1.0000
  H   H942      1.0  0.32742  0.36852  0.49759  1.0000
  Fe  Fe58      1.0  0.28591  0.01721  0.71607  1.0000
  S   S117      1.0  0.27083  0.06522  0.71209  1.0000
  Fe  Fe59      1.0  0.46667  0.36089  0.62319  1.0000
  S   S118      1.0  0.46273  0.30442  0.60520  1.0000
  S   S119      1.0  0.45849  0.42518  0.61897  1.0000
  H   H943      1.0  0.25281  0.05547  0.62190  1.0000
  Fe  Fe60      1.0  0.46618  0.26973  0.63885  1.0000
  S   S120      1.0  0.45754  0.21407  0.65799  1.0000
  C   C521      1.0  0.41645  0.45501  0.51653  1.0000
  S   S121      1.0  0.46863  0.32710  0.65769  1.0000
  H   H944      1.0  0.33244  0.39701  0.53589  1.0000
  H   H945      1.0  0.46616  0.29299  0.81094  1.0000
  H   H946      1.0  0.33185  0.44448  0.52025  1.0000
  H   H947      1.0  0.41189  0.43855  0.50363  1.0000
  S   S122      1.0  0.42664  0.05607  0.64963  1.0000
  C   C522      1.0  0.44553  0.44377  0.60562  1.0000
  C   C523      1.0  0.43762  0.41807  0.59668  1.0000
  C   C524      1.0  0.42735  0.43437  0.58658  1.0000
  H   H948      1.0  0.46956  0.35211  0.78374  1.0000
  H   H949      1.0  0.25387  0.00091  0.72422  1.0000
  H   H950      1.0  0.30997  0.43560  0.51459  1.0000
  H   H951      1.0  0.43932  0.38565  0.59781  1.0000
  H   H952      1.0  0.42123  0.41423  0.57991  1.0000
  Fe  Fe61      1.0  0.23564  0.20309  0.60978  1.0000
  C   C525      1.0  0.31638  0.41021  0.51806  1.0000
  C   C526      1.0  0.44877  0.17056  0.65533  1.0000
  C   C527      1.0  0.44197  0.16572  0.63633  1.0000
  C   C528      1.0  0.43531  0.13065  0.63499  1.0000
  C   C529      1.0  0.43532  0.09963  0.65251  1.0000
  C   C530      1.0  0.44209  0.10447  0.67154  1.0000
  C   C531      1.0  0.44869  0.13968  0.67294  1.0000
  H   H953      1.0  0.44168  0.18931  0.62286  1.0000
  H   H954      1.0  0.43007  0.12760  0.62024  1.0000
  H   H955      1.0  0.44226  0.08110  0.68518  1.0000
  H   H956      1.0  0.45387  0.14289  0.68777  1.0000
  H   H957      1.0  0.47664  0.28518  0.71347  1.0000
  S   S123      1.0  0.23262  0.19605  0.57203  1.0000
  H   H958      1.0  0.44671  0.25575  0.56921  1.0000
  H   H959      1.0  0.38489  0.11742  0.65154  1.0000
  H   H960      1.0  0.38509  0.15415  0.68108  1.0000
  C   C532      1.0  0.38881  0.08641  0.65380  1.0000
  H   H961      1.0  0.45841  0.37079  0.52278  1.0000
  C   C533      1.0  0.27050  0.38698  0.52130  1.0000
  C   C534      1.0  0.26966  0.36338  0.54212  1.0000
  C   C535      1.0  0.25985  0.33910  0.54779  1.0000
  C   C536      1.0  0.25077  0.33764  0.53255  1.0000
  C   C537      1.0  0.25154  0.36175  0.51189  1.0000
  C   C538      1.0  0.26128  0.38642  0.50635  1.0000
  H   H962      1.0  0.27672  0.36342  0.55384  1.0000
  H   H963      1.0  0.25944  0.32078  0.56370  1.0000
  H   H964      1.0  0.38463  0.00984  0.98491  1.0000
  S   S124      1.0  0.29663  0.98730  0.68781  1.0000
  C   C539      1.0  0.25600  0.13387  0.64774  1.0000
  C   C540      1.0  0.26660  0.11043  0.64590  1.0000
  C   C541      1.0  0.27121  0.08912  0.66527  1.0000
  C   C542      1.0  0.26530  0.09091  0.68690  1.0000
  C   C543      1.0  0.25464  0.11403  0.68874  1.0000
  C   C544      1.0  0.25000  0.13528  0.66934  1.0000
  H   H965      1.0  0.27136  0.10912  0.62935  1.0000
  H   H966      1.0  0.27946  0.07185  0.66352  1.0000
  H   H967      1.0  0.24997  0.11583  0.70536  1.0000
  H   H968      1.0  0.24185  0.15306  0.67114  1.0000
  C   C545      1.0  0.45735  0.20270  0.57956  1.0000
  N   N29       1.0  0.32301  0.44498  0.55417  1.0000
  H   H969      1.0  0.39876  0.22053  0.70606  1.0000
  H   H970      1.0  0.38383  0.22476  0.69655  1.0000
  C   C546      1.0  0.32107  0.39450  0.49496  1.0000
  C   C547      1.0  0.46350  0.11453  0.58989  1.0000
  H   H971      1.0  0.26722  0.98127  0.87702  1.0000
  H   H972      1.0  0.44715  0.06092  0.60944  1.0000
  C   C548      1.0  0.26111  0.99172  0.83185  1.0000
  H   H973      1.0  0.28412  0.09061  0.75619  1.0000
  C   C549      1.0  0.30509  0.39547  0.60697  1.0000
  C   C550      1.0  0.28041  0.08709  0.77419  1.0000
  C   C551      1.0  0.46896  0.17980  0.57195  1.0000
  H   H974      1.0  0.24715  0.01695  0.76653  1.0000
  C   C552      1.0  0.47488  0.34847  0.79916  1.0000
  C   C553      1.0  0.45390  0.42685  0.53998  1.0000
  H   H975      1.0  0.47597  0.37846  0.80636  1.0000
  S   S125      1.0  0.28336  0.41581  0.51485  1.0000
  H   H976      1.0  0.24997  0.00651  0.98686  1.0000
  H   H977      1.0  0.45922  0.33891  0.82140  1.0000
  C   C554      1.0  0.31823  0.05705  0.90096  1.0000
  H   H978      1.0  0.23378  0.08986  0.63552  1.0000
  C   C555      1.0  0.23029  0.45529  0.55060  1.0000
  H   H979      1.0  0.35188  0.00945  0.66683  1.0000
  H   H980      1.0  0.46035  0.36825  0.55335  1.0000
  S   S126      1.0  0.23595  0.27178  0.60591  1.0000
  S   S127      1.0  0.33005  0.99982  0.69338  1.0000
  Fe  Fe62      1.0  0.28250  0.01650  0.98076  1.0000
  C   C556      1.0  0.38944  0.21355  0.71076  1.0000
  H   H981      1.0  0.30726  0.41038  0.56050  1.0000
  H   H982      1.0  0.45696  0.44128  0.55529  1.0000
  C   C557      1.0  0.47031  0.02379  0.79169  1.0000
  H   H983      1.0  0.28459  0.44969  0.56035  1.0000
  H   H984      1.0  0.44968  0.18307  0.57952  1.0000
  S   S128      1.0  0.29122  0.99935  0.89491  1.0000
  H   H985      1.0  0.26797  0.01699  0.64400  1.0000
  H   H986      1.0  0.41805  0.08059  0.69567  1.0000
  H   H987      1.0  0.33534  0.03246  0.90923  1.0000
  H   H988      1.0  0.40014  0.15625  0.68617  1.0000
  H   H989      1.0  0.46854  0.00169  0.82684  1.0000
  H   H990      1.0  0.24612  0.04126  0.66071  1.0000
  H   H991      1.0  0.46432  0.98738  0.89488  1.0000
  C   C558      1.0  0.45582  0.04643  0.60439  1.0000
  H   H992      1.0  0.41448  0.12969  0.70678  1.0000
  H   H993      1.0  0.31343  0.98334  0.90875  1.0000
  H   H994      1.0  0.24894  0.06779  0.77562  1.0000
  H   H995      1.0  0.31818  0.04750  0.88295  1.0000
  C   C559      1.0  0.40089  0.08418  0.71483  1.0000
  C   C560      1.0  0.33414  0.45226  0.56616  1.0000
  H   H996      1.0  0.47486  0.13804  0.65867  1.0000
  H   H997      1.0  0.38056  0.04989  0.73610  1.0000
  H   H998      1.0  0.46221  0.25985  0.56170  1.0000
  C   C561      1.0  0.45478  0.23884  0.56293  1.0000
  H   H999      1.0  0.26599  0.46817  0.53834  1.0000
  H   H1000     1.0  0.47610  0.05508  0.97843  1.0000
  H   H1001     1.0  0.34847  0.45437  0.53933  1.0000
  H   H1002     1.0  0.46955  0.05634  0.79562  1.0000
  H   H1003     1.0  0.33954  0.98438  0.83308  1.0000
  C   C562      1.0  0.46784  0.32322  0.81736  1.0000
  H   H1004     1.0  0.47548  0.01741  0.86172  1.0000
  H   H1005     1.0  0.47570  0.20341  0.57003  1.0000
  H   H1006     1.0  0.45335  0.22838  0.54549  1.0000
  C   C563      1.0  0.31150  0.42941  0.59331  1.0000
  H   H1007     1.0  0.47621  0.01999  0.77605  1.0000
  C   C564      1.0  0.38818  0.16800  0.71554  1.0000
  H   H1008     1.0  0.46398  0.99583  0.96680  1.0000
  C   C565      1.0  0.24756  0.02242  0.80422  1.0000
  C   C566      1.0  0.38046  0.08163  0.70218  1.0000
  H   H1009     1.0  0.26903  0.04155  0.84888  1.0000
  H   H1010     1.0  0.24461  0.36094  0.49992  1.0000
  C   C567      1.0  0.23415  0.06739  0.62189  1.0000
  C   C568      1.0  0.32658  0.42411  0.53218  1.0000
  H   H1011     1.0  0.30905  0.05763  0.90850  1.0000
  C   C569      1.0  0.37620  0.07729  0.72797  1.0000
  C   C570      1.0  0.36288  0.07235  0.73068  1.0000
  H   H1012     1.0  0.41705  0.43519  0.53243  1.0000
  H   H1013     1.0  0.24797  0.43464  0.53963  1.0000
  H   H1014     1.0  0.26097  0.00437  0.68245  1.0000
  H   H1015     1.0  0.43046  0.09329  0.72728  1.0000
  H   H1016     1.0  0.33831  0.42285  0.57219  1.0000
  H   H1017     1.0  0.37365  0.09942  0.69252  1.0000
  H   H1018     1.0  0.38028  0.05022  0.69613  1.0000
  C   C571      1.0  0.26441  0.98761  0.63958  1.0000
  H   H1019     1.0  0.45737  0.01992  0.61647  1.0000
  H   H1020     1.0  0.32033  0.38605  0.57090  1.0000
  H   H1021     1.0  0.31167  0.38498  0.52727  1.0000
  H   H1022     1.0  0.46462  0.46077  0.51432  1.0000
  H   H1023     1.0  0.35719  0.46813  0.57665  1.0000
  H   H1024     1.0  0.29834  0.01567  0.81057  1.0000
  Fe  Fe63      1.0  0.42198  0.99484  0.66848  1.0000
  H   H1025     1.0  0.39928  0.04515  0.63203  1.0000
  C   C572      1.0  0.42114  0.08546  0.73132  1.0000
  H   H1026     1.0  0.39378  0.15893  0.73006  1.0000
  H   H1027     1.0  0.37830  0.10341  0.73792  1.0000
  H   H1028     1.0  0.36023  0.04643  0.72101  1.0000
  H   H1029     1.0  0.36021  0.06653  0.74913  1.0000
  H   H1030     1.0  0.35811  0.10025  0.72427  1.0000
  H   H1031     1.0  0.40237  0.09795  0.62659  1.0000
  H   H1032     1.0  0.47819  0.19275  0.60908  1.0000
  C   C573      1.0  0.34488  0.98485  0.69948  1.0000
  H   H1033     1.0  0.41775  0.10252  0.74640  1.0000
  H   H1034     1.0  0.46151  0.10475  0.57250  1.0000
  H   H1035     1.0  0.23333  0.08733  0.53875  1.0000
  C   C574      1.0  0.32609  0.02829  0.91540  1.0000
  H   H1036     1.0  0.40093  0.05044  0.71671  1.0000
  H   H1037     1.0  0.32151  0.08825  0.90081  1.0000
  C   C575      1.0  0.47816  0.31483  0.72078  1.0000
  H   H1038     1.0  0.37880  0.16327  0.72074  1.0000
  C   C576      1.0  0.26859  0.04121  0.80233  1.0000
  C   C577      1.0  0.29639  0.99430  0.82480  1.0000
  H   H1039     1.0  0.31900  0.43731  0.60341  1.0000
  H   H1040     1.0  0.29736  0.38637  0.59777  1.0000
  H   H1041     1.0  0.27649  0.03574  0.81264  1.0000
  C   C578      1.0  0.27379  0.04770  0.77725  1.0000
  H   H1042     1.0  0.46792  0.16914  0.55432  1.0000
  C   C579      1.0  0.46134  0.38777  0.53731  1.0000
  Fe  Fe64      1.0  0.23193  0.26473  0.56898  1.0000
  H   H1043     1.0  0.38151  0.06509  0.65689  1.0000
  C   C580      1.0  0.39170  0.14441  0.69379  1.0000
  H   H1044     1.0  0.26450  0.07043  0.80805  1.0000
  H   H1045     1.0  0.47291  0.32887  0.49863  1.0000
  H   H1046     1.0  0.26075  0.02771  0.88754  1.0000
  H   H1047     1.0  0.45519  0.12835  0.59731  1.0000
  H   H1048     1.0  0.30519  0.45565  0.59197  1.0000
  C   C581      1.0  0.31556  0.41605  0.56896  1.0000
  C   C582      1.0  0.32230  0.98338  0.91556  1.0000
  H   H1049     1.0  0.24527  0.04764  0.81575  1.0000
  H   H1050     1.0  0.27435  0.11353  0.77754  1.0000
  H   H1051     1.0  0.28778  0.08665  0.78599  1.0000
  C   C583      1.0  0.24470  0.03777  0.62466  1.0000
  H   H1052     1.0  0.26699  0.04862  0.76435  1.0000
  H   H1053     1.0  0.42088  0.05246  0.73579  1.0000
  H   H1054     1.0  0.47266  0.31925  0.83348  1.0000
  H   H1055     1.0  0.47081  0.39455  0.53442  1.0000
  H   H1056     1.0  0.46144  0.01356  0.78799  1.0000
  Fe  Fe65      1.0  0.31197  0.98526  0.71121  1.0000
  C   C584      1.0  0.45507  0.45531  0.51796  1.0000
  N   N30       1.0  0.39249  0.09876  0.69668  1.0000
  C   C585      1.0  0.41387  0.09662  0.71044  1.0000
  H   H1057     1.0  0.43347  0.43737  0.50263  1.0000
  H   H1058     1.0  0.29637  0.03914  0.85065  1.0000
  H   H1059     1.0  0.38900  0.07818  0.61699  1.0000
  C   C586      1.0  0.39727  0.08271  0.67401  1.0000
  H   H1060     1.0  0.26339  0.47981  0.59061  1.0000
  N   N31       1.0  0.26009  0.00728  0.80711  1.0000
  H   H1061     1.0  0.30191  0.40609  0.62409  1.0000
  H   H1062     1.0  0.31111  0.36860  0.60966  1.0000
  H   H1063     1.0  0.32539  0.03845  0.93338  1.0000
  H   H1064     1.0  0.38661  0.22993  0.72644  1.0000
  H   H1065     1.0  0.28868  0.99393  0.63186  1.0000
  H   H1066     1.0  0.24130  0.99844  0.80990  1.0000
  C   C587      1.0  0.47503  0.99843  0.81207  1.0000
  H   H1067     1.0  0.45552  0.03547  0.58671  1.0000
  C   C588      1.0  0.24439  0.01649  0.64909  1.0000
  H   H1068     1.0  0.39792  0.09445  0.73206  1.0000
  H   H1069     1.0  0.23916  0.00656  0.69389  1.0000
  H   H1070     1.0  0.47409  0.06001  0.60078  1.0000
  C   C589      1.0  0.35404  0.99422  0.68301  1.0000
  H   H1071     1.0  0.43379  0.47517  0.54153  1.0000
  H   H1072     1.0  0.46574  0.08473  0.62389  1.0000
  C   C590      1.0  0.24377  0.45445  0.55287  1.0000
  C   C591      1.0  0.24452  0.03881  0.77981  1.0000
  C   C592      1.0  0.26084  0.02419  0.85035  1.0000
  H   H1073     1.0  0.28328  0.44915  0.59133  1.0000
  C   C593      1.0  0.39528  0.07627  0.63101  1.0000
  H   H1074     1.0  0.44463  0.41820  0.54356  1.0000
  H   H1075     1.0  0.40543  0.09840  0.66794  1.0000
  C   C594      1.0  0.46570  0.07623  0.60566  1.0000
  C   C595      1.0  0.42872  0.46608  0.50688  1.0000
  H   H1076     1.0  0.23280  0.42845  0.62898  1.0000
  N   N32       1.0  0.47310  0.14505  0.58778  1.0000
  H   H1077     1.0  0.23100  0.42449  0.90544  1.0000
  C   C596      1.0  0.47531  0.16097  0.61099  1.0000
  H   H1078     1.0  0.24537  0.43778  0.56953  1.0000
  C   C597      1.0  0.42496  0.47647  0.58503  1.0000
  C   C598      1.0  0.26702  0.46529  0.57488  1.0000
  H   H1079     1.0  0.23503  0.08423  0.60493  1.0000
  H   H1080     1.0  0.46691  0.16282  0.62158  1.0000
  H   H1081     1.0  0.24624  0.46927  0.50599  1.0000
  H   H1082     1.0  0.25326  0.04597  0.84875  1.0000
  H   H1083     1.0  0.23519  0.00749  0.65368  1.0000
  H   H1084     1.0  0.26446  0.43316  0.57582  1.0000
  H   H1085     1.0  0.37287  0.99259  0.67476  1.0000
  H   H1086     1.0  0.24471  0.01618  0.61078  1.0000
  H   H1087     1.0  0.26314  0.99069  0.62084  1.0000
  C   C599      1.0  0.25998  0.00439  0.87464  1.0000
  H   H1088     1.0  0.33219  0.46905  0.58201  1.0000
  H   H1089     1.0  0.37487  0.98958  0.60381  1.0000
  C   C600      1.0  0.47929  0.98954  0.87023  1.0000
  C   C601      1.0  0.36595  0.98453  0.68740  1.0000
  H   H1090     1.0  0.37018  0.98583  0.63382  1.0000
  C   C602      1.0  0.28044  0.46536  0.57532  1.0000
  H   H1091     1.0  0.25140  0.98973  0.87796  1.0000
  H   H1092     1.0  0.30660  0.47714  0.54681  1.0000
  H   H1093     1.0  0.26310  0.98167  0.77342  1.0000
  C   C603      1.0  0.34371  0.47530  0.55129  1.0000
  H   H1094     1.0  0.48013  0.36803  0.75272  1.0000
  H   H1095     1.0  0.42187  0.73759  0.36154  1.0000
  H   H1096     1.0  0.45657  0.63008  0.47677  1.0000
  H   H1097     1.0  0.43552  0.73235  0.30291  1.0000
  Fe  Fe66      1.0  0.41970  0.54774  0.20661  1.0000
  S   S129      1.0  0.43006  0.53960  0.17293  1.0000
  S   S130      1.0  0.42446  0.58354  0.23757  1.0000
  Fe  Fe67      1.0  0.41291  0.55546  0.15608  1.0000
  S   S131      1.0  0.40992  0.59210  0.12204  1.0000
  Fe  Fe68      1.0  0.23629  0.70428  0.11903  1.0000
  S   S132      1.0  0.40284  0.56781  0.18958  1.0000
  H   H1098     1.0  0.33089  0.53840  0.37893  1.0000
  S   S133      1.0  0.40081  0.90366  0.01055  1.0000
  S   S134      1.0  0.23705  0.77010  0.12582  1.0000
  H   H1099     1.0  0.30839  0.58561  0.32246  1.0000
  H   H1100     1.0  0.44172  0.68961  0.22230  1.0000
  S   S135      1.0  0.25211  0.66052  0.12379  1.0000
  H   H1101     1.0  0.28586  0.55574  0.35606  1.0000
  C   C604      1.0  0.45015  0.52787  0.45316  1.0000
  Fe  Fe69      1.0  0.38773  0.87178  0.03460  1.0000
  S   S136      1.0  0.39784  0.88216  0.06614  1.0000
  C   C605      1.0  0.35641  0.90435  0.01956  1.0000
  C   C606      1.0  0.28907  0.52503  0.35339  1.0000
  S   S137      1.0  0.42193  0.85209  0.03717  1.0000
  Fe  Fe70      1.0  0.40756  0.82250  0.05963  1.0000
  S   S138      1.0  0.41310  0.78000  0.08999  1.0000
  Fe  Fe71      1.0  0.41152  0.91061  0.04175  1.0000
  S   S139      1.0  0.29151  0.96649  0.00212  1.0000
  S   S140      1.0  0.39652  0.81014  0.03000  1.0000
  N   N33       1.0  0.32647  0.52262  0.30906  1.0000
  S   S141      1.0  0.30109  0.56383  0.45631  1.0000
  H   H1102     1.0  0.42558  0.67816  0.99910  1.0000
  H   H1103     1.0  0.44225  0.62209  0.07171  1.0000
  H   H1104     1.0  0.26276  0.49667  0.12595  1.0000
  S   S142      1.0  0.46721  0.67666  0.33860  1.0000
  C   C607      1.0  0.45058  0.72136  0.27928  1.0000
  Fe  Fe72      1.0  0.46599  0.65102  0.37525  1.0000
  S   S143      1.0  0.44835  0.66139  0.39522  1.0000
  C   C608      1.0  0.45070  0.77050  0.02750  1.0000
  S   S144      1.0  0.29722  0.53996  0.24934  1.0000
  H   H1105     1.0  0.43404  0.77698  0.01172  1.0000
  Fe  Fe73      1.0  0.28234  0.53546  0.22555  1.0000
  S   S145      1.0  0.26797  0.58454  0.22065  1.0000
  C   C609      1.0  0.43790  0.63615  0.47206  1.0000
  C   C610      1.0  0.42930  0.64225  0.45582  1.0000
  C   C611      1.0  0.43266  0.64837  0.43226  1.0000
  C   C612      1.0  0.44462  0.64798  0.42460  1.0000
  C   C613      1.0  0.45320  0.64031  0.44075  1.0000
  C   C614      1.0  0.44984  0.63469  0.46435  1.0000
  H   H1106     1.0  0.42008  0.64346  0.46147  1.0000
  H   H1107     1.0  0.42593  0.65414  0.41995  1.0000
  H   H1108     1.0  0.46243  0.64012  0.43518  1.0000
  H   H1109     1.0  0.46368  0.67399  0.28483  1.0000
  H   H1110     1.0  0.34842  0.58004  0.20191  1.0000
  H   H1111     1.0  0.44657  0.64116  0.21186  1.0000
  C   C615      1.0  0.46416  0.71138  0.23597  1.0000
  H   H1112     1.0  0.47234  0.48742  0.42354  1.0000
  H   H1113     1.0  0.36945  0.55609  0.19771  1.0000
  C   C616      1.0  0.47146  0.77663  0.37543  1.0000
  H   H1114     1.0  0.43014  0.49942  0.25263  1.0000
  H   H1115     1.0  0.45663  0.73363  0.23609  1.0000
  H   H1116     1.0  0.45395  0.67386  0.04885  1.0000
  H   H1117     1.0  0.34216  0.88004  0.04122  1.0000
  H   H1118     1.0  0.46969  0.72036  0.22030  1.0000
  C   C617      1.0  0.24926  0.84398  0.04941  1.0000
  C   C618      1.0  0.24967  0.81843  0.03094  1.0000
  C   C619      1.0  0.25782  0.82503  0.01210  1.0000
  C   C620      1.0  0.26542  0.85771  0.01132  1.0000
  C   C621      1.0  0.26502  0.88309  0.02987  1.0000
  C   C622      1.0  0.25700  0.87610  0.04877  1.0000
  H   H1119     1.0  0.24366  0.79385  0.03105  1.0000
  C   C623      1.0  0.37107  0.67738  0.08283  1.0000
  C   C624      1.0  0.31324  0.58785  0.30538  1.0000
  H   H1120     1.0  0.25682  0.89544  0.06314  1.0000
  C   C625      1.0  0.25633  0.63963  0.15088  1.0000
  C   C626      1.0  0.26634  0.61341  0.15182  1.0000
  C   C627      1.0  0.27008  0.59662  0.17304  1.0000
  C   C628      1.0  0.26370  0.60528  0.19353  1.0000
  C   C629      1.0  0.25363  0.63121  0.19255  1.0000
  C   C630      1.0  0.24996  0.64837  0.17135  1.0000
  H   H1121     1.0  0.27130  0.60639  0.13607  1.0000
  H   H1122     1.0  0.27791  0.57710  0.17358  1.0000
  H   H1123     1.0  0.24866  0.63822  0.20831  1.0000
  H   H1124     1.0  0.24222  0.66844  0.17087  1.0000
  C   C631      1.0  0.41077  0.64460  0.11367  1.0000
  C   C632      1.0  0.41590  0.67226  0.12716  1.0000
  C   C633      1.0  0.41648  0.71344  0.11963  1.0000
  C   C634      1.0  0.41187  0.72772  0.09862  1.0000
  C   C635      1.0  0.40660  0.70014  0.08525  1.0000
  C   C636      1.0  0.40617  0.65883  0.09263  1.0000
  H   H1125     1.0  0.41953  0.66189  0.14331  1.0000
  H   H1126     1.0  0.42057  0.73444  0.13015  1.0000
  H   H1127     1.0  0.40288  0.71069  0.06924  1.0000
  H   H1128     1.0  0.40216  0.63776  0.08203  1.0000
  C   C637      1.0  0.43754  0.58451  0.25312  1.0000
  C   C638      1.0  0.43720  0.60508  0.27380  1.0000
  C   C639      1.0  0.44717  0.60540  0.28724  1.0000
  C   C640      1.0  0.45773  0.58572  0.27995  1.0000
  C   C641      1.0  0.45812  0.56561  0.25913  1.0000
  C   C642      1.0  0.44810  0.56490  0.24582  1.0000
  H   H1129     1.0  0.42908  0.62036  0.27966  1.0000
  H   H1130     1.0  0.44668  0.62054  0.30331  1.0000
  H   H1131     1.0  0.46623  0.55026  0.25329  1.0000
  H   H1132     1.0  0.44855  0.54912  0.22993  1.0000
  H   H1133     1.0  0.34552  0.51870  0.30650  1.0000
  H   H1134     1.0  0.45137  0.80387  0.45176  1.0000
  H   H1135     1.0  0.47690  0.64999  0.25760  1.0000
  H   H1136     1.0  0.39291  0.68957  0.14984  1.0000
  N   N34       1.0  0.43669  0.71232  0.01970  1.0000
  C   C643      1.0  0.42277  0.73775  0.38043  1.0000
  C   C644      1.0  0.35332  0.57010  0.27371  1.0000
  S   S146      1.0  0.36745  0.87926  0.03653  1.0000
  H   H1137     1.0  0.45251  0.68668  0.19828  1.0000
  H   H1138     1.0  0.40337  0.69025  0.99394  1.0000
  C   C645      1.0  0.40359  0.71835  0.00358  1.0000
  H   H1139     1.0  0.37277  0.49851  0.13087  1.0000
  H   H1140     1.0  0.36642  0.97416  0.05252  1.0000
  H   H1141     1.0  0.43825  0.72441  0.45436  1.0000
  C   C646      1.0  0.34170  0.52086  0.21012  1.0000
  C   C647      1.0  0.44624  0.74211  0.45584  1.0000
  H   H1142     1.0  0.46269  0.82982  0.38824  1.0000
  S   S147      1.0  0.29154  0.52082  0.40056  1.0000
  C   C648      1.0  0.35442  0.93624  0.08615  1.0000
  H   H1143     1.0  0.47001  0.85759  0.25442  1.0000
  H   H1144     1.0  0.25810  0.80511  0.99787  1.0000
  H   H1145     1.0  0.32268  0.48673  0.26621  1.0000
  C   C649      1.0  0.35915  0.92952  0.00012  1.0000
  H   H1146     1.0  0.46004  0.82008  0.04024  1.0000
  H   H1147     1.0  0.37711  0.94006  0.06449  1.0000
  H   H1148     1.0  0.28043  0.52718  0.14077  1.0000
  C   C650      1.0  0.36434  0.96508  0.08930  1.0000
  Fe  Fe74      1.0  0.28574  0.55901  0.48242  1.0000
  H   H1149     1.0  0.30839  0.52700  0.29920  1.0000
  C   C651      1.0  0.43324  0.76299  0.38549  1.0000
  H   H1150     1.0  0.32622  0.91523  0.01936  1.0000
  Fe  Fe75      1.0  0.29348  0.51058  0.43997  1.0000
  C   C652      1.0  0.36265  0.53469  0.20202  1.0000
  H   H1151     1.0  0.24453  0.94675  0.02779  1.0000
  H   H1152     1.0  0.31832  0.54727  0.27813  1.0000
  H   H1153     1.0  0.34105  0.50270  0.34613  1.0000
  H   H1154     1.0  0.35273  0.69521  0.13930  1.0000
  H   H1155     1.0  0.33460  0.48634  0.38696  1.0000
  C   C653      1.0  0.33824  0.54162  0.30360  1.0000
  H   H1156     1.0  0.33531  0.59136  0.27779  1.0000
  H   H1157     1.0  0.41605  0.51186  0.30859  1.0000
  H   H1158     1.0  0.27100  0.90776  0.02971  1.0000
  H   H1159     1.0  0.37872  0.96975  0.01961  1.0000
  H   H1160     1.0  0.45364  0.79859  0.37296  1.0000
  C   C654      1.0  0.37063  0.56190  0.13889  1.0000
  H   H1161     1.0  0.29673  0.59620  0.28817  1.0000
  C   C655      1.0  0.32355  0.52364  0.33471  1.0000
  H   H1162     1.0  0.23434  0.59870  0.14240  1.0000
  C   C656      1.0  0.44925  0.51162  0.33469  1.0000
  H   H1163     1.0  0.42758  0.69742  0.05252  1.0000
  H   H1164     1.0  0.43317  0.65462  0.03731  1.0000
  S   S148      1.0  0.40765  0.48993  0.15656  1.0000
  C   C657      1.0  0.44850  0.74240  0.48150  1.0000
  H   H1165     1.0  0.38564  0.52771  0.12363  1.0000
  H   H1166     1.0  0.43264  0.76314  0.04129  1.0000
  S   S149      1.0  0.47061  0.58502  0.29612  1.0000
  H   H1167     1.0  0.41447  0.75060  0.38850  1.0000
  C   C658      1.0  0.41381  0.71590  0.01969  1.0000
  C   C659      1.0  0.23723  0.97846  0.06981  1.0000
  H   H1168     1.0  0.36667  0.70728  0.08613  1.0000
  H   H1169     1.0  0.30949  0.61484  0.27144  1.0000
  H   H1170     1.0  0.43497  0.66188  0.08804  1.0000
  H   H1171     1.0  0.35863  0.54118  0.27354  1.0000
  H   H1172     1.0  0.43159  0.79384  0.37781  1.0000
  C   C660      1.0  0.24580  0.97938  0.99525  1.0000
  H   H1173     1.0  0.46272  0.79323  0.24268  1.0000
  H   H1174     1.0  0.33526  0.65216  0.14522  1.0000
  H   H1175     1.0  0.45543  0.69881  0.01335  1.0000
  C   C661      1.0  0.43520  0.68604  0.04157  1.0000
  H   H1176     1.0  0.43187  0.93472  0.08293  1.0000
  Fe  Fe76      1.0  0.30887  0.51175  0.22145  1.0000
  C   C662      1.0  0.43405  0.96631  0.08120  1.0000
  H   H1177     1.0  0.23488  0.58711  0.11249  1.0000
  H   H1178     1.0  0.41209  0.69012  0.03220  1.0000
  C   C663      1.0  0.44490  0.72202  0.30365  1.0000
  H   H1179     1.0  0.44523  0.69125  0.31214  1.0000
  H   H1180     1.0  0.36663  0.56928  0.12222  1.0000
  H   H1181     1.0  0.33361  0.69711  0.16155  1.0000
  H   H1182     1.0  0.38415  0.66359  0.12081  1.0000
  H   H1183     1.0  0.44625  0.66260  0.00348  1.0000
  H   H1184     1.0  0.39421  0.65820  0.20030  1.0000
  C   C664      1.0  0.45081  0.81202  0.03784  1.0000
  H   H1185     1.0  0.42622  0.77137  0.42049  1.0000
  H   H1186     1.0  0.28433  0.48676  0.12181  1.0000
  H   H1187     1.0  0.45050  0.90519  0.39246  1.0000
  H   H1188     1.0  0.25245  0.55389  0.48563  1.0000
  H   H1189     1.0  0.42416  0.70592  0.38702  1.0000
  H   H1190     1.0  0.24505  0.54926  0.17000  1.0000
  H   H1191     1.0  0.44115  0.74880  0.37673  1.0000
  C   C665      1.0  0.45935  0.66917  0.23181  1.0000
  H   H1192     1.0  0.24499  0.53356  0.20697  1.0000
  H   H1193     1.0  0.36733  0.66535  0.06740  1.0000
  C   C666      1.0  0.24240  0.53939  0.13482  1.0000
  H   H1194     1.0  0.46380  0.79350  0.27364  1.0000
  H   H1195     1.0  0.38063  0.68155  0.07906  1.0000
  Fe  Fe77      1.0  0.31064  0.51841  0.47942  1.0000
  C   C667      1.0  0.39915  0.53895  0.27926  1.0000
  C   C668      1.0  0.46375  0.70676  0.27939  1.0000
  H   H1196     1.0  0.45677  0.74366  0.40725  1.0000
  H   H1197     1.0  0.37172  0.69545  0.12698  1.0000
  H   H1198     1.0  0.33738  0.54341  0.26528  1.0000
  C   C669      1.0  0.35072  0.54817  0.20440  1.0000
  C   C670      1.0  0.44316  0.65295  0.07798  1.0000
  C   C671      1.0  0.37450  0.66309  0.12511  1.0000
  H   H1199     1.0  0.33719  0.64905  0.17594  1.0000
  H   H1200     1.0  0.40530  0.68507  0.18320  1.0000
  C   C672      1.0  0.37241  0.96981  0.06703  1.0000
  C   C673      1.0  0.29245  0.50025  0.37252  1.0000
  H   H1201     1.0  0.45386  0.72629  0.44704  1.0000
  H   H1202     1.0  0.43686  0.73120  0.41698  1.0000
  C   C674      1.0  0.35177  0.67596  0.15538  1.0000
  H   H1203     1.0  0.29609  0.64202  0.13007  1.0000
  H   H1204     1.0  0.40975  0.49862  0.25866  1.0000
  C   C675      1.0  0.44698  0.69586  0.00508  1.0000
  H   H1205     1.0  0.35666  0.58984  0.28663  1.0000
  H   H1206     1.0  0.36825  0.93318  0.99437  1.0000
  H   H1207     1.0  0.44686  0.83558  0.02609  1.0000
  H   H1208     1.0  0.44543  0.86970  0.44173  1.0000
  H   H1209     1.0  0.32124  0.60541  0.30712  1.0000
  C   C676      1.0  0.44944  0.67206  0.21500  1.0000
  C   C677      1.0  0.43489  0.76331  0.41171  1.0000
  C   C678      1.0  0.36907  0.64772  0.10353  1.0000
  H   H1210     1.0  0.39646  0.54366  0.29758  1.0000
  H   H1211     1.0  0.40327  0.56673  0.27156  1.0000
  H   H1212     1.0  0.35477  0.61815  0.14065  1.0000
  H   H1213     1.0  0.45121  0.51139  0.43698  1.0000
  H   H1214     1.0  0.44559  0.96242  0.10960  1.0000
  H   H1215     1.0  0.26361  0.51935  0.16905  1.0000
  C   C679      1.0  0.33867  0.66793  0.15978  1.0000
  C   C680      1.0  0.31789  0.49359  0.15239  1.0000
  C   C681      1.0  0.43770  0.49905  0.32529  1.0000
  C   C682      1.0  0.37820  0.52301  0.13652  1.0000
  H   H1216     1.0  0.45594  0.65430  0.24810  1.0000
  H   H1217     1.0  0.44592  0.81186  0.05488  1.0000
  H   H1218     1.0  0.38107  0.58650  0.16373  1.0000
  H   H1219     1.0  0.44129  0.54329  0.45382  1.0000
  C   C683      1.0  0.39089  0.66631  0.16375  1.0000
  H   H1220     1.0  0.32380  0.55514  0.34053  1.0000
  H   H1221     1.0  0.34890  0.94750  0.07182  1.0000
  Fe  Fe78      1.0  0.47459  0.61561  0.32935  1.0000
  N   N35       1.0  0.24800  0.48466  0.16662  1.0000
  H   H1222     1.0  0.46330  0.78240  0.42134  1.0000
  C   C684      1.0  0.46045  0.79802  0.38585  1.0000
  H   H1223     1.0  0.32337  0.50848  0.16454  1.0000
  C   C685      1.0  0.45631  0.77708  0.40925  1.0000
  H   H1224     1.0  0.41382  0.74420  0.02913  1.0000
  H   H1225     1.0  0.35812  0.90555  0.08237  1.0000
  H   H1226     1.0  0.35445  0.69315  0.17001  1.0000
  C   C686      1.0  0.37738  0.66056  0.16644  1.0000
  C   C687      1.0  0.44555  0.68348  0.05783  1.0000
  H   H1227     1.0  0.45694  0.55119  0.45278  1.0000
  H   H1228     1.0  0.35781  0.61798  0.17012  1.0000
  C   C688      1.0  0.37802  0.59701  0.14649  1.0000
  H   H1229     1.0  0.44939  0.75207  0.27121  1.0000
  C   C689      1.0  0.44088  0.83365  0.41305  1.0000
  H   H1230     1.0  0.39135  0.71033  0.19037  1.0000
  C   C690      1.0  0.34443  0.89943  0.02628  1.0000
  H   H1231     1.0  0.39327  0.96471  0.08541  1.0000
  H   H1232     1.0  0.28463  0.67088  0.14511  1.0000
  H   H1233     1.0  0.32260  0.49315  0.13520  1.0000
  H   H1234     1.0  0.44650  0.71326  0.06540  1.0000
  H   H1235     1.0  0.30954  0.51180  0.15072  1.0000
  C   C691      1.0  0.35909  0.63559  0.15342  1.0000
  H   H1236     1.0  0.25127  0.55126  0.13041  1.0000
  H   H1237     1.0  0.45595  0.74925  0.03842  1.0000
  C   C692      1.0  0.31652  0.54477  0.29701  1.0000
  H   H1238     1.0  0.36344  0.55517  0.15202  1.0000
  H   H1239     1.0  0.28131  0.96784  0.05417  1.0000
  H   H1240     1.0  0.46936  0.74573  0.37073  1.0000
  C   C693      1.0  0.24161  0.52428  0.16042  1.0000
  S   S150      1.0  0.47224  0.58844  0.36559  1.0000
  C   C694      1.0  0.34031  0.56189  0.27908  1.0000
  H   H1241     1.0  0.25852  0.96923  0.02086  1.0000
  H   H1242     1.0  0.37340  0.61838  0.09894  1.0000
  H   H1243     1.0  0.45666  0.75852  0.48423  1.0000
  C   C695      1.0  0.24884  0.97432  0.02051  1.0000
  H   H1244     1.0  0.23560  0.89418  0.21264  1.0000
  C   C696      1.0  0.43933  0.49042  0.29933  1.0000
  H   H1245     1.0  0.45540  0.77305  0.01032  1.0000
  H   H1246     1.0  0.33969  0.56569  0.31579  1.0000
  H   H1247     1.0  0.46652  0.64915  0.22446  1.0000
  H   H1248     1.0  0.38175  0.51310  0.15337  1.0000
  H   H1249     1.0  0.44233  0.51876  0.29014  1.0000
  H   H1250     1.0  0.25016  0.50938  0.47001  1.0000
  H   H1251     1.0  0.23991  0.94732  0.06468  1.0000
  H   H1252     1.0  0.30321  0.64239  0.29537  1.0000
  N   N36       1.0  0.27647  0.75022  0.08858  1.0000
  C   C697      1.0  0.26777  0.78388  0.09512  1.0000
  C   C698      1.0  0.27058  0.71934  0.07513  1.0000
  C   C699      1.0  0.28038  0.72926  0.11076  1.0000
  C   C700      1.0  0.28725  0.76623  0.07544  1.0000
  C   C701      1.0  0.28517  0.79134  0.05273  1.0000
  C   C702      1.0  0.27253  0.81748  0.10946  1.0000
  C   C703      1.0  0.28723  0.68792  0.10853  1.0000
  C   C704      1.0  0.26136  0.73522  0.05789  1.0000
  C   C705      1.0  0.25722  0.70106  0.04387  1.0000
  C   C706      1.0  0.29612  0.81421  0.04427  1.0000
  C   C707      1.0  0.26283  0.84880  0.11584  1.0000
  C   C708      1.0  0.29192  0.67274  0.13166  1.0000
  H   H1253     1.0  0.26008  0.77071  0.10499  1.0000
  H   H1254     1.0  0.26400  0.79952  0.07980  1.0000
  H   H1255     1.0  0.27733  0.70026  0.06570  1.0000
  H   H1256     1.0  0.26560  0.69818  0.08714  1.0000
  H   H1257     1.0  0.27258  0.72344  0.12281  1.0000
  H   H1258     1.0  0.28613  0.74899  0.11984  1.0000
  H   H1259     1.0  0.29230  0.78472  0.08668  1.0000
  H   H1260     1.0  0.29345  0.74092  0.07061  1.0000
  H   H1261     1.0  0.27786  0.81416  0.05459  1.0000
  H   H1262     1.0  0.28329  0.77077  0.03898  1.0000
  H   H1263     1.0  0.27598  0.80483  0.12584  1.0000
  H   H1264     1.0  0.27963  0.83373  0.09947  1.0000
  H   H1265     1.0  0.29483  0.69017  0.09590  1.0000
  H   H1266     1.0  0.28137  0.66449  0.10301  1.0000
  H   H1267     1.0  0.25349  0.74838  0.06728  1.0000
  H   H1268     1.0  0.26486  0.75878  0.04569  1.0000
  H   H1269     1.0  0.23429  0.58442  0.05199  1.0000
  H   H1270     1.0  0.26468  0.68817  0.03313  1.0000
  H   H1271     1.0  0.25340  0.67670  0.05545  1.0000
  H   H1272     1.0  0.29441  0.83084  0.02763  1.0000
  H   H1273     1.0  0.29825  0.83668  0.05686  1.0000
  H   H1274     1.0  0.30378  0.79287  0.04148  1.0000
  H   H1275     1.0  0.25918  0.86366  0.10015  1.0000
  H   H1276     1.0  0.25558  0.83427  0.12635  1.0000
  H   H1277     1.0  0.26647  0.87245  0.12603  1.0000
  H   H1278     1.0  0.39579  0.63789  0.15943  1.0000
  H   H1279     1.0  0.29860  0.69335  0.13719  1.0000
  H   H1280     1.0  0.35441  0.58558  0.25639  1.0000
  H   H1281     1.0  0.46788  0.72129  0.29368  1.0000
  H   H1282     1.0  0.44108  0.83945  0.39413  1.0000
  H   H1283     1.0  0.37345  0.69167  0.16782  1.0000
  S   S151      1.0  0.32679  0.53993  0.21211  1.0000
  S   S152      1.0  0.23904  0.83852  0.07336  1.0000
  H   H1284     1.0  0.25032  0.71315  0.03231  1.0000
  H   H1285     1.0  0.44550  0.70060  0.26951  1.0000
  H   H1286     1.0  0.43583  0.79805  0.45321  1.0000
  C   C709      1.0  0.28966  0.51041  0.33087  1.0000
  C   C710      1.0  0.42577  0.70880  0.00625  1.0000
  N   N37       1.0  0.37211  0.63887  0.14739  1.0000
  C   C711      1.0  0.30519  0.61165  0.28899  1.0000
  C   C712      1.0  0.33534  0.91935  0.01388  1.0000
  H   H1287     1.0  0.47693  0.52365  0.44349  1.0000
  H   H1288     1.0  0.24903  0.50863  0.24631  1.0000
  C   C713      1.0  0.43793  0.75623  0.02519  1.0000
  C   C714      1.0  0.36574  0.49353  0.20540  1.0000
  C   C715      1.0  0.44430  0.78572  0.44533  1.0000
  Fe  Fe79      1.0  0.41038  0.84306  0.00787  1.0000
  H   H1289     1.0  0.45224  0.92952  0.41902  1.0000
  H   H1290     1.0  0.44947  0.74314  0.31415  1.0000
  H   H1291     1.0  0.44791  0.51736  0.35330  1.0000
  N   N38       1.0  0.44428  0.79007  0.41933  1.0000
  H   H1292     1.0  0.36946  0.95199  0.10377  1.0000
  C   C716      1.0  0.23548  0.97599  0.09648  1.0000
  C   C717      1.0  0.39567  0.68089  0.18582  1.0000
  H   H1293     1.0  0.45787  0.85641  0.42304  1.0000
  H   H1294     1.0  0.35944  0.64414  0.10619  1.0000
  H   H1295     1.0  0.38614  0.59793  0.13504  1.0000
  H   H1296     1.0  0.23602  0.48631  0.23679  1.0000
  Fe  Fe80      1.0  0.39843  0.50209  0.19101  1.0000
  H   H1297     1.0  0.37537  0.64431  0.18337  1.0000
  H   H1298     1.0  0.45229  0.53995  0.32562  1.0000
  H   H1299     1.0  0.45059  0.65202  0.08967  1.0000
  S   S153      1.0  0.41887  0.97370  0.04490  1.0000
  H   H1300     1.0  0.31437  0.51395  0.33879  1.0000
  H   H1301     1.0  0.25978  0.96189  0.06054  1.0000
  H   H1302     1.0  0.43153  0.84037  0.41883  1.0000
  H   H1303     1.0  0.43770  0.91770  0.41103  1.0000
  H   H1304     1.0  0.31962  0.50107  0.38102  1.0000
  H   H1305     1.0  0.39116  0.53377  0.26978  1.0000
  H   H1306     1.0  0.24061  0.51547  0.12298  1.0000
  S   S154      1.0  0.27756  0.50852  0.46514  1.0000
  H   H1307     1.0  0.42253  0.53844  0.28416  1.0000
  C   C718      1.0  0.46886  0.79210  0.25686  1.0000
  C   C719      1.0  0.47604  0.83036  0.25409  1.0000
  H   H1308     1.0  0.28689  0.52989  0.31654  1.0000
  H   H1309     1.0  0.39513  0.72202  0.01380  1.0000
  N   N39       1.0  0.47114  0.71335  0.25722  1.0000
  H   H1310     1.0  0.24391  0.96823  0.10464  1.0000
  C   C720      1.0  0.24574  0.48756  0.23401  1.0000
  C   C721      1.0  0.44839  0.86576  0.42344  1.0000
  C   C722      1.0  0.26123  0.48882  0.16410  1.0000
  H   H1311     1.0  0.34871  0.93377  0.10219  1.0000
  H   H1312     1.0  0.45623  0.48745  0.33260  1.0000
  S   S155      1.0  0.29419  0.51306  0.19673  1.0000
  S   S156      1.0  0.41456  0.48260  0.21035  1.0000
  C   C723      1.0  0.47963  0.50645  0.42807  1.0000
  C   C724      1.0  0.24764  0.52520  0.48603  1.0000
  C   C725      1.0  0.32901  0.50645  0.37587  1.0000
  H   H1313     1.0  0.23801  0.53233  0.48635  1.0000
  H   H1314     1.0  0.23294  0.94520  0.18141  1.0000
  C   C726      1.0  0.44709  0.90702  0.41064  1.0000
  C   C727      1.0  0.40773  0.50240  0.27724  1.0000
  C   C728      1.0  0.33162  0.49726  0.35056  1.0000
  C   C729      1.0  0.33810  0.94524  0.99477  1.0000
  S   S157      1.0  0.33031  0.51238  0.48780  1.0000
  H   H1315     1.0  0.23215  0.52316  0.16624  1.0000
  C   C730      1.0  0.47703  0.75359  0.25675  1.0000
  C   C731      1.0  0.41906  0.50856  0.29028  1.0000
  H   H1316     1.0  0.44959  0.71080  0.48864  1.0000
  C   C732      1.0  0.45145  0.49819  0.47393  1.0000
  C   C733      1.0  0.23342  0.57414  0.13033  1.0000
  H   H1317     1.0  0.47864  0.77463  0.38770  1.0000
  H   H1318     1.0  0.47464  0.79367  0.35954  1.0000
  H   H1319     1.0  0.25876  0.50515  0.20796  1.0000
  C   C734      1.0  0.24906  0.50273  0.20940  1.0000
  H   H1320     1.0  0.39403  0.97158  0.04476  1.0000
  C   C735      1.0  0.28010  0.49402  0.13880  1.0000
  H   H1321     1.0  0.43118  0.52431  0.32819  1.0000
  S   S158      1.0  0.23075  0.71614  0.08255  1.0000
  H   H1322     1.0  0.42588  0.73078  0.99108  1.0000
  H   H1323     1.0  0.40441  0.74474  0.99114  1.0000
  Fe  Fe81      1.0  0.23044  0.78243  0.09041  1.0000
  H   H1324     1.0  0.46029  0.48271  0.47222  1.0000
  H   H1325     1.0  0.24356  0.49850  0.58776  1.0000
  S   S159      1.0  0.30008  0.92626  0.95230  1.0000
  H   H1326     1.0  0.37529  0.92241  0.65616  1.0000
  H   H1327     1.0  0.25664  0.92076  0.81349  1.0000
  S   S160      1.0  0.41622  0.81741  0.97319  1.0000
  H   H1328     1.0  0.36816  0.89637  0.92308  1.0000
  C   C736      1.0  0.24760  0.94145  0.64781  1.0000
  S   S161      1.0  0.46849  0.80571  0.92846  1.0000
  S   S162      1.0  0.46265  0.88392  0.82022  1.0000
  C   C737      1.0  0.23027  0.56518  0.59307  1.0000
  Fe  Fe82      1.0  0.29150  0.92839  0.70577  1.0000
  C   C738      1.0  0.38291  0.83215  0.70665  1.0000
  S   S163      1.0  0.28711  0.87852  0.68201  1.0000
  Fe  Fe83      1.0  0.28420  0.92481  0.97739  1.0000
  S   S164      1.0  0.43432  0.63295  0.50218  1.0000
  H   H1329     1.0  0.31467  0.51018  0.58269  1.0000
  H   H1330     1.0  0.35775  0.90560  0.67496  1.0000
  S   S165      1.0  0.30743  0.92439  0.72745  1.0000
  H   H1331     1.0  0.29465  0.67065  0.52875  1.0000
  C   C739      1.0  0.44313  0.48589  0.60406  1.0000
  C   C740      1.0  0.37730  0.83998  0.62259  1.0000
  Fe  Fe84      1.0  0.23712  0.70367  0.59951  1.0000
  S   S166      1.0  0.25063  0.65320  0.59043  1.0000
  H   H1332     1.0  0.38125  0.91800  0.60442  1.0000
  C   C741      1.0  0.24544  0.51920  0.57245  1.0000
  Fe  Fe85      1.0  0.40812  0.56046  0.55845  1.0000
  S   S167      1.0  0.40503  0.57212  0.52069  1.0000
  Fe  Fe86      1.0  0.40458  0.65115  0.56914  1.0000
  S   S168      1.0  0.40164  0.66909  0.53198  1.0000
  S   S169      1.0  0.40415  0.68879  0.60151  1.0000
  Fe  Fe87      1.0  0.39002  0.61434  0.53247  1.0000
  N   N40       1.0  0.44117  0.67150  0.62020  1.0000
  Fe  Fe88      1.0  0.41674  0.62506  0.52286  1.0000
  S   S170      1.0  0.39233  0.59883  0.57011  1.0000
  S   S171      1.0  0.42041  0.61102  0.56018  1.0000
  Fe  Fe89      1.0  0.42686  0.91959  0.70063  1.0000
  S   S172      1.0  0.43208  0.93551  0.66329  1.0000
  S   S173      1.0  0.43937  0.87962  0.72260  1.0000
  Fe  Fe90      1.0  0.40137  0.95169  0.69500  1.0000
  H   H1333     1.0  0.26949  0.97345  0.83375  1.0000
  C   C742      1.0  0.36281  0.92515  0.92214  1.0000
  Fe  Fe91      1.0  0.41488  0.90903  0.65514  1.0000
  S   S174      1.0  0.41297  0.87346  0.62260  1.0000
  H   H1334     1.0  0.38169  0.84728  0.72328  1.0000
  S   S175      1.0  0.41022  0.88989  0.69187  1.0000
  H   H1335     1.0  0.25333  0.91528  0.65355  1.0000
  C   C743      1.0  0.40686  0.74018  0.60688  1.0000
  C   C744      1.0  0.40980  0.76882  0.58924  1.0000
  C   C745      1.0  0.41177  0.80922  0.59446  1.0000
  C   C746      1.0  0.41105  0.82146  0.61735  1.0000
  C   C747      1.0  0.40833  0.79261  0.63503  1.0000
  C   C748      1.0  0.40615  0.75239  0.62978  1.0000
  H   H1336     1.0  0.41037  0.76003  0.57155  1.0000
  H   H1337     1.0  0.41381  0.83125  0.58061  1.0000
  H   H1338     1.0  0.40783  0.80132  0.65272  1.0000
  H   H1339     1.0  0.40393  0.73050  0.64359  1.0000
  H   H1340     1.0  0.35157  0.90331  0.89735  1.0000
  H   H1341     1.0  0.34159  0.96540  0.93172  1.0000
  C   C749      1.0  0.31673  0.51938  0.56448  1.0000
  C   C750      1.0  0.44592  0.70458  0.57945  1.0000
  C   C751      1.0  0.29252  0.92636  0.83936  1.0000
  H   H1342     1.0  0.32469  0.90498  0.92627  1.0000
  H   H1343     1.0  0.33611  0.90750  0.86428  1.0000
  C   C752      1.0  0.25647  0.64083  0.56279  1.0000
  C   C753      1.0  0.26567  0.61133  0.56104  1.0000
  C   C754      1.0  0.27094  0.60183  0.53942  1.0000
  C   C755      1.0  0.26710  0.62210  0.51940  1.0000
  C   C756      1.0  0.25779  0.65117  0.52116  1.0000
  C   C757      1.0  0.25239  0.66018  0.54272  1.0000
  H   H1344     1.0  0.26889  0.59626  0.57651  1.0000
  H   H1345     1.0  0.27819  0.57975  0.53826  1.0000
  H   H1346     1.0  0.23913  0.93734  0.65788  1.0000
  H   H1347     1.0  0.24516  0.68232  0.54378  1.0000
  H   H1348     1.0  0.47519  0.96632  0.80759  1.0000
  S   S176      1.0  0.47946  0.86314  0.87333  1.0000
  H   H1349     1.0  0.44326  0.54493  0.49531  1.0000
  S   S177      1.0  0.41773  0.98045  0.70639  1.0000
  C   C758      1.0  0.42261  0.87697  0.79817  1.0000
  H   H1350     1.0  0.42526  0.90512  0.80582  1.0000
  H   H1351     1.0  0.34810  0.94160  0.86512  1.0000
  N   N41       1.0  0.37341  0.86197  0.64404  1.0000
  H   H1352     1.0  0.42293  0.61735  0.61058  1.0000
  C   C759      1.0  0.27311  0.85895  0.67764  1.0000
  C   C760      1.0  0.27192  0.83490  0.65868  1.0000
  C   C761      1.0  0.26102  0.81837  0.65453  1.0000
  C   C762      1.0  0.25122  0.82528  0.66954  1.0000
  C   C763      1.0  0.25240  0.84948  0.68846  1.0000
  C   C764      1.0  0.26328  0.86629  0.69249  1.0000
  H   H1353     1.0  0.27953  0.82883  0.64731  1.0000
  H   H1354     1.0  0.26021  0.79999  0.63992  1.0000
  H   H1355     1.0  0.24488  0.85487  0.70022  1.0000
  H   H1356     1.0  0.26412  0.88417  0.70733  1.0000
  C   C765      1.0  0.45684  0.88296  0.79243  1.0000
  C   C766      1.0  0.45037  0.91713  0.78389  1.0000
  C   C767      1.0  0.44510  0.91708  0.76245  1.0000
  C   C768      1.0  0.44619  0.88266  0.74931  1.0000
  C   C769      1.0  0.45281  0.84876  0.75775  1.0000
  C   C770      1.0  0.45813  0.84888  0.77911  1.0000
  H   H1357     1.0  0.44932  0.94368  0.79404  1.0000
  H   H1358     1.0  0.44008  0.94343  0.75619  1.0000
  H   H1359     1.0  0.45379  0.82205  0.74770  1.0000
  H   H1360     1.0  0.46314  0.82247  0.78531  1.0000
  C   C771      1.0  0.43067  0.81775  0.96016  1.0000
  C   C772      1.0  0.44016  0.83168  0.97147  1.0000
  C   C773      1.0  0.45166  0.82856  0.96128  1.0000
  C   C774      1.0  0.45375  0.81256  0.93943  1.0000
  C   C775      1.0  0.44421  0.79975  0.92780  1.0000
  C   C776      1.0  0.43274  0.80207  0.93821  1.0000
  H   H1361     1.0  0.30679  0.92515  0.90298  1.0000
  H   H1362     1.0  0.45899  0.83837  0.97044  1.0000
  H   H1363     1.0  0.44574  0.78677  0.91117  1.0000
  H   H1364     1.0  0.42545  0.79116  0.92937  1.0000
  H   H1365     1.0  0.43286  0.65380  0.65343  1.0000
  H   H1366     1.0  0.45872  0.53692  0.49707  1.0000
  H   H1367     1.0  0.42324  0.67859  0.63411  1.0000
  C   C777      1.0  0.42598  0.61523  0.62836  1.0000
  S   S178      1.0  0.27564  0.86472  0.98749  1.0000
  H   H1368     1.0  0.45885  0.65226  0.60903  1.0000
  H   H1369     1.0  0.34658  0.89438  0.92702  1.0000
  H   H1370     1.0  0.45022  0.79142  0.62899  1.0000
  H   H1371     1.0  0.40986  0.86511  0.82648  1.0000
  C   C778      1.0  0.35052  0.91695  0.91436  1.0000
  H   H1372     1.0  0.28334  0.96453  0.60932  1.0000
  S   S179      1.0  0.24007  0.77088  0.60032  1.0000
  Fe  Fe92      1.0  0.47549  0.80324  0.89108  1.0000
  S   S180      1.0  0.37123  0.62371  0.51944  1.0000
  H   H1373     1.0  0.31677  0.83926  0.89456  1.0000
  H   H1374     1.0  0.42874  0.70004  0.59691  1.0000
  H   H1375     1.0  0.40819  0.62649  0.64303  1.0000
  H   H1376     1.0  0.44608  0.77510  0.65842  1.0000
  N   N42       1.0  0.24947  0.49500  0.55180  1.0000
  C   C779      1.0  0.33942  0.58534  0.50046  1.0000
  H   H1377     1.0  0.36604  0.92326  0.61407  1.0000
  C   C780      1.0  0.35976  0.95624  0.72489  1.0000
  H   H1378     1.0  0.33204  0.88860  0.90066  1.0000
  H   H1379     1.0  0.46318  0.95564  0.87085  1.0000
  H   H1380     1.0  0.41822  0.91096  0.76673  1.0000
  H   H1381     1.0  0.24655  0.94142  0.79259  1.0000
  C   C781      1.0  0.37661  0.85751  0.68803  1.0000
  H   H1382     1.0  0.31895  0.49624  0.53087  1.0000
  C   C782      1.0  0.43079  0.65624  0.63493  1.0000
  H   H1383     1.0  0.37543  0.74413  0.60012  1.0000
  H   H1384     1.0  0.43115  0.53457  0.59278  1.0000
  H   H1385     1.0  0.38694  0.84294  0.61876  1.0000
  H   H1386     1.0  0.44718  0.72825  0.54392  1.0000
  H   H1387     1.0  0.24285  0.77407  0.52851  1.0000
  C   C783      1.0  0.24113  0.89284  0.61895  1.0000
  C   C784      1.0  0.29490  0.95361  0.82044  1.0000
  H   H1388     1.0  0.24057  0.97496  0.73269  1.0000
  H   H1389     1.0  0.30896  0.85524  0.92071  1.0000
  H   H1390     1.0  0.24524  0.80964  0.55004  1.0000
  H   H1391     1.0  0.36571  0.78817  0.63004  1.0000
  H   H1392     1.0  0.35609  0.86114  0.62986  1.0000
  N   N43       1.0  0.42535  0.82697  0.83351  1.0000
  C   C785      1.0  0.41809  0.80262  0.85128  1.0000
  C   C786      1.0  0.43126  0.85977  0.84540  1.0000
  C   C787      1.0  0.41698  0.84771  0.81693  1.0000
  C   C788      1.0  0.43432  0.80129  0.82003  1.0000
  C   C789      1.0  0.43957  0.76266  0.83251  1.0000
  C   C790      1.0  0.40959  0.77285  0.84155  1.0000
  H   H1393     1.0  0.45090  0.61415  0.56101  1.0000
  C   C791      1.0  0.44000  0.84558  0.86391  1.0000
  C   C792      1.0  0.44409  0.88128  0.87675  1.0000
  C   C793      1.0  0.44965  0.74350  0.81784  1.0000
  C   C794      1.0  0.40549  0.74117  0.85994  1.0000
  H   H1394     1.0  0.43624  0.80779  0.64205  1.0000
  H   H1395     1.0  0.41260  0.82327  0.86243  1.0000
  H   H1396     1.0  0.42378  0.78503  0.86335  1.0000
  H   H1397     1.0  0.43650  0.87887  0.83271  1.0000
  H   H1398     1.0  0.42447  0.88053  0.85351  1.0000
  C   C795      1.0  0.34783  0.96522  0.72034  1.0000
  H   H1399     1.0  0.41251  0.82482  0.80744  1.0000
  H   H1400     1.0  0.43053  0.79065  0.80421  1.0000
  H   H1401     1.0  0.44183  0.82003  0.81357  1.0000
  H   H1402     1.0  0.43279  0.73954  0.83570  1.0000
  H   H1403     1.0  0.44296  0.76908  0.84934  1.0000
  H   H1404     1.0  0.40162  0.78984  0.83551  1.0000
  H   H1405     1.0  0.41380  0.75693  0.82674  1.0000
  N   N44       1.0  0.33064  0.95411  0.90324  1.0000
  C   C796      1.0  0.30824  0.55439  0.55772  1.0000
  H   H1406     1.0  0.43610  0.82400  0.87702  1.0000
  H   H1407     1.0  0.44794  0.83135  0.85544  1.0000
  S   S181      1.0  0.38383  0.95745  0.71620  1.0000
  H   H1408     1.0  0.45073  0.87030  0.88917  1.0000
  H   H1409     1.0  0.44823  0.90399  0.86450  1.0000
  H   H1410     1.0  0.34690  0.64085  0.51008  1.0000
  H   H1411     1.0  0.45333  0.71612  0.82714  1.0000
  H   H1412     1.0  0.23847  0.89023  0.60101  1.0000
  H   H1413     1.0  0.40108  0.75608  0.87495  1.0000
  H   H1414     1.0  0.39911  0.72131  0.85266  1.0000
  H   H1415     1.0  0.41309  0.72195  0.86582  1.0000
  H   H1416     1.0  0.34787  0.98019  0.90419  1.0000
  H   H1417     1.0  0.44775  0.73471  0.58573  1.0000
  H   H1418     1.0  0.43349  0.75445  0.61524  1.0000
  H   H1419     1.0  0.25407  0.81091  0.52315  1.0000
  C   C797      1.0  0.33696  0.95254  0.83667  1.0000
  H   H1420     1.0  0.36710  0.85735  0.69316  1.0000
  H   H1421     1.0  0.23755  0.57883  0.60168  1.0000
  H   H1422     1.0  0.25263  0.53857  0.57742  1.0000
  Fe  Fe93      1.0  0.23198  0.76640  0.63622  1.0000
  C   C798      1.0  0.36196  0.55050  0.50754  1.0000
  H   H1423     1.0  0.43968  0.56798  0.53948  1.0000
  C   C799      1.0  0.29146  0.93954  0.86218  1.0000
  H   H1424     1.0  0.32569  0.53164  0.56338  1.0000
  H   H1425     1.0  0.37979  0.88872  0.68808  1.0000
  C   C800      1.0  0.34149  0.54417  0.49662  1.0000
  H   H1426     1.0  0.26047  0.49160  0.50538  1.0000
  C   C801      1.0  0.24477  0.93609  0.62247  1.0000
  H   H1427     1.0  0.44646  0.73440  0.80120  1.0000
  H   H1428     1.0  0.23356  0.88454  0.63088  1.0000
  H   H1429     1.0  0.29083  0.64139  0.55498  1.0000
  Fe  Fe94      1.0  0.29632  0.95934  0.75386  1.0000
  H   H1430     1.0  0.32762  0.94978  0.83239  1.0000
  H   H1431     1.0  0.44967  0.56598  0.57664  1.0000
  S   S182      1.0  0.41208  0.49539  0.57156  1.0000
  C   C802      1.0  0.46456  0.58710  0.63779  1.0000
  H   H1432     1.0  0.29229  0.94050  0.63116  1.0000
  C   C803      1.0  0.37478  0.79412  0.62307  1.0000
  H   H1433     1.0  0.28651  0.72690  0.61424  1.0000
  H   H1434     1.0  0.38801  0.90228  0.64179  1.0000
  S   S183      1.0  0.32710  0.97328  0.97908  1.0000
  H   H1435     1.0  0.26935  0.73096  0.64201  1.0000
  H   H1436     1.0  0.36222  0.93777  0.93951  1.0000
  H   H1437     1.0  0.44806  0.60833  0.65285  1.0000
  H   H1438     1.0  0.23689  0.88591  0.54411  1.0000
  H   H1439     1.0  0.29589  0.69746  0.57849  1.0000
  H   H1440     1.0  0.29970  0.85327  0.58172  1.0000
  H   H1441     1.0  0.30091  0.72651  0.55336  1.0000
  H   H1442     1.0  0.36927  0.79094  0.58787  1.0000
  C   C804      1.0  0.46053  0.70767  0.96917  1.0000
  H   H1443     1.0  0.38112  0.77672  0.63396  1.0000
  H   H1444     1.0  0.28056  0.68312  0.60197  1.0000
  C   C805      1.0  0.45361  0.58156  0.56093  1.0000
  H   H1445     1.0  0.30055  0.82206  0.60813  1.0000
  H   H1446     1.0  0.26243  0.74196  0.53320  1.0000
  H   H1447     1.0  0.27660  0.68163  0.64365  1.0000
  H   H1448     1.0  0.25376  0.74088  0.55982  1.0000
  H   H1449     1.0  0.29196  0.86889  0.60786  1.0000
  C   C806      1.0  0.32580  0.91225  0.90737  1.0000
  H   H1450     1.0  0.39249  0.82891  0.70218  1.0000
  C   C807      1.0  0.43294  0.50221  0.59372  1.0000
  H   H1451     1.0  0.27911  0.81098  0.60800  1.0000
  H   H1452     1.0  0.27142  0.92442  0.63864  1.0000
  H   H1453     1.0  0.41106  0.48269  0.52059  1.0000
  H   H1454     1.0  0.30891  0.57942  0.56956  1.0000
  H   H1455     1.0  0.46278  0.67472  0.96894  1.0000
  S   S184      1.0  0.28006  0.95807  0.73314  1.0000
  N   N45       1.0  0.44827  0.49542  0.51893  1.0000
  H   H1456     1.0  0.35424  0.92644  0.64727  1.0000
  H   H1457     1.0  0.41215  0.57398  0.63903  1.0000
  C   C808      1.0  0.41546  0.60317  0.64427  1.0000
  H   H1458     1.0  0.34255  0.93274  0.82533  1.0000
  H   H1459     1.0  0.47979  0.94477  0.84407  1.0000
  H   H1460     1.0  0.25935  0.91232  0.76115  1.0000
  S   S185      1.0  0.29579  0.51791  0.50665  1.0000
  H   H1461     1.0  0.28350  0.49688  0.57498  1.0000
  H   H1462     1.0  0.38871  0.83682  0.66080  1.0000
  C   C809      1.0  0.26030  0.90149  0.77933  1.0000
  C   C810      1.0  0.35379  0.89872  0.65876  1.0000
  C   C811      1.0  0.25595  0.93418  0.79576  1.0000
  C   C812      1.0  0.37518  0.92820  0.61877  1.0000
  H   H1463     1.0  0.37585  0.80799  0.66623  1.0000
  H   H1464     1.0  0.23108  0.93838  0.50079  1.0000
  H   H1465     1.0  0.26971  0.89298  0.78189  1.0000
  H   H1466     1.0  0.33623  0.88497  0.64851  1.0000
  H   H1467     1.0  0.43505  0.65379  0.58785  1.0000
  H   H1468     1.0  0.46086  0.72047  0.95114  1.0000
  C   C813      1.0  0.37820  0.90398  0.64137  1.0000
  H   H1469     1.0  0.44918  0.50595  0.61102  1.0000
  C   C814      1.0  0.36891  0.96599  0.70855  1.0000
  H   H1470     1.0  0.47695  0.96571  0.95797  1.0000
  H   H1471     1.0  0.25474  0.66684  0.50570  1.0000
  C   C815      1.0  0.36009  0.86211  0.64688  1.0000
  H   H1472     1.0  0.35724  0.83390  0.65651  1.0000
  C   C816      1.0  0.33862  0.93953  0.86190  1.0000
  H   H1473     1.0  0.23722  0.95656  0.61784  1.0000
  H   H1474     1.0  0.33639  0.91816  0.67206  1.0000
  H   H1475     1.0  0.47297  0.94081  0.89365  1.0000
  C   C817      1.0  0.34859  0.60894  0.50750  1.0000
  H   H1476     1.0  0.25504  0.87401  0.78268  1.0000
  C   C818      1.0  0.26263  0.48730  0.55256  1.0000
  S   S186      1.0  0.23734  0.80455  0.66543  1.0000
  C   C819      1.0  0.24722  0.51913  0.52965  1.0000
  C   C820      1.0  0.35994  0.59181  0.51112  1.0000
  Fe  Fe95      1.0  0.47370  0.83689  0.84095  1.0000
  C   C821      1.0  0.35284  0.52703  0.50020  1.0000
  S   S187      1.0  0.27450  0.97399  0.95722  1.0000
  C   C822      1.0  0.44569  0.70815  0.63086  1.0000
  H   H1477     1.0  0.45323  0.58111  0.52432  1.0000
  H   H1478     1.0  0.25365  0.94624  0.72379  1.0000
  H   H1479     1.0  0.43656  0.89588  0.88652  1.0000
  H   H1480     1.0  0.24860  0.87094  0.62199  1.0000
  S   S188      1.0  0.29570  0.93506  0.79193  1.0000
  C   C823      1.0  0.37658  0.97367  0.62061  1.0000
  H   H1481     1.0  0.24917  0.95234  0.98600  1.0000
  H   H1482     1.0  0.45950  0.64461  0.65141  1.0000
  C   C824      1.0  0.34076  0.89103  0.66436  1.0000
  S   S189      1.0  0.40500  0.96926  0.65773  1.0000
  H   H1483     1.0  0.25244  0.94218  0.61047  1.0000
  H   H1484     1.0  0.27271  0.96272  0.79439  1.0000
  H   H1485     1.0  0.33973  0.50054  0.54075  1.0000
  C   C825      1.0  0.35282  0.49264  0.56608  1.0000
  C   C826      1.0  0.23153  0.93458  0.51976  1.0000
  C   C827      1.0  0.44935  0.56345  0.53935  1.0000
  H   H1486     1.0  0.43046  0.86239  0.78953  1.0000
  H   H1487     1.0  0.43922  0.68223  0.54808  1.0000
  H   H1488     1.0  0.43243  0.72974  0.55692  1.0000
  H   H1489     1.0  0.26362  0.72122  0.58902  1.0000
  C   C828      1.0  0.43714  0.68181  0.59626  1.0000
  C   C829      1.0  0.41398  0.88948  0.77961  1.0000
  H   H1490     1.0  0.38499  0.78452  0.59086  1.0000
  C   C830      1.0  0.37897  0.83946  0.66415  1.0000
  H   H1491     1.0  0.41805  0.59935  0.66240  1.0000
  H   H1492     1.0  0.45684  0.76509  0.81432  1.0000
  H   H1493     1.0  0.33080  0.59915  0.49776  1.0000
  H   H1494     1.0  0.31481  0.90920  0.87738  1.0000
  H   H1495     1.0  0.27812  0.84229  0.58191  1.0000
  H   H1496     1.0  0.29132  0.89480  0.83632  1.0000
  C   C831      1.0  0.45099  0.63963  0.61857  1.0000
  H   H1497     1.0  0.42941  0.73818  0.64444  1.0000
  C   C832      1.0  0.46933  0.96679  0.88311  1.0000
  C   C833      1.0  0.47104  0.97439  0.97288  1.0000
  H   H1498     1.0  0.23825  0.95491  0.52537  1.0000
  H   H1499     1.0  0.43276  0.59030  0.62959  1.0000
  C   C834      1.0  0.44279  0.78200  0.64097  1.0000
  H   H1500     1.0  0.23910  0.95214  0.69354  1.0000
  C   C835      1.0  0.25084  0.49807  0.50697  1.0000
  H   H1501     1.0  0.44809  0.70047  0.64887  1.0000
  H   H1502     1.0  0.30584  0.65507  0.54846  1.0000
  H   H1503     1.0  0.37920  0.80153  0.70886  1.0000
  H   H1504     1.0  0.46337  0.57875  0.56120  1.0000
  C   C836      1.0  0.43694  0.74528  0.63223  1.0000
  S   S190      1.0  0.23025  0.69852  0.63662  1.0000
  H   H1505     1.0  0.26724  0.51640  0.54983  1.0000
  H   H1506     1.0  0.46072  0.56204  0.62896  1.0000
  H   H1507     1.0  0.30160  0.85698  0.89404  1.0000
  H   H1508     1.0  0.26295  0.68857  0.62937  1.0000
  N   N46       1.0  0.27725  0.75665  0.57175  1.0000
  C   C837      1.0  0.28724  0.78290  0.57708  1.0000
  C   C838      1.0  0.28168  0.72285  0.55650  1.0000
  C   C839      1.0  0.26846  0.78313  0.55869  1.0000
  C   C840      1.0  0.27096  0.73987  0.59341  1.0000
  C   C841      1.0  0.27834  0.71248  0.60991  1.0000
  C   C842      1.0  0.28382  0.82019  0.59156  1.0000
  C   C843      1.0  0.25866  0.76083  0.54722  1.0000
  C   C844      1.0  0.29427  0.70455  0.56016  1.0000
  C   C845      1.0  0.29650  0.66559  0.54726  1.0000
  C   C846      1.0  0.27135  0.70293  0.63257  1.0000
  C   C847      1.0  0.29471  0.84234  0.59759  1.0000
  C   C848      1.0  0.24970  0.79088  0.53661  1.0000
  H   H1509     1.0  0.29177  0.79428  0.56070  1.0000
  H   H1510     1.0  0.29413  0.76520  0.58640  1.0000
  H   H1511     1.0  0.27538  0.69771  0.55781  1.0000
  H   H1512     1.0  0.28200  0.73369  0.53804  1.0000
  H   H1513     1.0  0.27310  0.80161  0.54472  1.0000
  H   H1514     1.0  0.26384  0.80509  0.57029  1.0000
  H   H1515     1.0  0.26657  0.76457  0.60333  1.0000
  H   H1516     1.0  0.37298  0.85417  0.60732  1.0000
  H   H1517     1.0  0.28936  0.91823  0.87635  1.0000
  H   H1518     1.0  0.33975  0.86497  0.67700  1.0000
  S   S191      1.0  0.46849  0.77800  0.85943  1.0000
  H   H1519     1.0  0.41150  0.86268  0.77041  1.0000
  H   H1520     1.0  0.45436  0.68701  0.57720  1.0000
  C   C849      1.0  0.37620  0.77757  0.59898  1.0000
  H   H1521     1.0  0.44840  0.61431  0.60821  1.0000
  C   C850      1.0  0.45535  0.62126  0.64179  1.0000
  S   S192      1.0  0.27398  0.61364  0.49202  1.0000
  C   C851      1.0  0.31015  0.86135  0.90181  1.0000
  C   C852      1.0  0.28530  0.96414  0.62781  1.0000
  H   H1522     1.0  0.36735  0.94674  0.90977  1.0000
  C   C853      1.0  0.31398  0.90474  0.89640  1.0000
  H   H1523     1.0  0.25188  0.54826  0.52929  1.0000
  H   H1524     1.0  0.29901  0.54444  0.55876  1.0000
  H   H1525     1.0  0.45402  0.71791  0.62168  1.0000
  C   C854      1.0  0.44085  0.71156  0.55568  1.0000
  H   H1526     1.0  0.44180  0.70178  0.96919  1.0000
  H   H1527     1.0  0.40593  0.90464  0.78728  1.0000
  H   H1528     1.0  0.37061  0.53678  0.51010  1.0000
  H   H1529     1.0  0.47228  0.59843  0.62724  1.0000
  H   H1530     1.0  0.24458  0.88528  0.51622  1.0000
  H   H1531     1.0  0.31051  0.56622  0.53989  1.0000
  C   C855      1.0  0.23589  0.89106  0.52530  1.0000
  H   H1532     1.0  0.34093  0.95784  0.73320  1.0000
  H   H1533     1.0  0.43045  0.51972  0.52524  1.0000
  C   C856      1.0  0.34261  0.95623  0.91347  1.0000
  H   H1534     1.0  0.35967  0.50782  0.55477  1.0000
  C   C857      1.0  0.31606  0.48369  0.54823  1.0000
  H   H1535     1.0  0.26090  0.95068  0.68278  1.0000
  H   H1536     1.0  0.46766  0.57473  0.65459  1.0000
  H   H1537     1.0  0.23777  0.52798  0.52849  1.0000
  H   H1538     1.0  0.36191  0.94207  0.74136  1.0000
  H   H1539     1.0  0.46686  0.94664  0.98047  1.0000
  H   H1540     1.0  0.34861  0.51552  0.57753  1.0000
  C   C858      1.0  0.45032  0.52068  0.49679  1.0000
  C   C859      1.0  0.27430  0.95462  0.64303  1.0000
  H   H1541     1.0  0.46278  0.51577  0.53773  1.0000
  Fe  Fe96      1.0  0.30694  0.97109  0.97582  1.0000
  H   H1542     1.0  0.32086  0.97286  0.93386  1.0000
  Fe  Fe97      1.0  0.29086  0.97909  0.93382  1.0000
  C   C860      1.0  0.33117  0.96729  0.87808  1.0000
  C   C861      1.0  0.23467  0.54914  0.56984  1.0000
  H   H1543     1.0  0.27701  0.95307  0.66105  1.0000
  H   H1544     1.0  0.23727  0.57565  0.55844  1.0000
  H   H1545     1.0  0.46717  0.72296  0.97868  1.0000
  H   H1546     1.0  0.44630  0.74818  0.97994  1.0000
  C   C862      1.0  0.45296  0.51781  0.53840  1.0000
  C   C863      1.0  0.24847  0.97491  0.72064  1.0000
  H   H1547     1.0  0.43866  0.84422  0.98821  1.0000
  H   H1548     1.0  0.32210  0.97114  0.87168  1.0000
  C   C864      1.0  0.44820  0.71510  0.98020  1.0000
  C   C865      1.0  0.25553  0.97852  0.67844  1.0000
  H   H1549     1.0  0.44092  0.75714  0.49107  1.0000
  C   C866      1.0  0.24466  0.97828  0.69583  1.0000
  H   H1550     1.0  0.45002  0.50358  0.55534  1.0000
  C   C867      1.0  0.26340  0.97244  0.79193  1.0000
  H   H1551     1.0  0.42751  0.48523  0.49092  1.0000
  C   C868      1.0  0.29286  0.98029  0.86654  1.0000
  H   H1552     1.0  0.35234  0.97034  0.97346  1.0000
  H   H1553     1.0  0.25389  0.97083  0.83702  1.0000
  H   H1554     1.0  0.35460  0.49528  0.49727  1.0000
  C   C869      1.0  0.35007  0.95023  0.98808  1.0000
  C   C870      1.0  0.43527  0.48993  0.52418  1.0000
  H   H1555     1.0  0.38568  0.97994  0.62509  1.0000
  N   N47       1.0  0.25292  0.98085  0.65318  1.0000
  S   S193      1.0  0.65778  0.04723  0.01371  1.0000
  H   H1556     1.0  0.57950  0.10677  0.23871  1.0000
  S   S194      1.0  0.48771  0.18789  0.05862  1.0000
  S   S195      1.0  0.49297  0.14971  0.17238  1.0000
  S   S196      1.0  0.48173  0.10861  0.11336  1.0000
  S   S197      1.0  0.65047  0.04239  0.23303  1.0000
  C   C871      1.0  0.48640  0.30961  0.13016  1.0000
  Fe  Fe98      1.0  0.66797  0.02842  0.24890  1.0000
  S   S198      1.0  0.68191  0.07476  0.25461  1.0000
  Fe  Fe99      1.0  0.52888  0.00967  0.26626  1.0000
  S   S199      1.0  0.52158  0.01678  0.30262  1.0000
  S   S200      1.0  0.51697  0.00986  0.23574  1.0000
  C   C872      1.0  0.70171  0.99748  0.28368  1.0000
  H   H1557     1.0  0.49667  0.19144  0.27469  1.0000
  C   C873      1.0  0.53875  0.09482  0.16590  1.0000
  H   H1558     1.0  0.65165  0.14066  0.08043  1.0000
  Fe  Fe100     1.0  0.53850  0.04809  0.30827  1.0000
  S   S201      1.0  0.54022  0.11314  0.31972  1.0000
  S   S202      1.0  0.54508  0.04437  0.27104  1.0000
  C   C874      1.0  0.51561  0.16070  0.01460  1.0000
  C   C875      1.0  0.57665  0.09119  0.25528  1.0000
  H   H1559     1.0  0.48620  0.16981  0.29456  1.0000
  Fe  Fe101     1.0  0.54476  0.27234  0.42248  1.0000
  S   S203      1.0  0.55443  0.28512  0.45414  1.0000
  S   S204      1.0  0.54300  0.20560  0.41364  1.0000
  Fe  Fe102     1.0  0.53871  0.36258  0.41359  1.0000
  S   S205      1.0  0.54817  0.38185  0.44403  1.0000
  S   S206      1.0  0.52783  0.40073  0.38795  1.0000
  Fe  Fe103     1.0  0.56267  0.33701  0.43346  1.0000
  S   S207      1.0  0.58283  0.33855  0.43668  1.0000
  Fe  Fe104     1.0  0.53954  0.32890  0.46328  1.0000
  S   S208      1.0  0.55388  0.32143  0.40109  1.0000
  S   S209      1.0  0.52914  0.31244  0.43351  1.0000
  Fe  Fe105     1.0  0.71447  0.19280  0.35031  1.0000
  S   S210      1.0  0.72168  0.19241  0.38589  1.0000
  S   S211      1.0  0.70019  0.14697  0.34572  1.0000
  Fe  Fe106     1.0  0.72084  0.26067  0.38160  1.0000
  S   S212      1.0  0.71694  0.30916  0.40791  1.0000
  S   S213      1.0  0.71231  0.26101  0.34766  1.0000
  H   H1560     1.0  0.69324  0.29353  0.48848  1.0000
  C   C876      1.0  0.68336  0.33620  0.45297  1.0000
  C   C877      1.0  0.68393  0.30274  0.43891  1.0000
  C   C878      1.0  0.69409  0.29412  0.42478  1.0000
  C   C879      1.0  0.70385  0.31856  0.42496  1.0000
  C   C880      1.0  0.70330  0.35179  0.43920  1.0000
  C   C881      1.0  0.69311  0.36056  0.45310  1.0000
  H   H1561     1.0  0.67649  0.28328  0.43899  1.0000
  H   H1562     1.0  0.69442  0.26838  0.41396  1.0000
  H   H1563     1.0  0.71082  0.37074  0.43953  1.0000
  H   H1564     1.0  0.69284  0.38566  0.46430  1.0000
  C   C882      1.0  0.59315  0.37240  0.44672  1.0000
  C   C883      1.0  0.59049  0.41368  0.44916  1.0000
  H   H1565     1.0  0.57327  0.14714  0.27188  1.0000
  C   C884      1.0  0.61007  0.42355  0.46373  1.0000
  C   C885      1.0  0.61280  0.38236  0.46098  1.0000
  C   C886      1.0  0.60440  0.35708  0.45252  1.0000
  H   H1566     1.0  0.67001  0.05733  0.15380  1.0000
  C   C887      1.0  0.67779  0.07604  0.14942  1.0000
  C   C888      1.0  0.54192  0.18072  0.38729  1.0000
  C   C889      1.0  0.54113  0.13821  0.38799  1.0000
  C   C890      1.0  0.54036  0.11701  0.36764  1.0000
  C   C891      1.0  0.54039  0.13809  0.34622  1.0000
  C   C892      1.0  0.54109  0.18057  0.34549  1.0000
  C   C893      1.0  0.54185  0.20177  0.36584  1.0000
  H   H1567     1.0  0.54115  0.12156  0.40446  1.0000
  H   H1568     1.0  0.53984  0.08438  0.36857  1.0000
  H   H1569     1.0  0.54112  0.19729  0.32906  1.0000
  H   H1570     1.0  0.54243  0.23440  0.36496  1.0000
  C   C894      1.0  0.68627  0.09663  0.28007  1.0000
  C   C895      1.0  0.68089  0.08746  0.30178  1.0000
  C   C896      1.0  0.68500  0.10439  0.32155  1.0000
  C   C897      1.0  0.69454  0.13048  0.31994  1.0000
  C   C898      1.0  0.69973  0.14037  0.29819  1.0000
  C   C899      1.0  0.69564  0.12340  0.27842  1.0000
  H   H1571     1.0  0.67360  0.06730  0.30333  1.0000
  H   H1572     1.0  0.68080  0.09713  0.33824  1.0000
  H   H1573     1.0  0.70701  0.16059  0.29662  1.0000
  H   H1574     1.0  0.69982  0.13093  0.26172  1.0000
  H   H1575     1.0  0.64548  0.00348  0.08747  1.0000
  H   H1576     1.0  0.53568  0.05999  0.19843  1.0000
  H   H1577     1.0  0.49168  0.01506  0.12979  1.0000
  H   H1578     1.0  0.68401  0.03273  0.38833  1.0000
  H   H1579     1.0  0.50420  0.08499  0.26707  1.0000
  H   H1580     1.0  0.49324  0.34329  0.43750  1.0000
  C   C900      1.0  0.49967  0.11013  0.18946  1.0000
  C   C901      1.0  0.50842  0.11971  0.20435  1.0000
  C   C902      1.0  0.51386  0.08944  0.21852  1.0000
  C   C903      1.0  0.51061  0.04919  0.21796  1.0000
  C   C904      1.0  0.50204  0.03949  0.20273  1.0000
  C   C905      1.0  0.49656  0.06977  0.18864  1.0000
  H   H1581     1.0  0.51096  0.15081  0.20497  1.0000
  H   H1582     1.0  0.52061  0.09707  0.22979  1.0000
  H   H1583     1.0  0.49949  0.00840  0.20210  1.0000
  C   C906      1.0  0.50866  0.44643  0.46503  1.0000
  C   C907      1.0  0.52023  0.12410  0.02399  1.0000
  C   C908      1.0  0.49327  0.24420  0.30765  1.0000
  C   C909      1.0  0.50565  0.17988  0.02543  1.0000
  C   C910      1.0  0.50015  0.16247  0.04554  1.0000
  C   C911      1.0  0.50461  0.12540  0.05460  1.0000
  C   C912      1.0  0.51467  0.10657  0.04400  1.0000
  H   H1584     1.0  0.58201  0.42625  0.44428  1.0000
  H   H1585     1.0  0.66257  0.45282  0.40319  1.0000
  H   H1586     1.0  0.50028  0.11123  0.06971  1.0000
  H   H1587     1.0  0.51810  0.07802  0.05119  1.0000
  H   H1588     1.0  0.48331  0.05006  0.06761  1.0000
  C   C913      1.0  0.49858  0.11296  0.26985  1.0000
  H   H1589     1.0  0.64738  0.40354  0.41610  1.0000
  H   H1590     1.0  0.53071  0.46647  0.41905  1.0000
  H   H1591     1.0  0.67930  0.06247  0.03836  1.0000
  H   H1592     1.0  0.50877  0.20605  0.31071  1.0000
  N   N48       1.0  0.67390  0.09597  0.08304  1.0000
  C   C914      1.0  0.68364  0.06711  0.07467  1.0000
  C   C915      1.0  0.67108  0.08790  0.10854  1.0000
  H   H1593     1.0  0.50012  0.07468  0.30756  1.0000
  C   C916      1.0  0.67687  0.13962  0.07781  1.0000
  C   C917      1.0  0.68804  0.15431  0.08837  1.0000
  C   C918      1.0  0.68690  0.06947  0.04842  1.0000
  N   N49       1.0  0.49265  0.05146  0.99563  1.0000
  C   C919      1.0  0.68145  0.07429  0.12383  1.0000
  H   H1594     1.0  0.49133  0.28213  0.12414  1.0000
  C   C920      1.0  0.69092  0.19699  0.07900  1.0000
  H   H1595     1.0  0.69470  0.32959  0.37527  1.0000
  C   C921      1.0  0.66305  0.08804  0.07021  1.0000
  H   H1596     1.0  0.68121  0.03541  0.07947  1.0000
  H   H1597     1.0  0.69190  0.07097  0.08345  1.0000
  H   H1598     1.0  0.66642  0.11481  0.11606  1.0000
  H   H1599     1.0  0.66485  0.06278  0.11129  1.0000
  H   H1600     1.0  0.51923  0.15123  0.30262  1.0000
  H   H1601     1.0  0.72575  0.02921  0.28881  1.0000
  H   H1602     1.0  0.67765  0.14618  0.05886  1.0000
  H   H1603     1.0  0.66954  0.16007  0.08407  1.0000
  H   H1604     1.0  0.69587  0.13439  0.08443  1.0000
  H   H1605     1.0  0.68654  0.15580  0.10731  1.0000
  C   C922      1.0  0.53327  0.16846  0.26488  1.0000
  H   H1606     1.0  0.68996  0.09997  0.04272  1.0000
  C   C923      1.0  0.69669  0.35413  0.36206  1.0000
  H   H1607     1.0  0.62183  0.01540  0.06259  1.0000
  H   H1608     1.0  0.68885  0.17396  0.00919  1.0000
  H   H1609     1.0  0.68926  0.09294  0.12045  1.0000
  C   C924      1.0  0.66874  0.42941  0.39567  1.0000
  H   H1610     1.0  0.49364  0.10118  0.35963  1.0000
  H   H1611     1.0  0.48085  0.09804  0.03358  1.0000
  H   H1612     1.0  0.69883  0.20719  0.08718  1.0000
  H   H1613     1.0  0.69282  0.19731  0.06007  1.0000
  H   H1614     1.0  0.68346  0.21868  0.08292  1.0000
  H   H1615     1.0  0.64869  0.09463  0.09711  1.0000
  H   H1616     1.0  0.51640  0.19899  0.26912  1.0000
  C   C925      1.0  0.68995  0.40928  0.38908  1.0000
  H   H1617     1.0  0.66417  0.09906  0.05189  1.0000
  H   H1618     1.0  0.51619  0.09467  0.32841  1.0000
  H   H1619     1.0  0.60508  0.00875  0.31074  1.0000
  C   C926      1.0  0.49914  0.20206  0.31072  1.0000
  H   H1620     1.0  0.51983  0.17459  0.99926  1.0000
  H   H1621     1.0  0.70152  0.22311  0.49009  1.0000
  H   H1622     1.0  0.48857  0.04902  0.24887  1.0000
  H   H1623     1.0  0.66816  0.39090  0.42755  1.0000
  H   H1624     1.0  0.53667  0.05337  0.08510  1.0000
  H   H1625     1.0  0.51114  0.37722  0.44180  1.0000
  H   H1626     1.0  0.68989  0.38429  0.40258  1.0000
  H   H1627     1.0  0.51156  0.05280  0.99785  1.0000
  H   H1628     1.0  0.55085  0.13063  0.07696  1.0000
  H   H1629     1.0  0.58196  0.06240  0.25724  1.0000
  C   C927      1.0  0.54317  0.07045  0.18695  1.0000
  H   H1630     1.0  0.50224  0.20847  0.01822  1.0000
  S   S214      1.0  0.62642  0.04348  0.99309  1.0000
  H   H1631     1.0  0.66179  0.05491  0.06980  1.0000
  H   H1632     1.0  0.72257  0.10319  0.28891  1.0000
  H   H1633     1.0  0.68406  0.42690  0.43153  1.0000
  H   H1634     1.0  0.67787  0.03344  0.36044  1.0000
  S   S215      1.0  0.62004  0.45691  0.47530  1.0000
  S   S216      1.0  0.67091  0.34404  0.47203  1.0000
  H   H1635     1.0  0.72500  0.06897  0.37716  1.0000
  H   H1636     1.0  0.68421  0.04239  0.12049  1.0000
  S   S217      1.0  0.65477  0.44890  0.45796  1.0000
  H   H1637     1.0  0.65394  0.99941  0.32533  1.0000
  C   C928      1.0  0.51927  0.05763  0.11899  1.0000
  H   H1638     1.0  0.50727  0.41897  0.42378  1.0000
  C   C929      1.0  0.65312  0.37904  0.40865  1.0000
  C   C930      1.0  0.69682  0.02058  0.36036  1.0000
  H   H1639     1.0  0.49353  0.33615  0.39575  1.0000
  H   H1640     1.0  0.58179  0.20710  0.99399  1.0000
  C   C931      1.0  0.69674  0.03856  0.04221  1.0000
  H   H1641     1.0  0.55702  0.07970  0.08183  1.0000
  C   C932      1.0  0.59886  0.43894  0.45768  1.0000
  H   H1642     1.0  0.48857  0.34162  0.09747  1.0000
  H   H1643     1.0  0.71798  0.35656  0.99209  1.0000
  C   C933      1.0  0.51982  0.16751  0.26675  1.0000
  C   C934      1.0  0.59051  0.99012  0.29179  1.0000
  C   C935      1.0  0.48551  0.10053  0.27074  1.0000
  C   C936      1.0  0.52158  0.45069  0.38954  1.0000
  C   C937      1.0  0.69820  0.47871  0.44751  1.0000
  H   H1644     1.0  0.63274  0.11192  0.07149  1.0000
  N   N50       1.0  0.57838  0.11741  0.31985  1.0000
  C   C938      1.0  0.57243  0.09649  0.34070  1.0000
  C   C939      1.0  0.57411  0.16128  0.31851  1.0000
  C   C940      1.0  0.57437  0.09813  0.29868  1.0000
  C   C941      1.0  0.59170  0.11372  0.31976  1.0000
  C   C942      1.0  0.59744  0.11080  0.34346  1.0000
  C   C943      1.0  0.57387  0.04964  0.34216  1.0000
  C   C944      1.0  0.57636  0.18687  0.33931  1.0000
  C   C945      1.0  0.57112  0.22993  0.33601  1.0000
  C   C946      1.0  0.61082  0.11375  0.34043  1.0000
  C   C947      1.0  0.56990  0.03218  0.36596  1.0000
  H   H1645     1.0  0.56281  0.10380  0.34118  1.0000
  H   H1646     1.0  0.57541  0.10802  0.35691  1.0000
  H   H1647     1.0  0.57833  0.17763  0.30329  1.0000
  H   H1648     1.0  0.56443  0.16312  0.31599  1.0000
  H   H1649     1.0  0.56456  0.09729  0.29915  1.0000
  H   H1650     1.0  0.59505  0.08621  0.31077  1.0000
  H   H1651     1.0  0.59562  0.13956  0.30945  1.0000
  H   H1652     1.0  0.59567  0.08130  0.35261  1.0000
  H   H1653     1.0  0.59409  0.13477  0.35491  1.0000
  H   H1654     1.0  0.56830  0.03665  0.32951  1.0000
  H   H1655     1.0  0.58311  0.03936  0.33825  1.0000
  H   H1656     1.0  0.57230  0.17366  0.35558  1.0000
  H   H1657     1.0  0.58594  0.18982  0.34094  1.0000
  S   S218      1.0  0.64985  0.00142  0.17144  1.0000
  H   H1658     1.0  0.60664  0.32531  0.45054  1.0000
  H   H1659     1.0  0.54881  0.09253  0.05665  1.0000
  H   H1660     1.0  0.61465  0.08929  0.32959  1.0000
  H   H1661     1.0  0.61318  0.14363  0.33227  1.0000
  H   H1662     1.0  0.61476  0.11054  0.35752  1.0000
  H   H1663     1.0  0.57551  0.04284  0.37932  1.0000
  H   H1664     1.0  0.56056  0.04143  0.37016  1.0000
  C   C948      1.0  0.61124  0.98946  0.27722  1.0000
  C   C949      1.0  0.69758  0.00145  0.33647  1.0000
  N   N51       1.0  0.52708  0.08724  0.12922  1.0000
  C   C950      1.0  0.53845  0.09156  0.11456  1.0000
  H   H1665     1.0  0.61323  0.03225  0.03865  1.0000
  C   C951      1.0  0.53016  0.07001  0.15278  1.0000
  C   C952      1.0  0.52094  0.12804  0.13226  1.0000
  C   C953      1.0  0.51576  0.14909  0.11054  1.0000
  C   C954      1.0  0.50769  0.04755  0.13302  1.0000
  C   C955      1.0  0.64761  0.00188  0.12432  1.0000
  C   C956      1.0  0.50006  0.02083  0.11965  1.0000
  H   H1666     1.0  0.52634  0.99648  0.99848  1.0000
  C   C957      1.0  0.50994  0.19021  0.11586  1.0000
  H   H1667     1.0  0.68272  0.22054  0.99656  1.0000
  C   C958      1.0  0.49034  0.04349  0.02123  1.0000
  H   H1668     1.0  0.50104  0.05458  0.35055  1.0000
  H   H1669     1.0  0.60298  0.07585  0.00266  1.0000
  H   H1670     1.0  0.54224  0.12161  0.11677  1.0000
  H   H1671     1.0  0.50833  0.33957  0.40490  1.0000
  S   S219      1.0  0.53314  0.09991  0.01198  1.0000
  H   H1672     1.0  0.52214  0.06766  0.16452  1.0000
  H   H1673     1.0  0.51372  0.12580  0.14583  1.0000
  H   H1674     1.0  0.52709  0.14966  0.13877  1.0000
  H   H1675     1.0  0.50894  0.13055  0.10380  1.0000
  H   H1676     1.0  0.52278  0.15505  0.09706  1.0000
  H   H1677     1.0  0.64285  0.11302  0.04658  1.0000
  H   H1678     1.0  0.50247  0.07549  0.13709  1.0000
  H   H1679     1.0  0.53414  0.12277  0.17212  1.0000
  C   C959      1.0  0.65131  0.99536  0.10115  1.0000
  C   C960      1.0  0.68277  0.47843  0.37881  1.0000
  H   H1680     1.0  0.53070  0.10378  0.08050  1.0000
  H   H1681     1.0  0.51116  0.44465  0.36012  1.0000
  C   C961      1.0  0.64119  0.09897  0.06413  1.0000
  H   H1682     1.0  0.48983  0.06192  0.17734  1.0000
  H   H1683     1.0  0.51654  0.21116  0.12135  1.0000
  H   H1684     1.0  0.50588  0.20378  0.10019  1.0000
  H   H1685     1.0  0.50293  0.18676  0.12970  1.0000
  H   H1686     1.0  0.57027  0.46960  0.47375  1.0000
  H   H1687     1.0  0.48330  0.08069  0.28616  1.0000
  C   C962      1.0  0.52887  0.45308  0.48077  1.0000
  H   H1688     1.0  0.54658  0.10377  0.15495  1.0000
  H   H1689     1.0  0.69152  0.02022  0.32563  1.0000
  H   H1690     1.0  0.72895  0.10439  0.31670  1.0000
  H   H1691     1.0  0.57911  0.26453  0.47829  1.0000
  H   H1692     1.0  0.49598  0.18919  0.32780  1.0000
  H   H1693     1.0  0.69653  0.98819  0.24912  1.0000
  C   C963      1.0  0.68366  0.45435  0.41985  1.0000
  H   H1694     1.0  0.56149  0.22954  0.33384  1.0000
  H   H1695     1.0  0.50114  0.38278  0.39060  1.0000
  H   H1696     1.0  0.57540  0.24581  0.32071  1.0000
  C   C964      1.0  0.51558  0.13898  0.28724  1.0000
  H   H1697     1.0  0.50897  0.14088  0.33711  1.0000
  C   C965      1.0  0.49580  0.17430  0.29161  1.0000
  H   H1698     1.0  0.70599  0.36259  0.36322  1.0000
  H   H1699     1.0  0.57761  0.06603  0.29833  1.0000
  H   H1700     1.0  0.56796  0.39406  0.47402  1.0000
  H   H1701     1.0  0.49260  0.32846  0.13868  1.0000
  C   C966      1.0  0.57847  0.11847  0.27515  1.0000
  H   H1702     1.0  0.49787  0.03595  0.10288  1.0000
  C   C967      1.0  0.51936  0.42375  0.47592  1.0000
  H   H1703     1.0  0.65073  0.37485  0.39070  1.0000
  H   H1704     1.0  0.52013  0.10876  0.28533  1.0000
  Fe  Fe107     1.0  0.55397  0.98539  0.28247  1.0000
  H   H1705     1.0  0.49977  0.13249  0.25389  1.0000
  S   S220      1.0  0.54808  0.99010  0.31982  1.0000
  C   C968      1.0  0.49954  0.10725  0.31182  1.0000
  H   H1706     1.0  0.52425  0.02835  0.11651  1.0000
  H   H1707     1.0  0.49795  0.05301  0.03070  1.0000
  H   H1708     1.0  0.58119  0.33875  0.48539  1.0000
  Fe  Fe108     1.0  0.65553  0.99183  0.20904  1.0000
  H   H1709     1.0  0.68769  0.22748  0.47634  1.0000
  H   H1710     1.0  0.67134  0.36314  0.40208  1.0000
  N   N52       1.0  0.50244  0.13402  0.29053  1.0000
  H   H1711     1.0  0.57257  0.24729  0.35143  1.0000
  H   H1712     1.0  0.69390  0.00732  0.04698  1.0000
  H   H1713     1.0  0.50956  0.03040  0.14936  1.0000
  H   H1714     1.0  0.70724  0.05930  0.31005  1.0000
  C   C969      1.0  0.50224  0.08687  0.35402  1.0000
  H   H1715     1.0  0.49023  0.11304  0.31807  1.0000
  H   H1716     1.0  0.54529  0.06881  0.12040  1.0000
  H   H1717     1.0  0.48976  0.01067  0.02574  1.0000
  C   C970      1.0  0.68442  0.01780  0.37161  1.0000
  H   H1718     1.0  0.53666  0.17992  0.28081  1.0000
  H   H1719     1.0  0.53611  0.18885  0.25008  1.0000
  H   H1720     1.0  0.51696  0.15767  0.25012  1.0000
  H   H1721     1.0  0.48323  0.10979  0.99457  1.0000
  H   H1722     1.0  0.50834  0.08800  0.36826  1.0000
  H   H1723     1.0  0.66601  0.42693  0.37773  1.0000
  H   H1724     1.0  0.49028  0.35295  0.01938  1.0000
  H   H1725     1.0  0.67559  0.10774  0.15403  1.0000
  H   H1726     1.0  0.70553  0.02676  0.27773  1.0000
  H   H1727     1.0  0.60628  0.00619  0.06355  1.0000
  C   C971      1.0  0.50356  0.39767  0.43732  1.0000
  C   C972      1.0  0.49481  0.37080  0.42622  1.0000
  H   H1728     1.0  0.62136  0.36993  0.46547  1.0000
  H   H1729     1.0  0.56722  0.08418  0.25461  1.0000
  C   C973      1.0  0.49978  0.35650  0.40298  1.0000
  H   H1730     1.0  0.59665  0.47076  0.45953  1.0000
  H   H1731     1.0  0.53393  0.03851  0.15145  1.0000
  H   H1732     1.0  0.70132  0.44826  0.45388  1.0000
  H   H1733     1.0  0.58795  0.12536  0.27469  1.0000
  H   H1734     1.0  0.53718  0.13766  0.26214  1.0000
  Fe  Fe109     1.0  0.63962  0.45224  0.48422  1.0000
  H   H1735     1.0  0.51669  0.06856  0.10157  1.0000
  H   H1736     1.0  0.57062  0.99858  0.36618  1.0000
  H   H1737     1.0  0.49638  0.25923  0.29106  1.0000
  H   H1738     1.0  0.67620  0.47299  0.42737  1.0000
  C   C974      1.0  0.65119  0.10737  0.07961  1.0000
  C   C975      1.0  0.50748  0.10945  0.33260  1.0000
  C   C976      1.0  0.71393  0.04063  0.31941  1.0000
  H   H1739     1.0  0.70484  0.04442  0.05117  1.0000
  C   C977      1.0  0.54940  0.09791  0.07525  1.0000
  H   H1740     1.0  0.71490  0.05648  0.33559  1.0000
  C   C978      1.0  0.72899  0.08793  0.30050  1.0000
  Fe  Fe110     1.0  0.66361  0.40568  0.48305  1.0000
  H   H1741     1.0  0.69019  0.41320  0.35119  1.0000
  H   H1742     1.0  0.69887  0.05317  0.35856  1.0000
  Fe  Fe111     1.0  0.64302  0.99394  0.25779  1.0000
  S   S221      1.0  0.66025  0.98444  0.27554  1.0000
  H   H1743     1.0  0.69566  0.34220  0.34481  1.0000
  C   C979      1.0  0.68827  0.39073  0.36555  1.0000
  H   H1744     1.0  0.63894  0.01521  0.12817  1.0000
  H   H1745     1.0  0.66073  0.99016  0.35237  1.0000
  C   C980      1.0  0.48856  0.44839  0.45250  1.0000
  C   C981      1.0  0.50765  0.99010  0.99314  1.0000
  H   H1746     1.0  0.70277  0.46398  0.41279  1.0000
  C   C982      1.0  0.51333  0.46436  0.37344  1.0000
  H   H1747     1.0  0.64029  0.06584  0.06278  1.0000
  H   H1748     1.0  0.65148  0.35053  0.41903  1.0000
  H   H1749     1.0  0.70449  0.22357  0.99894  1.0000
  H   H1750     1.0  0.49559  0.26320  0.32185  1.0000
  H   H1751     1.0  0.50469  0.99127  0.11651  1.0000
  Fe  Fe112     1.0  0.66259  0.98589  0.02961  1.0000
  H   H1752     1.0  0.54860  0.04360  0.18154  1.0000
  H   H1753     1.0  0.69241  0.00334  0.28970  1.0000
  H   H1754     1.0  0.50216  0.36465  0.47827  1.0000
  H   H1755     1.0  0.67920  0.38035  0.36420  1.0000
  H   H1756     1.0  0.54867  0.08962  0.19688  1.0000
  H   H1757     1.0  0.69911  0.41993  0.38825  1.0000
  H   H1758     1.0  0.69881  0.04068  0.02333  1.0000
  N   N53       1.0  0.68127  0.44289  0.39579  1.0000
  C   C983      1.0  0.66611  0.38898  0.40929  1.0000
  H   H1759     1.0  0.49796  0.11137  0.00297  1.0000
  C   C984      1.0  0.53796  0.08574  0.08826  1.0000
  H   H1760     1.0  0.68512  0.06407  0.15996  1.0000
  H   H1761     1.0  0.55557  0.45526  0.46881  1.0000
  N   N54       1.0  0.49894  0.42033  0.45800  1.0000
  C   C985      1.0  0.68851  0.19347  0.99314  1.0000
  H   H1762     1.0  0.48465  0.09627  0.23358  1.0000
  C   C986      1.0  0.61440  0.00772  0.05215  1.0000
  H   H1763     1.0  0.58398  0.99541  0.30554  1.0000
  H   H1764     1.0  0.53246  0.46781  0.46446  1.0000
  C   C987      1.0  0.48307  0.37535  0.47988  1.0000
  H   H1765     1.0  0.48633  0.38713  0.42307  1.0000
  C   C988      1.0  0.60251  0.99725  0.29474  1.0000
  H   H1766     1.0  0.72057  0.99439  0.35426  1.0000
  H   H1767     1.0  0.48555  0.46493  0.46810  1.0000
  S   S222      1.0  0.62629  0.99865  0.28205  1.0000
  H   H1768     1.0  0.52343  0.40090  0.46439  1.0000
  C   C989      1.0  0.48297  0.07728  0.24961  1.0000
  C   C990      1.0  0.65498  0.99124  0.14258  1.0000
  H   H1769     1.0  0.49340  0.46565  0.41616  1.0000
  C   C991      1.0  0.49073  0.48040  0.43243  1.0000
  H   H1770     1.0  0.50512  0.46867  0.47766  1.0000
  C   C992      1.0  0.49579  0.39120  0.47805  1.0000
  H   H1771     1.0  0.68076  0.46987  0.36125  1.0000
  C   C993      1.0  0.69508  0.47774  0.42235  1.0000
  C   C994      1.0  0.56237  0.45473  0.48181  1.0000
  C   C995      1.0  0.72592  0.04371  0.30556  1.0000
  H   H1772     1.0  0.68208  0.98564  0.37482  1.0000
  Fe  Fe113     1.0  0.64532  0.01515  0.99215  1.0000
  N   N55       1.0  0.70969  0.99838  0.32469  1.0000
  H   H1773     1.0  0.48353  0.24225  0.30805  1.0000
  H   H1774     1.0  0.70298  0.00524  0.37238  1.0000
  H   H1775     1.0  0.72861  0.99112  0.46549  1.0000
  H   H1776     1.0  0.72896  0.02701  0.41339  1.0000
  H   H1777     1.0  0.48085  0.43141  0.44809  1.0000
  C   C996      1.0  0.48118  0.33386  0.10986  1.0000
  H   H1778     1.0  0.48523  0.30281  0.01483  1.0000
  H   H1779     1.0  0.48364  0.34714  0.06157  1.0000
  C   C997      1.0  0.48255  0.33545  0.01542  1.0000
  H   H1780     1.0  0.60484  0.98240  0.01536  1.0000
  C   C998      1.0  0.52433  0.47648  0.40666  1.0000
  H   H1781     1.0  0.72934  0.36539  0.34466  1.0000
  H   H1782     1.0  0.51232  0.46466  0.44995  1.0000
  H   H1783     1.0  0.53618  0.43601  0.48927  1.0000
  H   H1784     1.0  0.48773  0.31284  0.49018  1.0000
  C   C999      1.0  0.56543  0.41094  0.48965  1.0000
  H   H1785     1.0  0.48045  0.29653  0.05687  1.0000
  H   H1786     1.0  0.72220  0.98127  0.43878  1.0000
  C   C1000     1.0  0.49229  0.09687  0.99101  1.0000
  Fe  Fe114     1.0  0.55522  0.44053  0.79310  1.0000
  S   S223      1.0  0.54752  0.44450  0.82956  1.0000
  S   S224      1.0  0.57492  0.42501  0.78557  1.0000
  Fe  Fe115     1.0  0.53067  0.44239  0.77319  1.0000
  S   S225      1.0  0.52146  0.44616  0.80829  1.0000
  S   S226      1.0  0.51974  0.44788  0.74108  1.0000
  C   C1001     1.0  0.50589  0.13314  0.56522  1.0000
  Fe  Fe116     1.0  0.53480  0.39816  0.82028  1.0000
  S   S227      1.0  0.52766  0.34286  0.84147  1.0000
  H   H1787     1.0  0.71536  0.37713  0.83452  1.0000
  S   S228      1.0  0.54300  0.39162  0.78455  1.0000
  Fe  Fe117     1.0  0.71355  0.21668  0.87256  1.0000
  S   S229      1.0  0.72017  0.20526  0.83613  1.0000
  S   S230      1.0  0.69649  0.18902  0.88737  1.0000
  H   H1788     1.0  0.65888  0.45015  0.81873  1.0000
  S   S231      1.0  0.71776  0.31449  0.80044  1.0000
  S   S232      1.0  0.71404  0.28455  0.86709  1.0000
  H   H1789     1.0  0.59879  0.39547  0.77895  1.0000
  H   H1790     1.0  0.48384  0.16446  0.96449  1.0000
  H   H1791     1.0  0.66488  0.47137  0.84333  1.0000
  Fe  Fe118     1.0  0.54638  0.14785  0.92711  1.0000
  S   S233      1.0  0.55654  0.13087  0.95884  1.0000
  S   S234      1.0  0.55214  0.20711  0.90806  1.0000
  Fe  Fe119     1.0  0.53424  0.06541  0.92995  1.0000
  S   S235      1.0  0.54424  0.04310  0.96058  1.0000
  Fe  Fe120     1.0  0.53968  0.10461  0.97415  1.0000
  Fe  Fe121     1.0  0.56031  0.07103  0.94302  1.0000
  S   S236      1.0  0.57882  0.04055  0.93855  1.0000
  S   S237      1.0  0.52922  0.12661  0.94405  1.0000
  S   S238      1.0  0.55062  0.08821  0.91074  1.0000
  S   S239      1.0  0.64792  0.40583  0.50833  1.0000
  S   S240      1.0  0.48565  0.26233  0.62997  1.0000
  H   H1792     1.0  0.61401  0.42462  0.54215  1.0000
  S   S241      1.0  0.50313  0.31967  0.67163  1.0000
  H   H1793     1.0  0.69275  0.03086  0.90790  1.0000
  H   H1794     1.0  0.59984  0.45500  0.71071  1.0000
  S   S242      1.0  0.65074  0.43708  0.71831  1.0000
  H   H1795     1.0  0.57451  0.35294  0.72432  1.0000
  Fe  Fe122     1.0  0.66240  0.43305  0.74870  1.0000
  S   S243      1.0  0.66689  0.37505  0.76946  1.0000
  C   C1002     1.0  0.52096  0.32328  0.51709  1.0000
  C   C1003     1.0  0.51815  0.33947  0.53869  1.0000
  C   C1004     1.0  0.50837  0.32622  0.55259  1.0000
  C   C1005     1.0  0.50131  0.29625  0.54512  1.0000
  C   C1006     1.0  0.50410  0.28011  0.52347  1.0000
  C   C1007     1.0  0.51380  0.29374  0.50944  1.0000
  H   H1796     1.0  0.52362  0.36232  0.54480  1.0000
  H   H1797     1.0  0.50636  0.33892  0.56918  1.0000
  H   H1798     1.0  0.49873  0.25682  0.51754  1.0000
  H   H1799     1.0  0.49807  0.17470  0.97514  1.0000
  C   C1008     1.0  0.68958  0.27194  0.50187  1.0000
  H   H1800     1.0  0.49366  0.29127  0.73662  1.0000
  H   H1801     1.0  0.68770  0.40417  0.53343  1.0000
  C   C1009     1.0  0.55003  0.39011  0.68326  1.0000
  H   H1802     1.0  0.70592  0.29640  0.97903  1.0000
  C   C1010     1.0  0.55933  0.36065  0.54146  1.0000
  C   C1011     1.0  0.61341  0.04329  0.97712  1.0000
  C   C1012     1.0  0.59229  0.06135  0.97479  1.0000
  C   C1013     1.0  0.59200  0.04285  0.95373  1.0000
  C   C1014     1.0  0.60253  0.02505  0.94433  1.0000
  C   C1015     1.0  0.61315  0.02519  0.95592  1.0000
  C   C1016     1.0  0.48366  0.03327  0.98130  1.0000
  H   H1803     1.0  0.59707  0.36528  0.50336  1.0000
  C   C1017     1.0  0.69432  0.15423  0.91124  1.0000
  C   C1018     1.0  0.70355  0.14052  0.92487  1.0000
  C   C1019     1.0  0.70122  0.11616  0.94502  1.0000
  C   C1020     1.0  0.68975  0.10363  0.95115  1.0000
  C   C1021     1.0  0.68061  0.11582  0.93695  1.0000
  C   C1022     1.0  0.68287  0.14140  0.91725  1.0000
  H   H1804     1.0  0.71243  0.14921  0.91999  1.0000
  H   H1805     1.0  0.70833  0.10713  0.95592  1.0000
  H   H1806     1.0  0.67173  0.10657  0.94148  1.0000
  H   H1807     1.0  0.67569  0.15165  0.90671  1.0000
  C   C1023     1.0  0.70350  0.33346  0.79358  1.0000
  C   C1024     1.0  0.69328  0.31785  0.80447  1.0000
  C   C1025     1.0  0.68211  0.33175  0.79735  1.0000
  C   C1026     1.0  0.68103  0.36183  0.77960  1.0000
  C   C1027     1.0  0.69124  0.37845  0.76926  1.0000
  C   C1028     1.0  0.70241  0.36410  0.77609  1.0000
  H   H1808     1.0  0.69399  0.29419  0.81789  1.0000
  H   H1809     1.0  0.67427  0.31849  0.80537  1.0000
  H   H1810     1.0  0.69052  0.40150  0.75555  1.0000
  H   H1811     1.0  0.71028  0.37635  0.76760  1.0000
  C   C1029     1.0  0.53476  0.30499  0.85951  1.0000
  C   C1030     1.0  0.52815  0.27272  0.86936  1.0000
  C   C1031     1.0  0.53329  0.24233  0.88402  1.0000
  C   C1032     1.0  0.54515  0.24387  0.88917  1.0000
  C   C1033     1.0  0.55177  0.27602  0.87921  1.0000
  C   C1034     1.0  0.54665  0.30627  0.86446  1.0000
  H   H1812     1.0  0.51895  0.27135  0.86574  1.0000
  H   H1813     1.0  0.52805  0.21799  0.89152  1.0000
  H   H1814     1.0  0.56093  0.27770  0.88303  1.0000
  H   H1815     1.0  0.55187  0.33081  0.85712  1.0000
  C   C1035     1.0  0.51541  0.41199  0.72164  1.0000
  C   C1036     1.0  0.50624  0.42270  0.70694  1.0000
  C   C1037     1.0  0.50235  0.39497  0.69154  1.0000
  C   C1038     1.0  0.50771  0.35626  0.69044  1.0000
  C   C1039     1.0  0.51701  0.34582  0.70490  1.0000
  C   C1040     1.0  0.52084  0.37346  0.72040  1.0000
  H   H1816     1.0  0.50203  0.45255  0.70761  1.0000
  H   H1817     1.0  0.49522  0.40356  0.68049  1.0000
  H   H1818     1.0  0.52123  0.31599  0.70418  1.0000
  H   H1819     1.0  0.52787  0.36478  0.73157  1.0000
  C   C1041     1.0  0.66606  0.47682  0.63825  1.0000
  H   H1820     1.0  0.61688  0.42505  0.76031  1.0000
  C   C1042     1.0  0.59842  0.42624  0.77172  1.0000
  H   H1821     1.0  0.52514  0.07729  0.83798  1.0000
  H   H1822     1.0  0.55363  0.38382  0.64639  1.0000
  C   C1043     1.0  0.57650  0.33421  0.50249  1.0000
  C   C1044     1.0  0.58825  0.40567  0.70523  1.0000
  C   C1045     1.0  0.59224  0.36689  0.52052  1.0000
  H   H1823     1.0  0.55516  0.38965  0.53514  1.0000
  C   C1046     1.0  0.65908  0.46287  0.59275  1.0000
  C   C1047     1.0  0.55647  0.34459  0.73350  1.0000
  C   C1048     1.0  0.55886  0.31220  0.75252  1.0000
  C   C1049     1.0  0.69705  0.35042  0.52014  1.0000
  H   H1824     1.0  0.63110  0.14725  0.92911  1.0000
  H   H1825     1.0  0.49410  0.36533  0.73815  1.0000
  C   C1050     1.0  0.67737  0.46311  0.81403  1.0000
  C   C1051     1.0  0.48709  0.32807  0.79364  1.0000
  H   H1826     1.0  0.54488  0.37378  0.69714  1.0000
  H   H1827     1.0  0.54824  0.36148  0.73853  1.0000
  H   H1828     1.0  0.55521  0.32840  0.71762  1.0000
  H   H1829     1.0  0.55119  0.29245  0.75523  1.0000
  H   H1830     1.0  0.56675  0.29301  0.74770  1.0000
  H   H1831     1.0  0.56032  0.32635  0.76901  1.0000
  H   H1832     1.0  0.59523  0.43231  0.52366  1.0000
  H   H1833     1.0  0.48586  0.29562  0.79053  1.0000
  C   C1052     1.0  0.65490  0.46233  0.63483  1.0000
  H   H1834     1.0  0.57641  0.45656  0.69802  1.0000
  C   C1053     1.0  0.58765  0.44871  0.77280  1.0000
  C   C1054     1.0  0.60872  0.44297  0.76121  1.0000
  H   H1835     1.0  0.72854  0.02298  0.98629  1.0000
  C   C1055     1.0  0.57682  0.43101  0.71116  1.0000
  Fe  Fe123     1.0  0.65654  0.45713  0.52459  1.0000
  H   H1836     1.0  0.69953  0.45127  0.66832  1.0000
  C   C1056     1.0  0.48402  0.12610  0.57624  1.0000
  H   H1837     1.0  0.48771  0.10066  0.58701  1.0000
  H   H1838     1.0  0.72740  0.00246  0.94582  1.0000
  H   H1839     1.0  0.49205  0.17331  0.55330  1.0000
  N   N56       1.0  0.71219  0.25187  0.95447  1.0000
  C   C1057     1.0  0.71064  0.26886  0.93023  1.0000
  H   H1840     1.0  0.50576  0.10727  0.96314  1.0000
  H   H1841     1.0  0.69370  0.01070  0.94925  1.0000
  H   H1842     1.0  0.49368  0.14550  0.61890  1.0000
  N   N57       1.0  0.57909  0.36845  0.51751  1.0000
  C   C1058     1.0  0.70029  0.30064  0.92719  1.0000
  C   C1059     1.0  0.69994  0.44817  0.68736  1.0000
  C   C1060     1.0  0.48845  0.34948  0.75168  1.0000
  C   C1061     1.0  0.60292  0.06162  0.98633  1.0000
  H   H1843     1.0  0.55630  0.37654  0.57731  1.0000
  H   H1844     1.0  0.71337  0.02916  0.94392  1.0000
  H   H1845     1.0  0.62520  0.41311  0.80280  1.0000
  H   H1846     1.0  0.70965  0.24382  0.91838  1.0000
  C   C1062     1.0  0.50195  0.01096  0.84819  1.0000
  H   H1847     1.0  0.67683  0.46398  0.79503  1.0000
  H   H1848     1.0  0.49272  0.01796  0.80208  1.0000
  H   H1849     1.0  0.69858  0.20989  0.94870  1.0000
  C   C1063     1.0  0.68647  0.00907  0.91627  1.0000
  H   H1850     1.0  0.61318  0.37019  0.54379  1.0000
  Fe  Fe124     1.0  0.48243  0.29978  0.59749  1.0000
  H   H1851     1.0  0.70496  0.98377  0.97674  1.0000
  H   H1852     1.0  0.55786  0.32256  0.57308  1.0000
  H   H1853     1.0  0.69708  0.31348  0.94370  1.0000
  H   H1854     1.0  0.72788  0.30892  0.57773  1.0000
  H   H1855     1.0  0.53531  0.98645  0.89039  1.0000
  H   H1856     1.0  0.64884  0.45686  0.64950  1.0000
  H   H1857     1.0  0.69727  0.34344  0.61408  1.0000
  H   H1858     1.0  0.51036  0.30632  0.80684  1.0000
  S   S244      1.0  0.65414  0.45393  0.56461  1.0000
  H   H1859     1.0  0.68262  0.30751  0.91472  1.0000
  C   C1064     1.0  0.48345  0.14799  0.65082  1.0000
  H   H1860     1.0  0.70213  0.45410  0.51995  1.0000
  C   C1065     1.0  0.71916  0.01121  0.95567  1.0000
  C   C1066     1.0  0.71277  0.30942  0.55644  1.0000
  H   H1861     1.0  0.49061  0.13233  0.66045  1.0000
  H   H1862     1.0  0.69321  0.25076  0.53678  1.0000
  H   H1863     1.0  0.50859  0.04895  0.81840  1.0000
  C   C1067     1.0  0.62465  0.47862  0.80362  1.0000
  H   H1864     1.0  0.72258  0.46366  0.81995  1.0000
  H   H1865     1.0  0.63417  0.10717  0.90954  1.0000
  C   C1068     1.0  0.67499  0.34299  0.56263  1.0000
  H   H1866     1.0  0.52529  0.47664  0.49245  1.0000
  H   H1867     1.0  0.71615  0.34405  0.58622  1.0000
  C   C1069     1.0  0.66156  0.34750  0.56382  1.0000
  N   N58       1.0  0.49450  0.34758  0.77423  1.0000
  S   S245      1.0  0.48890  0.27823  0.56200  1.0000
  H   H1868     1.0  0.69152  0.35352  0.50490  1.0000
  H   H1869     1.0  0.70345  0.30756  0.63492  1.0000
  H   H1870     1.0  0.55739  0.39750  0.49780  1.0000
  C   C1070     1.0  0.59844  0.43284  0.69750  1.0000
  H   H1871     1.0  0.51900  0.01026  0.82854  1.0000
  C   C1071     1.0  0.66499  0.47275  0.82423  1.0000
  C   C1072     1.0  0.70095  0.20599  0.98527  1.0000
  H   H1872     1.0  0.58235  0.12389  0.85956  1.0000
  H   H1873     1.0  0.48402  0.18109  0.65261  1.0000
  C   C1073     1.0  0.61060  0.39827  0.53377  1.0000
  H   H1874     1.0  0.65851  0.36327  0.57960  1.0000
  H   H1875     1.0  0.67990  0.27732  0.50374  1.0000
  H   H1876     1.0  0.71814  0.42689  0.80038  1.0000
  S   S246      1.0  0.67294  0.45367  0.50051  1.0000
  C   C1074     1.0  0.56315  0.39412  0.68896  1.0000
  H   H1877     1.0  0.49664  0.03511  0.85704  1.0000
  H   H1878     1.0  0.52135  0.04779  0.86397  1.0000
  H   H1879     1.0  0.68654  0.23756  0.74451  1.0000
  H   H1880     1.0  0.50530  0.11126  0.55149  1.0000
  C   C1075     1.0  0.48470  0.13751  0.62552  1.0000
  C   C1076     1.0  0.70368  0.44860  0.82327  1.0000
  H   H1881     1.0  0.59495  0.33902  0.53064  1.0000
  H   H1882     1.0  0.69662  0.45501  0.78184  1.0000
  H   H1883     1.0  0.68524  0.26813  0.70516  1.0000
  C   C1077     1.0  0.51197  0.03259  0.83394  1.0000
  C   C1078     1.0  0.67960  0.32016  0.54103  1.0000
  H   H1884     1.0  0.48506  0.34581  0.51394  1.0000
  H   H1885     1.0  0.55737  0.44403  0.73982  1.0000
  H   H1886     1.0  0.57607  0.08629  0.87992  1.0000
  H   H1887     1.0  0.56902  0.38418  0.74669  1.0000
  C   C1079     1.0  0.51776  0.06311  0.84828  1.0000
  H   H1888     1.0  0.58341  0.42022  0.49473  1.0000
  H   H1889     1.0  0.48758  0.02784  0.96371  1.0000
  C   C1080     1.0  0.57289  0.36404  0.54099  1.0000
  C   C1081     1.0  0.69691  0.39304  0.53004  1.0000
  H   H1890     1.0  0.71870  0.28355  0.92311  1.0000
  H   H1891     1.0  0.48175  0.11195  0.56013  1.0000
  H   H1892     1.0  0.70353  0.32661  0.91605  1.0000
  H   H1893     1.0  0.59798  0.28713  0.91038  1.0000
  C   C1082     1.0  0.70282  0.42341  0.51292  1.0000
  C   C1083     1.0  0.54898  0.36769  0.66117  1.0000
  C   C1084     1.0  0.62920  0.43690  0.81237  1.0000
  H   H1894     1.0  0.49156  0.09607  0.95316  1.0000
  H   H1895     1.0  0.71911  0.27011  0.98613  1.0000
  H   H1896     1.0  0.70884  0.98149  0.91879  1.0000
  C   C1085     1.0  0.70094  0.23092  0.96198  1.0000
  C   C1086     1.0  0.72553  0.34596  0.98078  1.0000
  H   H1897     1.0  0.50700  0.04175  0.97012  1.0000
  H   H1898     1.0  0.57453  0.39051  0.55129  1.0000
  H   H1899     1.0  0.62112  0.01126  0.94844  1.0000
  H   H1900     1.0  0.57664  0.33751  0.55098  1.0000
  C   C1087     1.0  0.68983  0.28399  0.91559  1.0000
  H   H1901     1.0  0.51130  0.08743  0.85354  1.0000
  C   C1088     1.0  0.57579  0.25883  0.49643  1.0000
  Fe  Fe125     1.0  0.48790  0.32110  0.64706  1.0000
  C   C1089     1.0  0.72210  0.22010  0.95414  1.0000
  H   H1902     1.0  0.49506  0.17782  0.58293  1.0000
  S   S247      1.0  0.68712  0.07531  0.97748  1.0000
  N   N59       1.0  0.59522  0.16179  0.92049  1.0000
  C   C1090     1.0  0.60628  0.14238  0.93004  1.0000
  C   C1091     1.0  0.58593  0.16552  0.93989  1.0000
  C   C1092     1.0  0.59073  0.13339  0.90363  1.0000
  C   C1093     1.0  0.59718  0.20247  0.90810  1.0000
  C   C1094     1.0  0.60699  0.22849  0.91674  1.0000
  C   C1095     1.0  0.61582  0.12793  0.91192  1.0000
  C   C1096     1.0  0.57848  0.14493  0.89420  1.0000
  C   C1097     1.0  0.58896  0.19107  0.96022  1.0000
  H   H1903     1.0  0.72535  0.05933  0.75771  1.0000
  H   H1904     1.0  0.50179  0.47346  0.77768  1.0000
  H   H1905     1.0  0.53953  0.36612  0.65742  1.0000
  H   H1906     1.0  0.51271  0.15522  0.55962  1.0000
  H   H1907     1.0  0.60406  0.11534  0.94135  1.0000
  H   H1908     1.0  0.61047  0.16272  0.94150  1.0000
  H   H1909     1.0  0.57763  0.17985  0.93346  1.0000
  H   H1910     1.0  0.58361  0.13473  0.94699  1.0000
  H   H1911     1.0  0.59027  0.10211  0.91153  1.0000
  H   H1912     1.0  0.59698  0.13112  0.88834  1.0000
  H   H1913     1.0  0.59950  0.19877  0.88946  1.0000
  H   H1914     1.0  0.58880  0.22114  0.90837  1.0000
  H   H1915     1.0  0.61581  0.21477  0.91219  1.0000
  H   H1916     1.0  0.60633  0.23116  0.93561  1.0000
  H   H1917     1.0  0.61314  0.09935  0.90472  1.0000
  H   H1918     1.0  0.61702  0.15082  0.89749  1.0000
  H   H1919     1.0  0.57790  0.17720  0.88804  1.0000
  H   H1920     1.0  0.57147  0.13969  0.90788  1.0000
  H   H1921     1.0  0.61481  0.39737  0.51612  1.0000
  C   C1098     1.0  0.55480  0.47861  0.70787  1.0000
  C   C1099     1.0  0.55584  0.43720  0.72164  1.0000
  C   C1100     1.0  0.65149  0.45524  0.61233  1.0000
  H   H1922     1.0  0.57413  0.43246  0.51887  1.0000
  C   C1101     1.0  0.48216  0.33855  0.49672  1.0000
  H   H1923     1.0  0.59735  0.18051  0.96773  1.0000
  H   H1924     1.0  0.65751  0.31744  0.56432  1.0000
  H   H1925     1.0  0.72876  0.01271  0.79109  1.0000
  C   C1102     1.0  0.49612  0.11212  0.96622  1.0000
  H   H1926     1.0  0.54711  0.42316  0.72275  1.0000
  H   H1927     1.0  0.56692  0.12730  0.86833  1.0000
  H   H1928     1.0  0.60749  0.27026  0.88651  1.0000
  C   C1103     1.0  0.69913  0.31416  0.55864  1.0000
  H   H1929     1.0  0.58943  0.22342  0.95441  1.0000
  H   H1930     1.0  0.57909  0.22834  0.50249  1.0000
  H   H1931     1.0  0.69365  0.47073  0.69515  1.0000
  H   H1932     1.0  0.70197  0.44796  0.84229  1.0000
  H   H1933     1.0  0.69890  0.42245  0.81754  1.0000
  H   H1934     1.0  0.69247  0.27590  0.89773  1.0000
  H   H1935     1.0  0.71554  0.34181  0.95088  1.0000
  H   H1936     1.0  0.59662  0.44956  0.68098  1.0000
  H   H1937     1.0  0.59348  0.40403  0.55076  1.0000
  H   H1938     1.0  0.70520  0.27294  0.52043  1.0000
  C   C1104     1.0  0.60649  0.27129  0.90557  1.0000
  H   H1939     1.0  0.55666  0.33583  0.53094  1.0000
  H   H1940     1.0  0.69703  0.34148  0.56861  1.0000
  H   H1941     1.0  0.72021  0.19624  0.94218  1.0000
  H   H1942     1.0  0.70897  0.45500  0.69204  1.0000
  C   C1105     1.0  0.69561  0.27685  0.52480  1.0000
  H   H1943     1.0  0.67525  0.33469  0.52582  1.0000
  H   H1944     1.0  0.64280  0.44437  0.61004  1.0000
  S   S248      1.0  0.65887  0.00654  0.96258  1.0000
  C   C1106     1.0  0.59720  0.40280  0.53281  1.0000
  H   H1945     1.0  0.48530  0.99878  0.88333  1.0000
  H   H1946     1.0  0.57081  0.20077  0.97341  1.0000
  C   C1107     1.0  0.69191  0.22950  0.49301  1.0000
  H   H1947     1.0  0.70360  0.38381  0.68824  1.0000
  H   H1948     1.0  0.54452  0.35017  0.56573  1.0000
  H   H1949     1.0  0.67751  0.32572  0.57858  1.0000
  H   H1950     1.0  0.67984  0.43169  0.81994  1.0000
  N   N60       1.0  0.49411  0.98538  0.83503  1.0000
  H   H1951     1.0  0.72284  0.20464  0.97138  1.0000
  H   H1952     1.0  0.67575  0.28963  0.54343  1.0000
  H   H1953     1.0  0.49180  0.32766  0.80994  1.0000
  H   H1954     1.0  0.69344  0.25340  0.96331  1.0000
  H   H1955     1.0  0.52355  0.26436  0.78114  1.0000
  S   S249      1.0  0.53360  0.34049  0.50069  1.0000
  H   H1956     1.0  0.58430  0.07515  0.98230  1.0000
  C   C1108     1.0  0.72113  0.40346  0.83459  1.0000
  H   H1957     1.0  0.65851  0.36596  0.54872  1.0000
  C   C1109     1.0  0.62768  0.11915  0.92267  1.0000
  C   C1110     1.0  0.49406  0.15573  0.56948  1.0000
  H   H1958     1.0  0.70169  0.39326  0.54611  1.0000
  H   H1959     1.0  0.71435  0.04948  0.98439  1.0000
  S   S250      1.0  0.51826  0.03066  0.92047  1.0000
  H   H1960     1.0  0.56783  0.36436  0.68628  1.0000
  H   H1961     1.0  0.61376  0.28894  0.91156  1.0000
  C   C1111     1.0  0.57585  0.40905  0.50587  1.0000
  H   H1962     1.0  0.69844  0.42478  0.49630  1.0000
  H   H1963     1.0  0.63891  0.43382  0.80952  1.0000
  H   H1964     1.0  0.60245  0.01072  0.92803  1.0000
  H   H1965     1.0  0.68603  0.28683  0.75634  1.0000
  H   H1966     1.0  0.69854  0.27102  0.73807  1.0000
  H   H1967     1.0  0.54569  0.42049  0.68066  1.0000
  H   H1968     1.0  0.70846  0.45551  0.74530  1.0000
  C   C1112     1.0  0.49786  0.38962  0.78015  1.0000
  C   C1113     1.0  0.50565  0.32166  0.77102  1.0000
  H   H1969     1.0  0.56704  0.33416  0.49873  1.0000
  H   H1970     1.0  0.70610  0.34328  0.51285  1.0000
  H   H1971     1.0  0.67833  0.02635  0.92176  1.0000
  C   C1114     1.0  0.51433  0.32065  0.79079  1.0000
  H   H1972     1.0  0.50865  0.11675  0.58128  1.0000
  N   N61       1.0  0.56545  0.40848  0.71256  1.0000
  C   C1115     1.0  0.68883  0.26969  0.74095  1.0000
  H   H1973     1.0  0.58698  0.38483  0.69129  1.0000
  C   C1116     1.0  0.52559  0.29611  0.78434  1.0000
  H   H1974     1.0  0.49672  0.40573  0.49472  1.0000
  H   H1975     1.0  0.48564  0.04328  0.82527  1.0000
  H   H1976     1.0  0.49898  0.39086  0.79901  1.0000
  H   H1977     1.0  0.50662  0.39687  0.77189  1.0000
  H   H1978     1.0  0.51061  0.33180  0.75498  1.0000
  H   H1979     1.0  0.57843  0.15685  0.98632  1.0000
  H   H1980     1.0  0.58976  0.28684  0.51198  1.0000
  H   H1981     1.0  0.72680  0.06595  0.96635  1.0000
  C   C1117     1.0  0.69531  0.32487  0.63013  1.0000
  H   H1982     1.0  0.69586  0.28830  0.56991  1.0000
  H   H1983     1.0  0.50617  0.99214  0.86208  1.0000
  C   C1118     1.0  0.69178  0.98730  0.93726  1.0000
  H   H1984     1.0  0.60668  0.41412  0.69500  1.0000
  H   H1985     1.0  0.51698  0.35145  0.79456  1.0000
  C   C1119     1.0  0.71438  0.28396  0.97125  1.0000
  H   H1986     1.0  0.56601  0.25898  0.49719  1.0000
  C   C1120     1.0  0.49347  0.15756  0.96256  1.0000
  H   H1987     1.0  0.57808  0.44519  0.72779  1.0000
  C   C1121     1.0  0.58003  0.29088  0.51177  1.0000
  C   C1122     1.0  0.71687  0.43777  0.81812  1.0000
  C   C1123     1.0  0.55425  0.35198  0.56596  1.0000
  H   H1988     1.0  0.48418  0.10430  0.62501  1.0000
  H   H1989     1.0  0.56699  0.41492  0.67516  1.0000
  H   H1990     1.0  0.55271  0.33625  0.66317  1.0000
  H   H1991     1.0  0.59099  0.38753  0.72077  1.0000
  C   C1124     1.0  0.72126  0.32136  0.96151  1.0000
  H   H1992     1.0  0.53013  0.31007  0.76873  1.0000
  H   H1993     1.0  0.53168  0.29568  0.79867  1.0000
  H   H1994     1.0  0.72119  0.41391  0.85243  1.0000
  H   H1995     1.0  0.57613  0.28453  0.52937  1.0000
  C   C1125     1.0  0.56692  0.37307  0.72968  1.0000
  H   H1996     1.0  0.67854  0.37365  0.56281  1.0000
  C   C1126     1.0  0.57586  0.11890  0.87425  1.0000
  N   N62       1.0  0.68179  0.35026  0.69149  1.0000
  C   C1127     1.0  0.68425  0.39481  0.69086  1.0000
  C   C1128     1.0  0.66866  0.34538  0.69056  1.0000
  C   C1129     1.0  0.68544  0.33212  0.71451  1.0000
  C   C1130     1.0  0.68845  0.32816  0.67241  1.0000
  C   C1131     1.0  0.69102  0.35267  0.64929  1.0000
  C   C1132     1.0  0.69700  0.40523  0.69612  1.0000
  C   C1133     1.0  0.68254  0.28704  0.71988  1.0000
  C   C1134     1.0  0.66276  0.36361  0.66883  1.0000
  C   C1135     1.0  0.64942  0.35885  0.67078  1.0000
  C   C1136     1.0  0.48730  0.01262  0.81838  1.0000
  Fe  Fe126     1.0  0.72188  0.27305  0.83186  1.0000
  H   H1997     1.0  0.62680  0.09615  0.93717  1.0000
  H   H1998     1.0  0.67819  0.41051  0.70346  1.0000
  H   H1999     1.0  0.68221  0.40971  0.67403  1.0000
  H   H2000     1.0  0.66655  0.31280  0.69146  1.0000
  H   H2001     1.0  0.66401  0.35869  0.70594  1.0000
  H   H2002     1.0  0.68124  0.34981  0.72875  1.0000
  H   H2003     1.0  0.68839  0.30342  0.62673  1.0000
  H   H2004     1.0  0.69722  0.31652  0.67808  1.0000
  H   H2005     1.0  0.68372  0.30058  0.66859  1.0000
  H   H2006     1.0  0.69803  0.37451  0.65128  1.0000
  H   H2007     1.0  0.68324  0.37041  0.64328  1.0000
  H   H2008     1.0  0.69799  0.40328  0.71504  1.0000
  H   H2009     1.0  0.68639  0.25673  0.92513  1.0000
  H   H2010     1.0  0.69511  0.33414  0.71603  1.0000
  H   H2011     1.0  0.67294  0.28419  0.72385  1.0000
  H   H2012     1.0  0.66432  0.39637  0.66610  1.0000
  H   H2013     1.0  0.66606  0.34736  0.65346  1.0000
  H   H2014     1.0  0.64542  0.37471  0.68580  1.0000
  H   H2015     1.0  0.64546  0.37240  0.65500  1.0000
  H   H2016     1.0  0.64727  0.32634  0.67257  1.0000
  Fe  Fe127     1.0  0.67152  0.03441  0.98549  1.0000
  H   H2017     1.0  0.62678  0.43181  0.83098  1.0000
  N   N63       1.0  0.69285  0.31633  0.53635  1.0000
  H   H2018     1.0  0.49665  0.16778  0.94493  1.0000
  C   C1137     1.0  0.57939  0.18867  0.97962  1.0000
  S   S251      1.0  0.48621  0.35786  0.61364  1.0000
  H   H2019     1.0  0.50356  0.28957  0.76871  1.0000
  H   H2020     1.0  0.68418  0.98693  0.90362  1.0000
  S   S252      1.0  0.67543  0.47726  0.73360  1.0000
  H   H2021     1.0  0.70635  0.17751  0.98343  1.0000
  H   H2022     1.0  0.71473  0.29013  0.59248  1.0000
  C   C1138     1.0  0.71816  0.31340  0.57970  1.0000
  H   H2023     1.0  0.71229  0.41488  0.50979  1.0000
  C   C1139     1.0  0.72240  0.03900  0.97440  1.0000
  H   H2024     1.0  0.71661  0.33287  0.54432  1.0000
  H   H2025     1.0  0.71558  0.27907  0.55038  1.0000
  H   H2026     1.0  0.72905  0.31289  0.95045  1.0000
  H   H2027     1.0  0.68814  0.20630  0.50542  1.0000
  H   H2028     1.0  0.48022  0.42045  0.77705  1.0000
  H   H2029     1.0  0.61491  0.47882  0.80571  1.0000
  S   S253      1.0  0.65153  0.47966  0.76766  1.0000
  H   H2030     1.0  0.51587  0.28082  0.49293  1.0000
  H   H2031     1.0  0.55670  0.47526  0.68916  1.0000
  C   C1140     1.0  0.67028  0.47701  0.59620  1.0000
  H   H2032     1.0  0.68466  0.17585  0.97977  1.0000
  C   C1141     1.0  0.48960  0.42584  0.77247  1.0000
  H   H2033     1.0  0.55887  0.47220  0.49665  1.0000
  C   C1142     1.0  0.50496  0.03597  0.98888  1.0000
  H   H2034     1.0  0.49057  0.43116  0.75347  1.0000
  C   C1143     1.0  0.48547  0.30838  0.74204  1.0000
  H   H2035     1.0  0.48286  0.33392  0.70729  1.0000
  H   H2036     1.0  0.49198  0.46152  0.80240  1.0000
  C   C1144     1.0  0.51793  0.98391  0.90678  1.0000
  H   H2037     1.0  0.52300  0.98720  0.96915  1.0000
  C   C1145     1.0  0.49270  0.46497  0.78330  1.0000
  H   H2038     1.0  0.51668  0.40822  0.49258  1.0000
  H   H2039     1.0  0.53587  0.48030  0.70373  1.0000
  H   H2040     1.0  0.73014  0.37285  0.97315  1.0000
  H   H2041     1.0  0.48035  0.28961  0.75497  1.0000
  Fe  Fe128     1.0  0.71504  0.77143  0.35639  1.0000
  S   S254      1.0  0.72102  0.76654  0.39291  1.0000
  S   S255      1.0  0.70301  0.82695  0.34760  1.0000
  Fe  Fe129     1.0  0.71960  0.69884  0.39073  1.0000
  S   S256      1.0  0.71425  0.65923  0.42298  1.0000
  S   S257      1.0  0.71229  0.70423  0.35539  1.0000
  C   C1146     1.0  0.60691  0.88187  0.33923  1.0000
  H   H2042     1.0  0.54322  0.74988  0.31923  1.0000
  H   H2043     1.0  0.57093  0.75555  0.25765  1.0000
  H   H2044     1.0  0.63730  0.91551  0.27687  1.0000
  H   H2045     1.0  0.71536  0.68990  0.28784  1.0000
  Fe  Fe130     1.0  0.66470  0.93738  0.24986  1.0000
  H   H2046     1.0  0.54071  0.83758  0.33571  1.0000
  S   S258      1.0  0.67194  0.87436  0.26127  1.0000
  H   H2047     1.0  0.69615  0.67315  0.30602  1.0000
  H   H2048     1.0  0.65976  0.82187  0.31847  1.0000
  H   H2049     1.0  0.64304  0.95034  0.35106  1.0000
  S   S259      1.0  0.64716  0.94437  0.23324  1.0000
  H   H2050     1.0  0.70948  0.72974  0.30527  1.0000
  S   S260      1.0  0.52451  0.90506  0.33472  1.0000
  H   H2051     1.0  0.69188  0.90165  0.33204  1.0000
  H   H2052     1.0  0.61432  0.96763  0.24316  1.0000
  S   S261      1.0  0.66997  0.54807  0.45060  1.0000
  C   C1147     1.0  0.61297  0.88332  0.02779  1.0000
  N   N64       1.0  0.64071  0.88207  0.32275  1.0000
  Fe  Fe131     1.0  0.49034  0.61067  0.37099  1.0000
  C   C1148     1.0  0.64035  0.86224  0.30000  1.0000
  S   S262      1.0  0.50357  0.57773  0.39432  1.0000
  H   H2053     1.0  0.70204  0.80160  0.23596  1.0000
  S   S263      1.0  0.49197  0.75167  0.32433  1.0000
  S   S264      1.0  0.49336  0.63268  0.33400  1.0000
  H   H2054     1.0  0.53118  0.73167  0.35494  1.0000
  C   C1149     1.0  0.70012  0.85358  0.99256  1.0000
  C   C1150     1.0  0.51884  0.51542  0.40765  1.0000
  C   C1151     1.0  0.51055  0.52901  0.39162  1.0000
  H   H2055     1.0  0.62797  0.92073  0.00191  1.0000
  H   H2056     1.0  0.66471  0.86341  0.33375  1.0000
  H   H2057     1.0  0.52104  0.53518  0.42094  1.0000
  H   H2058     1.0  0.50146  0.51321  0.36204  1.0000
  H   H2059     1.0  0.52709  0.87689  0.25786  1.0000
  C   C1152     1.0  0.51525  0.86300  0.33143  1.0000
  C   C1153     1.0  0.51032  0.85548  0.31057  1.0000
  C   C1154     1.0  0.50333  0.82131  0.30880  1.0000
  C   C1155     1.0  0.50111  0.79392  0.32776  1.0000
  C   C1156     1.0  0.50607  0.80139  0.34861  1.0000
  C   C1157     1.0  0.51303  0.83565  0.35039  1.0000
  H   H2060     1.0  0.51185  0.87607  0.29579  1.0000
  H   H2061     1.0  0.49960  0.81608  0.29256  1.0000
  H   H2062     1.0  0.50449  0.78089  0.36341  1.0000
  H   H2063     1.0  0.51674  0.84096  0.36666  1.0000
  C   C1158     1.0  0.55664  0.86687  0.30627  1.0000
  C   C1159     1.0  0.71209  0.83583  0.21038  1.0000
  C   C1160     1.0  0.54631  0.81291  0.32798  1.0000
  H   H2064     1.0  0.48147  0.52860  0.41345  1.0000
  H   H2065     1.0  0.63679  0.83135  0.30245  1.0000
  C   C1161     1.0  0.66312  0.80798  0.35390  1.0000
  H   H2066     1.0  0.53453  0.85543  0.29579  1.0000
  H   H2067     1.0  0.70974  0.79177  0.44909  1.0000
  C   C1162     1.0  0.72892  0.83176  0.28428  1.0000
  H   H2068     1.0  0.66543  0.51031  0.38084  1.0000
  H   H2069     1.0  0.61014  0.80435  0.04664  1.0000
  C   C1163     1.0  0.65117  0.93949  0.34161  1.0000
  C   C1164     1.0  0.70194  0.62792  0.43004  1.0000
  C   C1165     1.0  0.69235  0.62685  0.41598  1.0000
  C   C1166     1.0  0.68268  0.60252  0.42270  1.0000
  C   C1167     1.0  0.68247  0.57842  0.44337  1.0000
  C   C1168     1.0  0.69209  0.57930  0.45736  1.0000
  C   C1169     1.0  0.70172  0.60390  0.45074  1.0000
  H   H2070     1.0  0.69229  0.64524  0.40011  1.0000
  H   H2071     1.0  0.67524  0.60264  0.41188  1.0000
  H   H2072     1.0  0.69205  0.56140  0.47341  1.0000
  H   H2073     1.0  0.70903  0.60450  0.46185  1.0000
  C   C1170     1.0  0.69400  0.83898  0.32398  1.0000
  C   C1171     1.0  0.69078  0.80979  0.30918  1.0000
  C   C1172     1.0  0.68398  0.82112  0.29016  1.0000
  C   C1173     1.0  0.68028  0.86173  0.28576  1.0000
  C   C1174     1.0  0.68319  0.89077  0.30099  1.0000
  C   C1175     1.0  0.68988  0.87926  0.32012  1.0000
  H   H2074     1.0  0.69349  0.77852  0.31251  1.0000
  H   H2075     1.0  0.68153  0.79829  0.27878  1.0000
  H   H2076     1.0  0.68024  0.92201  0.29806  1.0000
  C   C1176     1.0  0.64575  0.85162  0.34005  1.0000
  C   C1177     1.0  0.65878  0.83753  0.33492  1.0000
  H   H2077     1.0  0.52726  0.82430  0.25073  1.0000
  H   H2078     1.0  0.60830  0.83301  0.00661  1.0000
  H   H2079     1.0  0.70636  0.93670  0.36154  1.0000
  H   H2080     1.0  0.57953  0.89967  0.30387  1.0000
  H   H2081     1.0  0.53293  0.78138  0.36533  1.0000
  N   N65       1.0  0.60946  0.91869  0.01189  1.0000
  H   H2082     1.0  0.72282  0.79341  0.48281  1.0000
  C   C1178     1.0  0.57682  0.77254  0.26804  1.0000
  C   C1179     1.0  0.67831  0.55253  0.36787  1.0000
  H   H2083     1.0  0.58740  0.96624  0.00029  1.0000
  C   C1180     1.0  0.64821  0.91876  0.31933  1.0000
  H   H2084     1.0  0.55513  0.77046  0.28716  1.0000
  H   H2085     1.0  0.48208  0.83166  0.26842  1.0000
  C   C1181     1.0  0.53255  0.85190  0.25021  1.0000
  H   H2086     1.0  0.72010  0.85415  0.20850  1.0000
  Fe  Fe132     1.0  0.53162  0.95801  0.31113  1.0000
  C   C1182     1.0  0.60700  0.95503  0.02648  1.0000
  H   H2087     1.0  0.71736  0.88206  0.29545  1.0000
  N   N66       1.0  0.55117  0.82638  0.30424  1.0000
  N   N67       1.0  0.72036  0.77017  0.26559  1.0000
  C   C1183     1.0  0.63331  0.88597  0.28128  1.0000
  H   H2088     1.0  0.62904  0.83284  0.26297  1.0000
  S   S265      1.0  0.64955  0.95422  0.00975  1.0000
  S   S266      1.0  0.48392  0.67272  0.38240  1.0000
  H   H2089     1.0  0.65615  0.91848  0.35328  1.0000
  H   H2090     1.0  0.54969  0.89029  0.31080  1.0000
  H   H2091     1.0  0.70912  0.72625  0.25221  1.0000
  H   H2092     1.0  0.54873  0.81831  0.25479  1.0000
  H   H2093     1.0  0.54562  0.74718  0.36136  1.0000
  H   H2094     1.0  0.57151  0.83947  0.32554  1.0000
  H   H2095     1.0  0.64249  0.85663  0.25235  1.0000
  H   H2096     1.0  0.57650  0.82538  0.28786  1.0000
  H   H2097     1.0  0.58049  0.75180  0.28168  1.0000
  H   H2098     1.0  0.71066  0.96524  0.25554  1.0000
  H   H2099     1.0  0.58423  0.78361  0.25652  1.0000
  H   H2100     1.0  0.60676  0.89784  0.35560  1.0000
  H   H2101     1.0  0.72197  0.76559  0.22873  1.0000
  H   H2102     1.0  0.70435  0.85587  0.20615  1.0000
  H   H2103     1.0  0.64054  0.82373  0.34119  1.0000
  H   H2104     1.0  0.72105  0.88342  0.37174  1.0000
  C   C1184     1.0  0.49840  0.64305  0.27307  1.0000
  H   H2105     1.0  0.53485  0.86084  0.23193  1.0000
  H   H2106     1.0  0.54910  0.87124  0.26103  1.0000
  C   C1185     1.0  0.54090  0.83208  0.28883  1.0000
  H   H2107     1.0  0.59324  0.95467  0.23800  1.0000
  H   H2108     1.0  0.62889  0.90790  0.34894  1.0000
  H   H2109     1.0  0.71784  0.96785  0.29542  1.0000
  H   H2110     1.0  0.70474  0.94623  0.30690  1.0000
  H   H2111     1.0  0.55361  0.80695  0.33984  1.0000
  H   H2112     1.0  0.62018  0.77964  0.02634  1.0000
  H   H2113     1.0  0.50527  0.64455  0.28585  1.0000
  H   H2114     1.0  0.72049  0.82110  0.43214  1.0000
  H   H2115     1.0  0.68926  0.71733  0.29235  1.0000
  H   H2116     1.0  0.67243  0.79839  0.34973  1.0000
  H   H2117     1.0  0.56060  0.87838  0.28949  1.0000
  H   H2118     1.0  0.62834  0.88003  0.24618  1.0000
  H   H2119     1.0  0.60431  0.90373  0.32509  1.0000
  C   C1186     1.0  0.63332  0.86226  0.25940  1.0000
  C   C1187     1.0  0.55987  0.79416  0.29556  1.0000
  H   H2120     1.0  0.72591  0.93210  0.37925  1.0000
  H   H2121     1.0  0.48466  0.97054  0.99701  1.0000
  H   H2122     1.0  0.60034  0.85777  0.34108  1.0000
  C   C1188     1.0  0.71833  0.97567  0.33985  1.0000
  C   C1189     1.0  0.69661  0.69438  0.29063  1.0000
  H   H2123     1.0  0.66719  0.96720  0.32699  1.0000
  C   C1190     1.0  0.71688  0.81359  0.44985  1.0000
  C   C1191     1.0  0.62856  0.89589  0.33150  1.0000
  C   C1192     1.0  0.71895  0.80143  0.28367  1.0000
  H   H2124     1.0  0.65774  0.78055  0.35539  1.0000
  H   H2125     1.0  0.49570  0.70716  0.27182  1.0000
  H   H2126     1.0  0.70140  0.76431  0.26819  1.0000
  H   H2127     1.0  0.48561  0.68226  0.23878  1.0000
  H   H2128     1.0  0.69551  0.67692  0.27511  1.0000
  H   H2129     1.0  0.50284  0.64163  0.25566  1.0000
  H   H2130     1.0  0.61866  0.84667  0.31762  1.0000
  H   H2131     1.0  0.56421  0.77765  0.31017  1.0000
  H   H2132     1.0  0.56896  0.93241  0.31893  1.0000
  C   C1193     1.0  0.70851  0.71455  0.28901  1.0000
  H   H2133     1.0  0.64944  0.85735  0.29230  1.0000
  H   H2134     1.0  0.48233  0.75565  0.27217  1.0000
  H   H2135     1.0  0.62119  0.84042  0.34781  1.0000
  C   C1194     1.0  0.70890  0.97577  0.30294  1.0000
  H   H2136     1.0  0.72599  0.90685  0.44657  1.0000
  H   H2137     1.0  0.61855  0.94436  0.05564  1.0000
  H   H2138     1.0  0.67794  0.54511  0.34952  1.0000
  H   H2139     1.0  0.62398  0.89185  0.28697  1.0000
  H   H2140     1.0  0.49764  0.50137  0.43640  1.0000
  H   H2141     1.0  0.62380  0.84426  0.00512  1.0000
  H   H2142     1.0  0.69212  0.48739  0.37736  1.0000
  H   H2143     1.0  0.49350  0.61495  0.27700  1.0000
  C   C1195     1.0  0.71038  0.81807  0.23501  1.0000
  H   H2144     1.0  0.72897  0.80779  0.23849  1.0000
  C   C1196     1.0  0.54382  0.84373  0.26317  1.0000
  C   C1197     1.0  0.53709  0.75773  0.35433  1.0000
  H   H2145     1.0  0.71305  0.84185  0.45718  1.0000
  H   H2146     1.0  0.56699  0.82887  0.26444  1.0000
  H   H2147     1.0  0.67857  0.95430  0.11025  1.0000
  H   H2148     1.0  0.70538  0.50010  0.44905  1.0000
  S   S267      1.0  0.53822  0.94984  0.27467  1.0000
  H   H2149     1.0  0.48335  0.75627  0.24147  1.0000
  C   C1198     1.0  0.57414  0.90334  0.32017  1.0000
  H   H2150     1.0  0.68736  0.56146  0.37126  1.0000
  H   H2151     1.0  0.50564  0.98000  0.01130  1.0000
  H   H2152     1.0  0.71287  0.81132  0.19794  1.0000
  C   C1199     1.0  0.57010  0.80851  0.27867  1.0000
  H   H2153     1.0  0.71052  0.81907  0.28197  1.0000
  C   C1200     1.0  0.61717  0.96706  0.04127  1.0000
  H   H2154     1.0  0.64372  0.94241  0.30830  1.0000
  H   H2155     1.0  0.69723  0.94252  0.26722  1.0000
  C   C1201     1.0  0.72405  0.91333  0.36465  1.0000
  H   H2156     1.0  0.69388  0.50957  0.41564  1.0000
  H   H2157     1.0  0.65664  0.91120  0.30959  1.0000
  H   H2158     1.0  0.62116  0.88961  0.03642  1.0000
  Fe  Fe133     1.0  0.48582  0.69344  0.34476  1.0000
  H   H2159     1.0  0.66272  0.82266  0.37070  1.0000
  H   H2160     1.0  0.72973  0.71190  0.26298  1.0000
  C   C1202     1.0  0.70157  0.97156  0.26268  1.0000
  H   H2161     1.0  0.53596  0.80382  0.28853  1.0000
  H   H2162     1.0  0.60601  0.87874  0.04180  1.0000
  H   H2163     1.0  0.71680  0.92990  0.46888  1.0000
  H   H2164     1.0  0.72684  0.96996  0.32999  1.0000
  C   C1203     1.0  0.66617  0.97397  0.13723  1.0000
  H   H2165     1.0  0.70934  0.84392  0.24649  1.0000
  H   H2166     1.0  0.56146  0.87126  0.34196  1.0000
  H   H2167     1.0  0.62519  0.92203  0.32056  1.0000
  C   C1204     1.0  0.56599  0.86784  0.32473  1.0000
  H   H2168     1.0  0.64492  0.86338  0.35768  1.0000
  C   C1205     1.0  0.53891  0.77425  0.32946  1.0000
  C   C1206     1.0  0.50782  0.50323  0.37448  1.0000
  C   C1207     1.0  0.72581  0.92863  0.46054  1.0000
  H   H2169     1.0  0.53002  0.78138  0.32297  1.0000
  C   C1208     1.0  0.71447  0.93382  0.35021  1.0000
  H   H2170     1.0  0.58017  0.90464  0.33447  1.0000
  C   C1209     1.0  0.58702  0.97506  0.27125  1.0000
  H   H2171     1.0  0.67216  0.57875  0.37116  1.0000
  C   C1210     1.0  0.70955  0.74465  0.26767  1.0000
  C   C1211     1.0  0.61915  0.86298  0.33370  1.0000
  C   C1212     1.0  0.61804  0.80857  0.03483  1.0000
  C   C1213     1.0  0.59812  0.90950  0.00116  1.0000
  H   H2172     1.0  0.67197  0.96564  0.15095  1.0000
  H   H2173     1.0  0.48578  0.68068  0.29198  1.0000
  H   H2174     1.0  0.69045  0.48885  0.45845  1.0000
  H   H2175     1.0  0.59911  0.95019  0.03835  1.0000
  H   H2176     1.0  0.71278  0.91326  0.33641  1.0000
  H   H2177     1.0  0.72375  0.73320  0.45852  1.0000
  C   C1214     1.0  0.72663  0.79597  0.46488  1.0000
  H   H2178     1.0  0.67521  0.52559  0.40170  1.0000
  C   C1215     1.0  0.72902  0.97079  0.45084  1.0000
  C   C1216     1.0  0.72551  0.86534  0.30076  1.0000
  C   C1217     1.0  0.60776  0.97400  0.25678  1.0000
  C   C1218     1.0  0.72101  0.78962  0.24156  1.0000
  Fe  Fe134     1.0  0.66320  0.49782  0.47650  1.0000
  C   C1219     1.0  0.67476  0.51642  0.38376  1.0000
  H   H2179     1.0  0.48127  0.83121  0.23742  1.0000
  H   H2180     1.0  0.69357  0.97127  0.33828  1.0000
  C   C1220     1.0  0.65874  0.97625  0.33612  1.0000
  C   C1221     1.0  0.61570  0.84231  0.01656  1.0000
  H   H2181     1.0  0.62564  0.81571  0.04500  1.0000
  C   C1222     1.0  0.49010  0.68043  0.27446  1.0000
  H   H2182     1.0  0.59156  0.89833  0.01467  1.0000
  H   H2183     1.0  0.62551  0.96972  0.03065  1.0000
  S   S268      1.0  0.57204  0.96420  0.26676  1.0000
  S   S269      1.0  0.66800  0.97076  0.06683  1.0000
  H   H2184     1.0  0.69112  0.86568  0.99735  1.0000
  H   H2185     1.0  0.71818  0.78664  0.30118  1.0000
  C   C1223     1.0  0.66989  0.96760  0.11405  1.0000
  C   C1224     1.0  0.48077  0.68052  0.25594  1.0000
  H   H2186     1.0  0.72403  0.85232  0.31859  1.0000
  S   S270      1.0  0.67714  0.97489  0.00258  1.0000
  C   C1225     1.0  0.59576  0.96669  0.25390  1.0000
  H   H2187     1.0  0.70394  0.83883  0.00815  1.0000
  C   C1226     1.0  0.61936  0.92820  0.99431  1.0000
  S   S271      1.0  0.67345  0.98051  0.22361  1.0000
  C   C1227     1.0  0.66252  0.97829  0.09581  1.0000
  H   H2188     1.0  0.52243  0.94665  0.99091  1.0000
  H   H2189     1.0  0.70913  0.90798  0.99714  1.0000
  Fe  Fe135     1.0  0.71812  0.70154  0.83628  1.0000
  S   S272      1.0  0.71221  0.69325  0.87377  1.0000
  S   S273      1.0  0.71263  0.66776  0.80503  1.0000
  Fe  Fe136     1.0  0.71442  0.76116  0.87569  1.0000
  S   S274      1.0  0.70279  0.81552  0.88810  1.0000
  S   S275      1.0  0.71919  0.76958  0.83756  1.0000
  S   S276      1.0  0.53063  0.55052  0.83501  1.0000
  Fe  Fe137     1.0  0.48735  0.75579  0.85128  1.0000
  S   S277      1.0  0.49200  0.81359  0.83108  1.0000
  S   S278      1.0  0.49133  0.69605  0.83294  1.0000
  H   H2190     1.0  0.70815  0.62259  0.76574  1.0000
  Fe  Fe138     1.0  0.49732  0.83610  0.86476  1.0000
  S   S279      1.0  0.51441  0.86985  0.86541  1.0000
  S   S280      1.0  0.49392  0.77703  0.88435  1.0000
  Fe  Fe139     1.0  0.66309  0.48468  0.70383  1.0000
  H   H2191     1.0  0.50256  0.97262  0.98155  1.0000
  H   H2192     1.0  0.52648  0.74729  0.78181  1.0000
  H   H2193     1.0  0.71038  0.50356  0.85374  1.0000
  C   C1228     1.0  0.70796  0.88756  0.98292  1.0000
  H   H2194     1.0  0.50788  0.70922  0.78377  1.0000
  N   N68       1.0  0.70981  0.94243  0.94972  1.0000
  C   C1229     1.0  0.71957  0.88480  0.92560  1.0000
  Fe  Fe140     1.0  0.66401  0.52486  0.75117  1.0000
  H   H2195     1.0  0.53356  0.72545  0.90047  1.0000
  S   S281      1.0  0.66823  0.56789  0.77927  1.0000
  H   H2196     1.0  0.69119  0.58333  0.75501  1.0000
  H   H2197     1.0  0.49151  0.93988  0.86247  1.0000
  H   H2198     1.0  0.72973  0.73417  0.49889  1.0000
  H   H2199     1.0  0.54194  0.66234  0.82611  1.0000
  S   S282      1.0  0.65271  0.53618  0.72049  1.0000
  H   H2200     1.0  0.69154  0.50644  0.77974  1.0000
  H   H2201     1.0  0.52397  0.68593  0.89329  1.0000
  H   H2202     1.0  0.71474  0.52285  0.81144  1.0000
  C   C1230     1.0  0.59239  0.54637  0.82118  1.0000
  C   C1231     1.0  0.52059  0.73932  0.81856  1.0000
  H   H2203     1.0  0.49996  0.75328  0.79466  1.0000
  H   H2204     1.0  0.51326  0.75329  0.82919  1.0000
  C   C1232     1.0  0.51575  0.91259  0.88236  1.0000
  C   C1233     1.0  0.50653  0.92616  0.89724  1.0000
  C   C1234     1.0  0.62965  0.58423  0.82666  1.0000
  C   C1235     1.0  0.50757  0.96187  0.90913  1.0000
  H   H2205     1.0  0.67960  0.80602  0.96278  1.0000
  C   C1236     1.0  0.52618  0.93435  0.88020  1.0000
  H   H2206     1.0  0.49853  0.90943  0.89939  1.0000
  H   H2207     1.0  0.71724  0.49853  0.73687  1.0000
  H   H2208     1.0  0.54114  0.72453  0.85936  1.0000
  H   H2209     1.0  0.53339  0.92408  0.86882  1.0000
  C   C1237     1.0  0.51918  0.58931  0.83450  1.0000
  C   C1238     1.0  0.51788  0.61577  0.85281  1.0000
  C   C1239     1.0  0.50924  0.64772  0.85295  1.0000
  C   C1240     1.0  0.50190  0.65445  0.83449  1.0000
  C   C1241     1.0  0.50313  0.62784  0.81624  1.0000
  C   C1242     1.0  0.51166  0.59548  0.81625  1.0000
  H   H2210     1.0  0.52353  0.61118  0.86715  1.0000
  H   H2211     1.0  0.50817  0.66686  0.86745  1.0000
  H   H2212     1.0  0.49749  0.63243  0.80188  1.0000
  H   H2213     1.0  0.51251  0.57558  0.80200  1.0000
  C   C1243     1.0  0.60839  0.48257  0.75161  1.0000
  S   S283      1.0  0.64734  0.50429  0.50152  1.0000
  C   C1244     1.0  0.67703  0.86460  0.94548  1.0000
  C   C1245     1.0  0.68181  0.82470  0.94750  1.0000
  C   C1246     1.0  0.68965  0.80895  0.93019  1.0000
  C   C1247     1.0  0.69260  0.83263  0.91029  1.0000
  C   C1248     1.0  0.68749  0.87204  0.90793  1.0000
  C   C1249     1.0  0.67979  0.88797  0.92536  1.0000
  C   C1250     1.0  0.52731  0.96968  0.89246  1.0000
  H   H2214     1.0  0.69339  0.77850  0.93224  1.0000
  H   H2215     1.0  0.68955  0.89044  0.89247  1.0000
  H   H2216     1.0  0.67590  0.91814  0.92312  1.0000
  C   C1251     1.0  0.70018  0.63996  0.79839  1.0000
  C   C1252     1.0  0.69015  0.63671  0.81325  1.0000
  C   C1253     1.0  0.68050  0.61467  0.80702  1.0000
  C   C1254     1.0  0.68074  0.59524  0.78598  1.0000
  C   C1255     1.0  0.69084  0.59794  0.77126  1.0000
  C   C1256     1.0  0.70045  0.62030  0.77740  1.0000
  H   H2217     1.0  0.68978  0.65159  0.82943  1.0000
  H   H2218     1.0  0.67276  0.61283  0.81858  1.0000
  C   C1257     1.0  0.58296  0.93174  0.97195  1.0000
  Fe  Fe141     1.0  0.66385  0.94741  0.98151  1.0000
  C   C1258     1.0  0.70918  0.48866  0.74687  1.0000
  S   S284      1.0  0.62098  0.50485  0.73730  1.0000
  H   H2219     1.0  0.57911  0.50608  0.76389  1.0000
  H   H2220     1.0  0.68282  0.52476  0.81638  1.0000
  C   C1259     1.0  0.63119  0.91327  0.95728  1.0000
  H   H2221     1.0  0.54481  0.87677  0.80229  1.0000
  C   C1260     1.0  0.70996  0.49867  0.77210  1.0000
  S   S285      1.0  0.66768  0.88352  0.96846  1.0000
  H   H2222     1.0  0.51164  0.90885  0.78688  1.0000
  H   H2223     1.0  0.66188  0.50338  0.81796  1.0000
  C   C1261     1.0  0.48621  0.96282  0.85249  1.0000
  H   H2224     1.0  0.57620  0.91359  0.98178  1.0000
  H   H2225     1.0  0.72727  0.91448  0.95332  1.0000
  H   H2226     1.0  0.55151  0.63415  0.79170  1.0000
  C   C1262     1.0  0.59206  0.94575  0.98794  1.0000
  H   H2227     1.0  0.71894  0.95918  0.97925  1.0000
  C   C1263     1.0  0.49592  0.92415  0.80837  1.0000
  C   C1264     1.0  0.70555  0.52401  0.81873  1.0000
  C   C1265     1.0  0.72044  0.86929  0.79245  1.0000
  C   C1266     1.0  0.54242  0.72718  0.81445  1.0000
  H   H2228     1.0  0.50027  0.97255  0.92017  1.0000
  H   H2229     1.0  0.64206  0.64743  0.84322  1.0000
  H   H2230     1.0  0.54024  0.50320  0.72942  1.0000
  H   H2231     1.0  0.63959  0.50840  0.81521  1.0000
  C   C1267     1.0  0.70305  0.96192  0.93022  1.0000
  H   H2232     1.0  0.50938  0.87598  0.81241  1.0000
  H   H2233     1.0  0.61067  0.59220  0.80115  1.0000
  C   C1268     1.0  0.62984  0.51296  0.81677  1.0000
  H   H2234     1.0  0.53067  0.87181  0.81747  1.0000
  H   H2235     1.0  0.55085  0.73141  0.82285  1.0000
  C   C1269     1.0  0.70226  0.91138  0.96249  1.0000
  C   C1270     1.0  0.52479  0.71918  0.89418  1.0000
  H   H2236     1.0  0.65507  0.61763  0.85028  1.0000
  H   H2237     1.0  0.70151  0.55217  0.81076  1.0000
  C   C1271     1.0  0.71294  0.97331  0.96640  1.0000
  S   S286      1.0  0.54341  0.49131  0.77922  1.0000
  H   H2238     1.0  0.56062  0.67151  0.80259  1.0000
  C   C1272     1.0  0.53994  0.85988  0.81650  1.0000
  H   H2239     1.0  0.57845  0.95856  0.96360  1.0000
  C   C1273     1.0  0.58732  0.48840  0.76328  1.0000
  H   H2240     1.0  0.72621  0.93595  0.76515  1.0000
  H   H2241     1.0  0.69933  0.88931  0.95048  1.0000
  C   C1274     1.0  0.69873  0.48599  0.78653  1.0000
  H   H2242     1.0  0.56130  0.49945  0.71392  1.0000
  H   H2243     1.0  0.54401  0.86537  0.83295  1.0000
  H   H2244     1.0  0.50772  0.93804  0.83471  1.0000
  C   C1275     1.0  0.63265  0.56533  0.78591  1.0000
  C   C1276     1.0  0.63130  0.60977  0.77622  1.0000
  C   C1277     1.0  0.50493  0.89340  0.79836  1.0000
  H   H2245     1.0  0.72578  0.94510  0.92788  1.0000
  H   H2246     1.0  0.59861  0.96362  0.97755  1.0000
  H   H2247     1.0  0.48931  0.90698  0.81912  1.0000
  C   C1278     1.0  0.63794  0.61539  0.75286  1.0000
  H   H2248     1.0  0.63852  0.89776  0.96655  1.0000
  C   C1279     1.0  0.51910  0.75690  0.79372  1.0000
  C   C1280     1.0  0.54258  0.49891  0.71095  1.0000
  H   H2249     1.0  0.62598  0.61537  0.82276  1.0000
  C   C1281     1.0  0.50201  0.95520  0.82234  1.0000
  H   H2250     1.0  0.72756  0.94606  0.79434  1.0000
  C   C1282     1.0  0.60523  0.54854  0.82744  1.0000
  H   H2251     1.0  0.61072  0.54281  0.79109  1.0000
  H   H2252     1.0  0.64223  0.55754  0.78657  1.0000
  H   H2253     1.0  0.50038  0.87179  0.78816  1.0000
  H   H2254     1.0  0.63489  0.63122  0.78788  1.0000
  H   H2255     1.0  0.62195  0.61847  0.77361  1.0000
  H   H2256     1.0  0.62954  0.54594  0.77266  1.0000
  H   H2257     1.0  0.64785  0.59749  0.81377  1.0000
  H   H2258     1.0  0.60565  0.57164  0.84056  1.0000
  H   H2259     1.0  0.71665  0.87361  0.97771  1.0000
  H   H2260     1.0  0.53361  0.67515  0.80114  1.0000
  H   H2261     1.0  0.71468  0.87443  0.77768  1.0000
  H   H2262     1.0  0.71355  0.89134  0.91141  1.0000
  C   C1283     1.0  0.54174  0.68137  0.80990  1.0000
  C   C1284     1.0  0.61323  0.56025  0.80589  1.0000
  H   H2263     1.0  0.64747  0.60776  0.75435  1.0000
  H   H2264     1.0  0.63430  0.59588  0.74014  1.0000
  H   H2265     1.0  0.63697  0.64744  0.74640  1.0000
  H   H2266     1.0  0.71092  0.53195  0.77256  1.0000
  C   C1285     1.0  0.64542  0.61647  0.84830  1.0000
  H   H2267     1.0  0.64117  0.60665  0.86517  1.0000
  H   H2268     1.0  0.59145  0.52205  0.80895  1.0000
  H   H2269     1.0  0.71601  0.85945  0.93674  1.0000
  H   H2270     1.0  0.48656  0.49002  0.77770  1.0000
  H   H2271     1.0  0.70976  0.59504  0.84088  1.0000
  H   H2272     1.0  0.60784  0.51874  0.83549  1.0000
  H   H2273     1.0  0.54243  0.52908  0.70171  1.0000
  H   H2274     1.0  0.51868  0.70663  0.81912  1.0000
  H   H2275     1.0  0.68496  0.96777  0.94571  1.0000
  C   C1286     1.0  0.72104  0.92295  0.93963  1.0000
  N   N69       1.0  0.53227  0.74547  0.82874  1.0000
  C   C1287     1.0  0.53223  0.72393  0.85225  1.0000
  H   H2276     1.0  0.70143  0.50479  0.73936  1.0000
  H   H2277     1.0  0.67626  0.48318  0.58149  1.0000
  H   H2278     1.0  0.71419  0.57082  0.86756  1.0000
  C   C1288     1.0  0.54043  0.81464  0.81201  1.0000
  H   H2279     1.0  0.52385  0.77348  0.87265  1.0000
  H   H2280     1.0  0.53030  0.69145  0.85115  1.0000
  C   C1289     1.0  0.50779  0.74282  0.78407  1.0000
  H   H2281     1.0  0.62555  0.57508  0.84381  1.0000
  C   C1290     1.0  0.70627  0.53050  0.84482  1.0000
  H   H2282     1.0  0.71638  0.88457  0.80765  1.0000
  H   H2283     1.0  0.61240  0.92148  0.96021  1.0000
  H   H2284     1.0  0.64695  0.55684  0.83537  1.0000
  H   H2285     1.0  0.53924  0.79419  0.84722  1.0000
  C   C1291     1.0  0.52314  0.74050  0.87062  1.0000
  H   H2286     1.0  0.52531  0.80587  0.83584  1.0000
  H   H2287     1.0  0.54346  0.74309  0.79731  1.0000
  H   H2288     1.0  0.69740  0.53679  0.85300  1.0000
  H   H2289     1.0  0.68239  0.49495  0.62097  1.0000
  H   H2290     1.0  0.51843  0.79047  0.79368  1.0000
  H   H2291     1.0  0.63089  0.89998  0.94017  1.0000
  H   H2292     1.0  0.50808  0.97100  0.80962  1.0000
  C   C1292     1.0  0.71373  0.56682  0.84880  1.0000
  C   C1293     1.0  0.61944  0.90766  0.97087  1.0000
  H   H2293     1.0  0.61799  0.87479  0.97290  1.0000
  N   N70       1.0  0.62632  0.55572  0.80885  1.0000
  H   H2294     1.0  0.51790  0.73055  0.90675  1.0000
  H   H2295     1.0  0.51411  0.73489  0.86571  1.0000
  H   H2296     1.0  0.62748  0.50741  0.83543  1.0000
  C   C1294     1.0  0.55219  0.66701  0.79442  1.0000
  H   H2297     1.0  0.58919  0.57572  0.81326  1.0000
  H   H2298     1.0  0.53661  0.81077  0.79521  1.0000
  H   H2299     1.0  0.59723  0.53566  0.74517  1.0000
  C   C1295     1.0  0.53397  0.79007  0.83192  1.0000
  H   H2300     1.0  0.58676  0.53925  0.83693  1.0000
  H   H2301     1.0  0.55221  0.68362  0.77737  1.0000
  Fe  Fe142     1.0  0.64085  0.48790  0.73639  1.0000
  C   C1296     1.0  0.64307  0.58683  0.82989  1.0000
  H   H2302     1.0  0.54988  0.80465  0.81062  1.0000
  H   H2303     1.0  0.50696  0.75557  0.76620  1.0000
  H   H2304     1.0  0.71805  0.48356  0.77857  1.0000
  H   H2305     1.0  0.62709  0.48192  0.78501  1.0000
  H   H2306     1.0  0.59943  0.88438  0.98926  1.0000
  H   H2307     1.0  0.58730  0.91342  0.95821  1.0000
  C   C1297     1.0  0.67374  0.48370  0.61871  1.0000
  C   C1298     1.0  0.59762  0.50510  0.75269  1.0000
  H   H2308     1.0  0.69400  0.92584  0.96980  1.0000
  Fe  Fe143     1.0  0.53471  0.49241  0.81502  1.0000
  H   H2309     1.0  0.72995  0.84249  0.90488  1.0000
  C   C1299     1.0  0.68627  0.49385  0.82160  1.0000
  H   H2310     1.0  0.69953  0.83028  0.97961  1.0000
  H   H2311     1.0  0.49163  0.93977  0.79355  1.0000
  S   S287      1.0  0.67104  0.48610  0.66631  1.0000
  H   H2312     1.0  0.72109  0.83622  0.79681  1.0000
  H   H2313     1.0  0.63306  0.94594  0.95458  1.0000
  H   H2314     1.0  0.72285  0.56221  0.84136  1.0000
  H   H2315     1.0  0.68574  0.49215  0.84075  1.0000
  H   H2316     1.0  0.70016  0.93856  0.91892  1.0000
  C   C1300     1.0  0.52066  0.97961  0.98760  1.0000
  N   N71       1.0  0.69887  0.48783  0.81244  1.0000
  H   H2317     1.0  0.61951  0.96123  0.98988  1.0000
  H   H2318     1.0  0.75764  0.98733  0.38468  1.0000
  H   H2319     1.0  0.77784  0.44287  0.30197  1.0000
  H   H2320     1.0  0.82024  0.32919  0.99428  1.0000
  Fe  Fe144     1.0  0.96708  0.28532  0.09031  1.0000
  S   S288      1.0  0.96916  0.35055  0.09769  1.0000
  S   S289      1.0  0.95190  0.26547  0.06961  1.0000
  C   C1301     1.0  0.75850  0.00435  0.42072  1.0000
  S   S290      1.0  0.96961  0.36171  0.16640  1.0000
  S   S291      1.0  0.96999  0.26217  0.12712  1.0000
  Fe  Fe145     1.0  0.78909  0.43180  0.24898  1.0000
  S   S292      1.0  0.78441  0.37392  0.26968  1.0000
  C   C1302     1.0  0.81034  0.09597  0.40873  1.0000
  S   S293      1.0  0.80111  0.43072  0.21694  1.0000
  Fe  Fe146     1.0  0.91703  0.43590  0.25500  1.0000
  S   S294      1.0  0.92988  0.44379  0.28215  1.0000
  S   S295      1.0  0.92089  0.40305  0.22164  1.0000
  H   H2321     1.0  0.73696  0.09535  0.36255  1.0000
  H   H2322     1.0  0.83330  0.12255  0.41454  1.0000
  C   C1303     1.0  0.85539  0.45619  0.23958  1.0000
  H   H2323     1.0  0.81394  0.04865  0.38451  1.0000
  Fe  Fe147     1.0  0.91563  0.42015  0.30716  1.0000
  S   S296      1.0  0.91997  0.37552  0.33726  1.0000
  H   H2324     1.0  0.79402  0.21455  0.45414  1.0000
  S   S297      1.0  0.90323  0.40859  0.27983  1.0000
  S   S298      1.0  0.73235  0.19225  0.33188  1.0000
  H   H2325     1.0  0.92919  0.27710  0.99955  1.0000
  H   H2326     1.0  0.80094  0.16791  0.41082  1.0000
  H   H2327     1.0  0.82333  0.19569  0.44137  1.0000
  H   H2328     1.0  0.90006  0.44468  0.38963  1.0000
  H   H2329     1.0  0.87095  0.00119  0.46769  1.0000
  C   C1304     1.0  0.78759  0.23168  0.42116  1.0000
  C   C1305     1.0  0.74086  0.41489  0.33455  1.0000
  S   S299      1.0  0.77629  0.10664  0.47232  1.0000
  Fe  Fe148     1.0  0.90511  0.15634  0.40274  1.0000
  S   S300      1.0  0.90106  0.17127  0.43984  1.0000
  S   S301      1.0  0.90270  0.19828  0.37022  1.0000
  Fe  Fe149     1.0  0.91058  0.06599  0.41616  1.0000
  S   S302      1.0  0.90689  0.07540  0.45393  1.0000
  Fe  Fe150     1.0  0.89093  0.11305  0.44302  1.0000
  S   S303      1.0  0.87299  0.10748  0.46347  1.0000
  Fe  Fe151     1.0  0.91726  0.13198  0.44790  1.0000
  H   H2330     1.0  0.92941  0.32749  0.08456  1.0000
  S   S304      1.0  0.89406  0.10042  0.40567  1.0000
  S   S305      1.0  0.92182  0.12020  0.41039  1.0000
  S   S306      1.0  0.73430  0.30602  0.30164  1.0000
  C   C1306     1.0  0.83951  0.03406  0.45555  1.0000
  H   H2331     1.0  0.88332  0.45949  0.36521  1.0000
  C   C1307     1.0  0.85797  0.06228  0.43885  1.0000
  C   C1308     1.0  0.86010  0.07954  0.45965  1.0000
  H   H2332     1.0  0.88444  0.02468  0.45866  1.0000
  H   H2333     1.0  0.94941  0.37997  0.01202  1.0000
  H   H2334     1.0  0.86416  0.06652  0.42427  1.0000
  H   H2335     1.0  0.86411  0.43505  0.36260  1.0000
  C   C1309     1.0  0.76089  0.14127  0.40216  1.0000
  C   C1310     1.0  0.76990  0.11121  0.40399  1.0000
  C   C1311     1.0  0.77447  0.09973  0.42543  1.0000
  C   C1312     1.0  0.77026  0.11887  0.44527  1.0000
  C   C1313     1.0  0.76141  0.14957  0.44340  1.0000
  C   C1314     1.0  0.75662  0.16037  0.42200  1.0000
  H   H2336     1.0  0.78545  0.26318  0.42620  1.0000
  H   H2337     1.0  0.78138  0.07652  0.42651  1.0000
  H   H2338     1.0  0.75819  0.16494  0.45860  1.0000
  H   H2339     1.0  0.74972  0.18375  0.42079  1.0000
  C   C1315     1.0  0.91509  0.32613  0.34596  1.0000
  C   C1316     1.0  0.90934  0.30209  0.33125  1.0000
  C   C1317     1.0  0.90560  0.26326  0.33901  1.0000
  C   C1318     1.0  0.90773  0.24748  0.36142  1.0000
  C   C1319     1.0  0.91362  0.27134  0.37601  1.0000
  C   C1320     1.0  0.91725  0.31033  0.36831  1.0000
  H   H2340     1.0  0.90791  0.31321  0.31384  1.0000
  H   H2341     1.0  0.90105  0.24517  0.32756  1.0000
  H   H2342     1.0  0.91535  0.25977  0.39326  1.0000
  H   H2343     1.0  0.92178  0.32838  0.37983  1.0000
  C   C1321     1.0  0.77030  0.35818  0.27987  1.0000
  C   C1322     1.0  0.75993  0.37683  0.27200  1.0000
  C   C1323     1.0  0.74893  0.36096  0.27914  1.0000
  C   C1324     1.0  0.74821  0.32676  0.29443  1.0000
  C   C1325     1.0  0.75856  0.30914  0.30296  1.0000
  C   C1326     1.0  0.76955  0.32459  0.29554  1.0000
  H   H2344     1.0  0.76039  0.40274  0.25995  1.0000
  H   H2345     1.0  0.74095  0.37479  0.27251  1.0000
  H   H2346     1.0  0.75811  0.28285  0.31476  1.0000
  H   H2347     1.0  0.77753  0.30998  0.30174  1.0000
  H   H2348     1.0  0.92054  0.37367  0.08209  1.0000
  H   H2349     1.0  0.87031  0.32410  0.28175  1.0000
  C   C1327     1.0  0.84777  0.03975  0.43686  1.0000
  H   H2350     1.0  0.81420  0.27976  0.99394  1.0000
  S   S307      1.0  0.73932  0.26366  0.36555  1.0000
  C   C1328     1.0  0.95595  0.37308  0.18137  1.0000
  C   C1329     1.0  0.94523  0.36070  0.17392  1.0000
  C   C1330     1.0  0.93461  0.37031  0.18644  1.0000
  C   C1331     1.0  0.93456  0.39241  0.20651  1.0000
  C   C1332     1.0  0.94529  0.40467  0.21402  1.0000
  C   C1333     1.0  0.95591  0.39508  0.20148  1.0000
  H   H2351     1.0  0.94511  0.34374  0.15851  1.0000
  H   H2352     1.0  0.92637  0.36062  0.18049  1.0000
  H   H2353     1.0  0.94540  0.42167  0.22942  1.0000
  H   H2354     1.0  0.96416  0.40476  0.20741  1.0000
  C   C1334     1.0  0.93876  0.33101  0.00325  1.0000
  C   C1335     1.0  0.94652  0.34990  0.01704  1.0000
  C   C1336     1.0  0.95069  0.33013  0.03720  1.0000
  C   C1337     1.0  0.94703  0.29127  0.04404  1.0000
  C   C1338     1.0  0.93909  0.27262  0.03047  1.0000
  C   C1339     1.0  0.97487  0.45661  0.07394  1.0000
  H   H2355     1.0  0.95674  0.34497  0.04747  1.0000
  H   H2356     1.0  0.93621  0.24256  0.03557  1.0000
  S   S308      1.0  0.91405  0.00024  0.40652  1.0000
  C   C1340     1.0  0.80014  0.16824  0.42994  1.0000
  C   C1341     1.0  0.86439  0.42537  0.34454  1.0000
  H   H2357     1.0  0.95458  0.17296  0.48653  1.0000
  H   H2358     1.0  0.83399  0.44591  0.34246  1.0000
  Fe  Fe152     1.0  0.73944  0.19558  0.36726  1.0000
  S   S309      1.0  0.75528  0.15338  0.37476  1.0000
  H   H2359     1.0  0.77947  0.21400  0.42375  1.0000
  S   S310      1.0  0.80245  0.40303  0.00151  1.0000
  C   C1342     1.0  0.88527  0.40602  0.34436  1.0000
  H   H2360     1.0  0.76658  0.30315  0.13889  1.0000
  H   H2361     1.0  0.88184  0.34431  0.01628  1.0000
  H   H2362     1.0  0.73926  0.37705  0.36634  1.0000
  C   C1343     1.0  0.88078  0.34144  0.30982  1.0000
  H   H2363     1.0  0.96242  0.24949  0.21337  1.0000
  H   H2364     1.0  0.75666  0.41829  0.35357  1.0000
  H   H2365     1.0  0.97094  0.42906  0.06791  1.0000
  H   H2366     1.0  0.88761  0.42830  0.32999  1.0000
  H   H2367     1.0  0.89222  0.38171  0.34284  1.0000
  H   H2368     1.0  0.87002  0.29822  0.39541  1.0000
  H   H2369     1.0  0.88569  0.34414  0.37920  1.0000
  H   H2370     1.0  0.84323  0.18874  0.40823  1.0000
  Fe  Fe153     1.0  0.97339  0.32728  0.13343  1.0000
  H   H2371     1.0  0.88147  0.41278  0.38177  1.0000
  H   H2372     1.0  0.89007  0.34850  0.31182  1.0000
  H   H2373     1.0  0.87857  0.31340  0.32010  1.0000
  H   H2374     1.0  0.88170  0.35924  0.27315  1.0000
  H   H2375     1.0  0.80076  0.13835  0.47254  1.0000
  C   C1344     1.0  0.84302  0.45110  0.34779  1.0000
  H   H2376     1.0  0.91936  0.42372  0.99387  1.0000
  C   C1345     1.0  0.75570  0.47690  0.30289  1.0000
  C   C1346     1.0  0.73843  0.37449  0.34754  1.0000
  H   H2377     1.0  0.96851  0.29866  0.20794  1.0000
  H   H2378     1.0  0.90212  0.42227  0.03622  1.0000
  C   C1347     1.0  0.90057  0.29526  0.02649  1.0000
  C   C1348     1.0  0.73454  0.06659  0.37198  1.0000
  H   H2379     1.0  0.75808  0.44924  0.29333  1.0000
  H   H2380     1.0  0.74834  0.00452  0.47615  1.0000
  H   H2381     1.0  0.89903  0.37424  0.00124  1.0000
  H   H2382     1.0  0.96814  0.44650  0.15104  1.0000
  H   H2383     1.0  0.74887  0.09722  0.47755  1.0000
  N   N72       1.0  0.93656  0.28719  0.26360  1.0000
  C   C1349     1.0  0.94746  0.26982  0.25120  1.0000
  C   C1350     1.0  0.93294  0.25812  0.28330  1.0000
  C   C1351     1.0  0.92704  0.29320  0.24656  1.0000
  C   C1352     1.0  0.93884  0.32748  0.27334  1.0000
  C   C1353     1.0  0.94953  0.32764  0.28890  1.0000
  C   C1354     1.0  0.95336  0.29805  0.23219  1.0000
  C   C1355     1.0  0.91478  0.30761  0.25648  1.0000
  C   C1356     1.0  0.92817  0.21725  0.27655  1.0000
  C   C1357     1.0  0.92526  0.19005  0.29794  1.0000
  C   C1358     1.0  0.95120  0.36967  0.29766  1.0000
  H   H2384     1.0  0.88990  0.99832  0.42168  1.0000
  C   C1359     1.0  0.90564  0.30797  0.23810  1.0000
  H   H2385     1.0  0.94537  0.24187  0.24259  1.0000
  H   H2386     1.0  0.95421  0.25976  0.26363  1.0000
  H   H2387     1.0  0.94055  0.25035  0.29415  1.0000
  H   H2388     1.0  0.92622  0.27263  0.29517  1.0000
  H   H2389     1.0  0.92604  0.26510  0.23717  1.0000
  H   H2390     1.0  0.92957  0.31650  0.23297  1.0000
  H   H2391     1.0  0.93994  0.35140  0.25930  1.0000
  H   H2392     1.0  0.93102  0.33820  0.28403  1.0000
  H   H2393     1.0  0.95784  0.31851  0.27944  1.0000
  H   H2394     1.0  0.94822  0.30674  0.30423  1.0000
  H   H2395     1.0  0.94735  0.30524  0.21805  1.0000
  H   H2396     1.0  0.95591  0.32690  0.23911  1.0000
  H   H2397     1.0  0.91524  0.33888  0.26224  1.0000
  H   H2398     1.0  0.91155  0.28803  0.27129  1.0000
  H   H2399     1.0  0.91997  0.22198  0.26710  1.0000
  H   H2400     1.0  0.93476  0.20056  0.26556  1.0000
  H   H2401     1.0  0.92179  0.16109  0.29276  1.0000
  H   H2402     1.0  0.93327  0.18301  0.30776  1.0000
  H   H2403     1.0  0.91846  0.20493  0.30938  1.0000
  H   H2404     1.0  0.95900  0.36888  0.30839  1.0000
  H   H2405     1.0  0.95266  0.39204  0.28301  1.0000
  H   H2406     1.0  0.96466  0.04048  0.44665  1.0000
  Fe  Fe154     1.0  0.89627  0.47240  0.28399  1.0000
  H   H2407     1.0  0.84629  0.02648  0.42069  1.0000
  H   H2408     1.0  0.83503  0.12406  0.44466  1.0000
  H   H2409     1.0  0.90399  0.27658  0.23348  1.0000
  H   H2410     1.0  0.89725  0.32233  0.24469  1.0000
  H   H2411     1.0  0.90869  0.32571  0.22235  1.0000
  H   H2412     1.0  0.91021  0.28831  0.02435  1.0000
  N   N73       1.0  0.81088  0.14797  0.44038  1.0000
  C   C1360     1.0  0.79732  0.21288  0.43589  1.0000
  H   H2413     1.0  0.95723  0.08963  0.44494  1.0000
  N   N74       1.0  0.77597  0.32129  0.20581  1.0000
  C   C1361     1.0  0.76745  0.35727  0.20781  1.0000
  C   C1362     1.0  0.77359  0.29050  0.22551  1.0000
  C   C1363     1.0  0.78820  0.33654  0.20791  1.0000
  C   C1364     1.0  0.77572  0.30224  0.18283  1.0000
  C   C1365     1.0  0.76362  0.28873  0.17569  1.0000
  C   C1366     1.0  0.76897  0.39214  0.18919  1.0000
  C   C1367     1.0  0.79835  0.30377  0.20912  1.0000
  C   C1368     1.0  0.76057  0.28507  0.23421  1.0000
  C   C1369     1.0  0.75944  0.24912  0.25160  1.0000
  C   C1370     1.0  0.74697  0.06650  0.48502  1.0000
  H   H2414     1.0  0.84284  0.45105  0.36688  1.0000
  C   C1371     1.0  0.81005  0.32290  0.21312  1.0000
  H   H2415     1.0  0.76816  0.37063  0.22486  1.0000
  H   H2416     1.0  0.75819  0.34808  0.20759  1.0000
  H   H2417     1.0  0.77742  0.26018  0.22110  1.0000
  H   H2418     1.0  0.77812  0.29887  0.24109  1.0000
  H   H2419     1.0  0.78842  0.35443  0.22355  1.0000
  H   H2420     1.0  0.79067  0.35764  0.19310  1.0000
  H   H2421     1.0  0.77945  0.32296  0.16886  1.0000
  H   H2422     1.0  0.78162  0.27466  0.18245  1.0000
  H   H2423     1.0  0.75670  0.31307  0.17730  1.0000
  H   H2424     1.0  0.76095  0.26161  0.18635  1.0000
  H   H2425     1.0  0.85654  0.44396  0.22267  1.0000
  H   H2426     1.0  0.76896  0.38090  0.17157  1.0000
  H   H2427     1.0  0.79947  0.28790  0.19276  1.0000
  H   H2428     1.0  0.79671  0.28099  0.22344  1.0000
  H   H2429     1.0  0.75721  0.31241  0.24307  1.0000
  H   H2430     1.0  0.75470  0.28051  0.22013  1.0000
  H   H2431     1.0  0.97390  0.37957  0.99274  1.0000
  H   H2432     1.0  0.76519  0.25246  0.26618  1.0000
  Fe  Fe155     1.0  0.73086  0.26050  0.33183  1.0000
  H   H2433     1.0  0.75018  0.24778  0.25869  1.0000
  H   H2434     1.0  0.75559  0.26616  0.14605  1.0000
  H   H2435     1.0  0.74055  0.08709  0.40345  1.0000
  C   C1372     1.0  0.77013  0.47210  0.33286  1.0000
  C   C1373     1.0  0.77888  0.44165  0.32085  1.0000
  H   H2436     1.0  0.81719  0.29906  0.21370  1.0000
  H   H2437     1.0  0.81234  0.34545  0.19897  1.0000
  H   H2438     1.0  0.80954  0.33809  0.22978  1.0000
  H   H2439     1.0  0.76186  0.22028  0.24325  1.0000
  N   N75       1.0  0.89834  0.33849  0.03342  1.0000
  C   C1374     1.0  0.90255  0.34080  0.05748  1.0000
  C   C1375     1.0  0.88519  0.34715  0.03374  1.0000
  H   H2440     1.0  0.73818  0.99572  0.39581  1.0000
  H   H2441     1.0  0.74267  0.45864  0.26476  1.0000
  C   C1376     1.0  0.91551  0.32565  0.06060  1.0000
  C   C1377     1.0  0.88074  0.38981  0.04072  1.0000
  C   C1378     1.0  0.76428  0.27675  0.15061  1.0000
  C   C1379     1.0  0.78715  0.47651  0.13872  1.0000
  H   H2442     1.0  0.77857  0.00142  0.39103  1.0000
  H   H2443     1.0  0.89692  0.32237  0.06991  1.0000
  H   H2444     1.0  0.90151  0.37196  0.06363  1.0000
  H   H2445     1.0  0.75884  0.40324  0.32467  1.0000
  H   H2446     1.0  0.88057  0.32423  0.04526  1.0000
  C   C1380     1.0  0.87720  0.00748  0.38227  1.0000
  C   C1381     1.0  0.91230  0.43709  0.00533  1.0000
  C   C1382     1.0  0.84401  0.46820  0.24797  1.0000
  C   C1383     1.0  0.75397  0.42556  0.33565  1.0000
  H   H2447     1.0  0.91606  0.29197  0.06158  1.0000
  H   H2448     1.0  0.92142  0.33605  0.04593  1.0000
  H   H2449     1.0  0.88369  0.39694  0.05785  1.0000
  H   H2450     1.0  0.85073  0.41781  0.31993  1.0000
  H   H2451     1.0  0.94997  0.47698  0.16815  1.0000
  C   C1384     1.0  0.81909  0.13105  0.48077  1.0000
  S   S311      1.0  0.83198  0.46576  0.22959  1.0000
  H   H2452     1.0  0.84858  0.38824  0.34665  1.0000
  H   H2453     1.0  0.81886  0.08715  0.44129  1.0000
  S   S312      1.0  0.80055  0.47315  0.26659  1.0000
  H   H2454     1.0  0.97110  0.44037  0.10963  1.0000
  H   H2455     1.0  0.77596  0.47815  0.08494  1.0000
  H   H2456     1.0  0.73875  0.41161  0.31635  1.0000
  C   C1385     1.0  0.75050  0.03429  0.46777  1.0000
  H   H2457     1.0  0.79047  0.23249  0.40262  1.0000
  H   H2458     1.0  0.80523  0.23144  0.43302  1.0000
  H   H2459     1.0  0.87584  0.99944  0.36433  1.0000
  C   C1386     1.0  0.81505  0.05359  0.40299  1.0000
  C   C1387     1.0  0.86727  0.39315  0.04175  1.0000
  C   C1388     1.0  0.92028  0.34010  0.08271  1.0000
  H   H2460     1.0  0.95497  0.06235  0.48430  1.0000
  H   H2461     1.0  0.80343  0.08869  0.44395  1.0000
  H   H2462     1.0  0.77330  0.09644  0.38871  1.0000
  H   H2463     1.0  0.77757  0.41017  0.32772  1.0000
  H   H2464     1.0  0.93568  0.03510  0.38603  1.0000
  H   H2465     1.0  0.87459  0.99974  0.42775  1.0000
  H   H2466     1.0  0.76025  0.44886  0.17825  1.0000
  H   H2467     1.0  0.97115  0.01416  0.48655  1.0000
  H   H2468     1.0  0.76232  0.03403  0.41575  1.0000
  C   C1389     1.0  0.73831  0.02125  0.40755  1.0000
  H   H2469     1.0  0.79768  0.42911  0.31612  1.0000
  H   H2470     1.0  0.79217  0.15098  0.43528  1.0000
  C   C1390     1.0  0.79162  0.45121  0.32497  1.0000
  H   H2471     1.0  0.84513  0.18939  0.43897  1.0000
  H   H2472     1.0  0.82047  0.18255  0.41324  1.0000
  C   C1391     1.0  0.80932  0.15124  0.46616  1.0000
  C   C1392     1.0  0.90889  0.40701  0.02504  1.0000
  H   H2473     1.0  0.91474  0.32954  0.09795  1.0000
  H   H2474     1.0  0.75031  0.41048  0.18901  1.0000
  H   H2475     1.0  0.81019  0.03014  0.41347  1.0000
  H   H2476     1.0  0.75869  0.43707  0.20877  1.0000
  C   C1393     1.0  0.81102  0.10389  0.43473  1.0000
  H   H2477     1.0  0.86343  0.33673  0.35165  1.0000
  S   S313      1.0  0.82707  0.00354  0.45223  1.0000
  H   H2478     1.0  0.94337  0.37940  0.30852  1.0000
  Fe  Fe156     1.0  0.80895  0.99798  0.47192  1.0000
  C   C1394     1.0  0.85174  0.07447  0.47821  1.0000
  H   H2479     1.0  0.89720  0.27359  0.04035  1.0000
  H   H2480     1.0  0.86722  0.45233  0.33367  1.0000
  H   H2481     1.0  0.88467  0.02822  0.38190  1.0000
  C   C1395     1.0  0.93611  0.00281  0.38366  1.0000
  C   C1396     1.0  0.88055  0.99963  0.46959  1.0000
  H   H2482     1.0  0.73624  0.04153  0.36012  1.0000
  S   S314      1.0  0.93368  0.14699  0.46706  1.0000
  C   C1397     1.0  0.83347  0.14320  0.42897  1.0000
  C   C1398     1.0  0.96452  0.27786  0.22150  1.0000
  C   C1399     1.0  0.86412  0.47759  0.27415  1.0000
  H   H2483     1.0  0.90979  0.24482  0.99155  1.0000
  H   H2484     1.0  0.73186  0.32751  0.99118  1.0000
  S   S315      1.0  0.79812  0.44448  0.06332  1.0000
  H   H2485     1.0  0.86427  0.42416  0.04645  1.0000
  H   H2486     1.0  0.77731  0.40769  0.19105  1.0000
  H   H2487     1.0  0.82757  0.14588  0.47679  1.0000
  H   H2488     1.0  0.73471  0.43773  0.34230  1.0000
  H   H2489     1.0  0.90295  0.39631  0.37716  1.0000
  C   C1400     1.0  0.96381  0.07314  0.47854  1.0000
  H   H2490     1.0  0.86554  0.36823  0.37456  1.0000
  C   C1401     1.0  0.74426  0.04275  0.44484  1.0000
  N   N76       1.0  0.75725  0.46834  0.32831  1.0000
  Fe  Fe157     1.0  0.79410  0.45063  0.02451  1.0000
  C   C1402     1.0  0.90467  0.36670  0.01605  1.0000
  H   H2491     1.0  0.86351  0.37110  0.05488  1.0000
  C   C1403     1.0  0.96479  0.07202  0.45228  1.0000
  C   C1404     1.0  0.74195  0.05986  0.39309  1.0000
  H   H2492     1.0  0.88551  0.30665  0.27995  1.0000
  N   N77       1.0  0.74562  0.00960  0.42789  1.0000
  H   H2493     1.0  0.82457  0.05010  0.40630  1.0000
  H   H2494     1.0  0.77097  0.25181  0.14794  1.0000
  H   H2495     1.0  0.82013  0.09828  0.47783  1.0000
  C   C1405     1.0  0.87245  0.37704  0.31709  1.0000
  C   C1406     1.0  0.84413  0.16969  0.42433  1.0000
  H   H2496     1.0  0.97108  0.27097  0.23473  1.0000
  C   C1407     1.0  0.93503  0.29224  0.01011  1.0000
  H   H2497     1.0  0.75132  0.05788  0.38685  1.0000
  S   S316      1.0  0.79270  0.00757  0.45100  1.0000
  C   C1408     1.0  0.79343  0.45603  0.09231  1.0000
  Fe  Fe158     1.0  0.78602  0.04624  0.47964  1.0000
  C   C1409     1.0  0.75892  0.42398  0.19154  1.0000
  H   H2498     1.0  0.80101  0.09883  0.40389  1.0000
  H   H2499     1.0  0.80890  0.18348  0.47077  1.0000
  H   H2500     1.0  0.86386  0.38745  0.02468  1.0000
  H   H2501     1.0  0.73791  0.08954  0.29184  1.0000
  H   H2502     1.0  0.89863  0.21890  0.00940  1.0000
  H   H2503     1.0  0.91269  0.35139  0.00819  1.0000
  H   H2504     1.0  0.94789  0.99886  0.45480  1.0000
  H   H2505     1.0  0.88547  0.28106  0.00660  1.0000
  H   H2506     1.0  0.81540  0.11821  0.39774  1.0000
  H   H2507     1.0  0.95313  0.00349  0.36546  1.0000
  H   H2508     1.0  0.74800  0.07125  0.43714  1.0000
  H   H2509     1.0  0.86348  0.36692  0.31413  1.0000
  N   N78       1.0  0.87317  0.39026  0.34143  1.0000
  H   H2510     1.0  0.87404  0.45139  0.24578  1.0000
  C   C1410     1.0  0.82178  0.16925  0.43092  1.0000
  H   H2511     1.0  0.90498  0.44265  0.35980  1.0000
  C   C1411     1.0  0.87947  0.33246  0.28460  1.0000
  H   H2512     1.0  0.87107  0.27151  0.36882  1.0000
  H   H2513     1.0  0.88349  0.27135  0.38669  1.0000
  H   H2514     1.0  0.74467  0.35024  0.34140  1.0000
  C   C1412     1.0  0.87589  0.29007  0.38036  1.0000
  H   H2515     1.0  0.87406  0.40316  0.30462  1.0000
  H   H2516     1.0  0.88385  0.41295  0.02758  1.0000
  H   H2517     1.0  0.91679  0.40106  0.03526  1.0000
  Fe  Fe159     1.0  0.81183  0.47587  0.23388  1.0000
  C   C1413     1.0  0.84157  0.05178  0.47626  1.0000
  C   C1414     1.0  0.88037  0.32810  0.36731  1.0000
  C   C1415     1.0  0.88663  0.42749  0.36720  1.0000
  H   H2518     1.0  0.88644  0.31819  0.35311  1.0000
  H   H2519     1.0  0.85226  0.15013  0.42242  1.0000
  C   C1416     1.0  0.85150  0.41773  0.33889  1.0000
  C   C1417     1.0  0.89515  0.28396  0.00390  1.0000
  H   H2520     1.0  0.86907  0.02338  0.38912  1.0000
  H   H2521     1.0  0.76020  0.03483  0.46453  1.0000
  C   C1418     1.0  0.87003  0.35616  0.35872  1.0000
  H   H2522     1.0  0.80451  0.45322  0.14628  1.0000
  S   S317      1.0  0.77709  0.45391  0.00580  1.0000
  C   C1419     1.0  0.94600  0.98478  0.37204  1.0000
  H   H2523     1.0  0.96441  0.10520  0.48277  1.0000
  H   H2524     1.0  0.73312  0.02912  0.31548  1.0000
  C   C1420     1.0  0.86536  0.46038  0.25266  1.0000
  C   C1421     1.0  0.89945  0.42774  0.37376  1.0000
  H   H2525     1.0  0.91564  0.46480  0.01236  1.0000
  H   H2526     1.0  0.73479  0.05056  0.44876  1.0000
  H   H2527     1.0  0.93663  0.98878  0.43558  1.0000
  C   C1422     1.0  0.79826  0.45885  0.13302  1.0000
  C   C1423     1.0  0.96658  0.47948  0.14811  1.0000
  C   C1424     1.0  0.80135  0.44883  0.11004  1.0000
  H   H2528     1.0  0.81001  0.43561  0.10592  1.0000
  H   H2529     1.0  0.73614  0.47580  0.30436  1.0000
  C   C1425     1.0  0.78227  0.47313  0.09810  1.0000
  H   H2530     1.0  0.73745  0.06521  0.49015  1.0000
  C   C1426     1.0  0.97888  0.44851  0.09847  1.0000
  H   H2531     1.0  0.97306  0.08598  0.44537  1.0000
  H   H2532     1.0  0.76357  0.99247  0.43561  1.0000
  H   H2533     1.0  0.90453  0.44592  0.99516  1.0000
  H   H2534     1.0  0.77145  0.46904  0.35172  1.0000
  H   H2535     1.0  0.79319  0.44893  0.34366  1.0000
  C   C1427     1.0  0.90018  0.24321  0.99585  1.0000
  H   H2536     1.0  0.97536  0.12922  0.18153  1.0000
  C   C1428     1.0  0.97349  0.04566  0.48968  1.0000
  C   C1429     1.0  0.94256  0.46986  0.95482  1.0000
  C   C1430     1.0  0.78164  0.21479  0.83177  1.0000
  Fe  Fe160     1.0  0.90672  0.06284  0.81169  1.0000
  S   S318      1.0  0.89998  0.07491  0.77616  1.0000
  S   S319      1.0  0.89988  0.10497  0.84028  1.0000
  Fe  Fe161     1.0  0.89669  0.00835  0.77638  1.0000
  H   H2537     1.0  0.82300  0.11906  0.51660  1.0000
  Fe  Fe162     1.0  0.91849  0.05883  0.76294  1.0000
  S   S320      1.0  0.92675  0.10404  0.73626  1.0000
  H   H2538     1.0  0.81075  0.00273  0.81278  1.0000
  S   S321      1.0  0.92537  0.05063  0.79845  1.0000
  C   C1431     1.0  0.73294  0.06377  0.76844  1.0000
  H   H2539     1.0  0.86597  0.04806  0.77810  1.0000
  S   S322      1.0  0.77934  0.35198  0.96788  1.0000
  H   H2540     1.0  0.82165  0.11125  0.77315  1.0000
  H   H2541     1.0  0.86981  0.42398  0.93960  1.0000
  Fe  Fe163     1.0  0.91060  0.40620  0.91391  1.0000
  S   S323      1.0  0.90587  0.39729  0.95169  1.0000
  H   H2542     1.0  0.96966  0.11384  0.51747  1.0000
  Fe  Fe164     1.0  0.91139  0.31418  0.90707  1.0000
  S   S324      1.0  0.90720  0.29979  0.94487  1.0000
  S   S325      1.0  0.91786  0.26871  0.87986  1.0000
  Fe  Fe165     1.0  0.89335  0.35113  0.94206  1.0000
  S   S326      1.0  0.87555  0.34484  0.96260  1.0000
  Fe  Fe166     1.0  0.91992  0.34776  0.95217  1.0000
  H   H2543     1.0  0.94404  0.47130  0.84095  1.0000
  S   S327      1.0  0.89696  0.36318  0.90378  1.0000
  S   S328      1.0  0.92514  0.35877  0.91468  1.0000
  C   C1432     1.0  0.91193  0.29912  0.81218  1.0000
  H   H2544     1.0  0.78721  0.15285  0.83767  1.0000
  H   H2545     1.0  0.82538  0.04688  0.70253  1.0000
  H   H2546     1.0  0.90262  0.30999  0.81073  1.0000
  S   S329      1.0  0.75264  0.15508  0.84534  1.0000
  Fe  Fe167     1.0  0.73257  0.27876  0.87912  1.0000
  H   H2547     1.0  0.83715  0.43537  0.88090  1.0000
  H   H2548     1.0  0.92441  0.08406  0.61441  1.0000
  S   S330      1.0  0.96592  0.18901  0.62338  1.0000
  N   N79       1.0  0.97510  0.05036  0.51498  1.0000
  Fe  Fe168     1.0  0.96498  0.17000  0.58680  1.0000
  S   S331      1.0  0.94685  0.17269  0.57100  1.0000
  C   C1433     1.0  0.97068  0.37418  0.97550  1.0000
  S   S332      1.0  0.79884  0.04467  0.72113  1.0000
  Fe  Fe169     1.0  0.78258  0.02785  0.74235  1.0000
  S   S333      1.0  0.76809  0.07561  0.75031  1.0000
  C   C1434     1.0  0.73466  0.23485  0.94777  1.0000
  C   C1435     1.0  0.94826  0.16715  0.50072  1.0000
  C   C1436     1.0  0.95145  0.17249  0.52346  1.0000
  C   C1437     1.0  0.94331  0.16584  0.54199  1.0000
  C   C1438     1.0  0.93192  0.15412  0.53739  1.0000
  C   C1439     1.0  0.92876  0.14833  0.51465  1.0000
  H   H2549     1.0  0.95493  0.37150  0.90437  1.0000
  H   H2550     1.0  0.96014  0.18244  0.52665  1.0000
  H   H2551     1.0  0.92550  0.14918  0.55147  1.0000
  Fe  Fe170     1.0  0.80876  0.99863  0.74317  1.0000
  C   C1440     1.0  0.75647  0.13260  0.81884  1.0000
  C   C1441     1.0  0.75216  0.14825  0.79805  1.0000
  C   C1442     1.0  0.75581  0.13045  0.77723  1.0000
  C   C1443     1.0  0.76374  0.09678  0.77697  1.0000
  C   C1444     1.0  0.76798  0.08098  0.79775  1.0000
  C   C1445     1.0  0.76438  0.09884  0.81858  1.0000
  H   H2552     1.0  0.87873  0.03772  0.49890  1.0000
  H   H2553     1.0  0.75248  0.14295  0.76122  1.0000
  H   H2554     1.0  0.77411  0.05524  0.79770  1.0000
  H   H2555     1.0  0.76777  0.08658  0.83459  1.0000
  C   C1446     1.0  0.79010  0.17905  0.82635  1.0000
  C   C1447     1.0  0.76753  0.34658  0.94954  1.0000
  C   C1448     1.0  0.75963  0.37867  0.94418  1.0000
  C   C1449     1.0  0.75042  0.37302  0.92948  1.0000
  C   C1450     1.0  0.74911  0.33554  0.91962  1.0000
  C   C1451     1.0  0.75708  0.30352  0.92481  1.0000
  C   C1452     1.0  0.76614  0.30890  0.93992  1.0000
  H   H2556     1.0  0.76057  0.40781  0.95143  1.0000
  Fe  Fe171     1.0  0.79520  0.99446  0.69794  1.0000
  H   H2557     1.0  0.75623  0.27464  0.91725  1.0000
  H   H2558     1.0  0.77221  0.28390  0.94392  1.0000
  C   C1453     1.0  0.84155  0.42728  0.96365  1.0000
  S   S334      1.0  0.79686  0.01612  0.65942  1.0000
  C   C1454     1.0  0.86216  0.41449  0.95001  1.0000
  C   C1455     1.0  0.86266  0.37761  0.96285  1.0000
  H   H2559     1.0  0.74430  0.39798  0.92562  1.0000
  C   C1456     1.0  0.84213  0.39082  0.97690  1.0000
  H   H2560     1.0  0.79565  0.01964  0.81809  1.0000
  S   S335      1.0  0.79368  0.45909  0.95672  1.0000
  C   C1457     1.0  0.84817  0.03652  0.76906  1.0000
  C   C1458     1.0  0.90525  0.14926  0.85215  1.0000
  C   C1459     1.0  0.89755  0.17331  0.86603  1.0000
  C   C1460     1.0  0.90127  0.20940  0.87506  1.0000
  C   C1461     1.0  0.91277  0.22215  0.87025  1.0000
  C   C1462     1.0  0.92049  0.19791  0.85650  1.0000
  C   C1463     1.0  0.91681  0.16160  0.84771  1.0000
  H   H2561     1.0  0.88860  0.16405  0.86973  1.0000
  H   H2562     1.0  0.89519  0.22755  0.88555  1.0000
  H   H2563     1.0  0.92944  0.20717  0.85279  1.0000
  H   H2564     1.0  0.92291  0.14294  0.83763  1.0000
  C   C1464     1.0  0.93884  0.09701  0.71612  1.0000
  C   C1465     1.0  0.94311  0.05853  0.71011  1.0000
  C   C1466     1.0  0.95218  0.05456  0.69279  1.0000
  C   C1467     1.0  0.95716  0.08887  0.68145  1.0000
  C   C1468     1.0  0.95303  0.12733  0.68778  1.0000
  C   C1469     1.0  0.94388  0.13134  0.70492  1.0000
  H   H2565     1.0  0.93919  0.03189  0.71829  1.0000
  H   H2566     1.0  0.95524  0.02473  0.68781  1.0000
  H   H2567     1.0  0.95695  0.15394  0.67954  1.0000
  H   H2568     1.0  0.94069  0.16125  0.70952  1.0000
  H   H2569     1.0  0.77255  0.20827  0.82728  1.0000
  H   H2570     1.0  0.83274  0.19310  0.77919  1.0000
  H   H2571     1.0  0.73032  0.08683  0.78118  1.0000
  H   H2572     1.0  0.79001  0.09163  0.81103  1.0000
  H   H2573     1.0  0.83867  0.36469  0.89561  1.0000
  Fe  Fe172     1.0  0.79432  0.98444  0.51765  1.0000
  N   N80       1.0  0.92622  0.13469  0.63617  1.0000
  C   C1470     1.0  0.92336  0.11394  0.65935  1.0000
  C   C1471     1.0  0.93523  0.16611  0.63903  1.0000
  C   C1472     1.0  0.91503  0.15382  0.62705  1.0000
  C   C1473     1.0  0.93126  0.10484  0.61915  1.0000
  C   C1474     1.0  0.94217  0.07896  0.62667  1.0000
  C   C1475     1.0  0.74357  0.19910  0.94632  1.0000
  C   C1476     1.0  0.91658  0.18260  0.60528  1.0000
  C   C1477     1.0  0.93119  0.20140  0.65457  1.0000
  C   C1478     1.0  0.94060  0.23317  0.65453  1.0000
  H   H2574     1.0  0.96726  0.02389  0.54680  1.0000
  C   C1479     1.0  0.95422  0.06609  0.53451  1.0000
  C   C1480     1.0  0.90468  0.19903  0.59723  1.0000
  H   H2575     1.0  0.91893  0.13571  0.67125  1.0000
  H   H2576     1.0  0.93157  0.10362  0.66775  1.0000
  H   H2577     1.0  0.94318  0.15189  0.64678  1.0000
  H   H2578     1.0  0.93852  0.17897  0.62194  1.0000
  H   H2579     1.0  0.90999  0.17079  0.64062  1.0000
  H   H2580     1.0  0.90906  0.12994  0.62246  1.0000
  S   S336      1.0  0.82829  0.45802  0.96177  1.0000
  H   H2581     1.0  0.93406  0.12094  0.60271  1.0000
  H   H2582     1.0  0.94033  0.06111  0.64299  1.0000
  H   H2583     1.0  0.94966  0.09861  0.62891  1.0000
  S   S337      1.0  0.73141  0.21165  0.88733  1.0000
  H   H2584     1.0  0.75250  0.21049  0.94183  1.0000
  H   H2585     1.0  0.92104  0.16653  0.59083  1.0000
  H   H2586     1.0  0.92185  0.20901  0.60863  1.0000
  H   H2587     1.0  0.92300  0.21699  0.64877  1.0000
  H   H2588     1.0  0.92965  0.18990  0.67264  1.0000
  H   H2589     1.0  0.93741  0.25833  0.66546  1.0000
  H   H2590     1.0  0.94882  0.21969  0.66160  1.0000
  H   H2591     1.0  0.94257  0.24585  0.63677  1.0000
  C   C1481     1.0  0.80494  0.02872  0.81822  1.0000
  C   C1482     1.0  0.84073  0.01041  0.75868  1.0000
  C   C1483     1.0  0.79529  0.99999  0.63078  1.0000
  S   S338      1.0  0.74057  0.27118  0.84338  1.0000
  S   S339      1.0  0.91307  0.47296  0.90337  1.0000
  H   H2592     1.0  0.83747  0.00659  0.62191  1.0000
  H   H2593     1.0  0.90608  0.21939  0.58164  1.0000
  H   H2594     1.0  0.89917  0.17387  0.59269  1.0000
  N   N81       1.0  0.81630  0.35259  0.92204  1.0000
  C   C1484     1.0  0.81966  0.34787  0.94678  1.0000
  C   C1485     1.0  0.82208  0.38952  0.91091  1.0000
  C   C1486     1.0  0.80310  0.36054  0.92219  1.0000
  C   C1487     1.0  0.81943  0.31535  0.90857  1.0000
  C   C1488     1.0  0.83055  0.28963  0.91551  1.0000
  C   C1489     1.0  0.81291  0.31542  0.96185  1.0000
  C   C1490     1.0  0.79793  0.37218  0.89848  1.0000
  C   C1491     1.0  0.83568  0.38769  0.90809  1.0000
  H   H2595     1.0  0.96966  0.39031  0.92933  1.0000
  C   C1492     1.0  0.83399  0.25817  0.89776  1.0000
  H   H2596     1.0  0.95226  0.99227  0.78209  1.0000
  H   H2597     1.0  0.83580  0.01810  0.57891  1.0000
  H   H2598     1.0  0.81809  0.37712  0.95540  1.0000
  H   H2599     1.0  0.82924  0.34121  0.94796  1.0000
  H   H2600     1.0  0.81918  0.39564  0.89313  1.0000
  H   H2601     1.0  0.81929  0.41684  0.92065  1.0000
  H   H2602     1.0  0.80039  0.38518  0.93394  1.0000
  H   H2603     1.0  0.79838  0.33345  0.92936  1.0000
  H   H2604     1.0  0.81205  0.29398  0.90995  1.0000
  H   H2605     1.0  0.82050  0.32398  0.88986  1.0000
  H   H2606     1.0  0.82883  0.27297  0.93228  1.0000
  H   H2607     1.0  0.83828  0.30822  0.91737  1.0000
  H   H2608     1.0  0.80409  0.32805  0.96737  1.0000
  H   H2609     1.0  0.82073  0.03103  0.58802  1.0000
  H   H2610     1.0  0.80148  0.35165  0.88508  1.0000
  H   H2611     1.0  0.80005  0.40383  0.89302  1.0000
  H   H2612     1.0  0.83980  0.38044  0.92466  1.0000
  S   S340      1.0  0.93431  0.35703  0.97744  1.0000
  H   H2613     1.0  0.84444  0.06376  0.77650  1.0000
  H   H2614     1.0  0.96260  0.35635  0.97792  1.0000
  H   H2615     1.0  0.95263  0.06362  0.79395  1.0000
  H   H2616     1.0  0.82662  0.23769  0.89588  1.0000
  H   H2617     1.0  0.83640  0.27330  0.88079  1.0000
  H   H2618     1.0  0.84175  0.23961  0.90347  1.0000
  H   H2619     1.0  0.93955  0.02711  0.53033  1.0000
  H   H2620     1.0  0.82208  0.00592  0.62954  1.0000
  Fe  Fe173     1.0  0.80955  0.45384  0.97867  1.0000
  C   C1493     1.0  0.74164  0.99261  0.76377  1.0000
  C   C1494     1.0  0.78452  0.37036  0.89964  1.0000
  H   H2621     1.0  0.95417  0.03165  0.61406  1.0000
  H   H2622     1.0  0.95618  0.41287  0.85583  1.0000
  H   H2623     1.0  0.83450  0.38153  0.98738  1.0000
  H   H2624     1.0  0.78447  0.24277  0.82204  1.0000
  H   H2625     1.0  0.83732  0.45304  0.90979  1.0000
  H   H2626     1.0  0.74130  0.17857  0.93280  1.0000
  C   C1495     1.0  0.88277  0.00773  0.49458  1.0000
  H   H2627     1.0  0.78096  0.15695  0.79820  1.0000
  Fe  Fe174     1.0  0.92072  0.98466  0.79694  1.0000
  H   H2628     1.0  0.78177  0.33895  0.90398  1.0000
  H   H2629     1.0  0.81014  0.19221  0.78872  1.0000
  H   H2630     1.0  0.82543  0.03240  0.66184  1.0000
  C   C1496     1.0  0.79625  0.12751  0.76842  1.0000
  C   C1497     1.0  0.79359  0.16367  0.75120  1.0000
  H   H2631     1.0  0.90655  0.08681  0.65263  1.0000
  H   H2632     1.0  0.90908  0.08213  0.69541  1.0000
  C   C1498     1.0  0.79364  0.15045  0.72644  1.0000
  H   H2633     1.0  0.78834  0.10865  0.76979  1.0000
  H   H2634     1.0  0.80321  0.10771  0.76029  1.0000
  H   H2635     1.0  0.81874  0.15669  0.75641  1.0000
  H   H2636     1.0  0.80010  0.18759  0.75200  1.0000
  H   H2637     1.0  0.82822  0.28930  0.97909  1.0000
  H   H2638     1.0  0.93635  0.06767  0.54950  1.0000
  C   C1499     1.0  0.81934  0.30271  0.98359  1.0000
  H   H2639     1.0  0.96352  0.47427  0.75985  1.0000
  H   H2640     1.0  0.79159  0.17701  0.71474  1.0000
  H   H2641     1.0  0.80243  0.13736  0.72098  1.0000
  H   H2642     1.0  0.78683  0.12772  0.72481  1.0000
  C   C1500     1.0  0.85258  0.36618  0.97643  1.0000
  H   H2643     1.0  0.79908  0.18691  0.83075  1.0000
  C   C1501     1.0  0.96295  0.03904  0.76486  1.0000
  H   H2644     1.0  0.83572  0.14638  0.79589  1.0000
  H   H2645     1.0  0.92001  0.13902  0.51144  1.0000
  H   H2646     1.0  0.85285  0.33793  0.98660  1.0000
  H   H2647     1.0  0.97774  0.02623  0.69862  1.0000
  S   S341      1.0  0.80252  0.03952  0.49972  1.0000
  C   C1502     1.0  0.94317  0.04474  0.54392  1.0000
  C   C1503     1.0  0.80708  0.06516  0.80155  1.0000
  H   H2648     1.0  0.95677  0.08698  0.54766  1.0000
  H   H2649     1.0  0.85323  0.08769  0.49439  1.0000
  N   N82       1.0  0.91012  0.20963  0.77059  1.0000
  C   C1504     1.0  0.91830  0.17923  0.78247  1.0000
  C   C1505     1.0  0.89767  0.19511  0.77354  1.0000
  C   C1506     1.0  0.91357  0.21013  0.74514  1.0000
  C   C1507     1.0  0.91089  0.25189  0.77912  1.0000
  C   C1508     1.0  0.91354  0.25541  0.80490  1.0000
  C   C1509     1.0  0.93167  0.18607  0.77767  1.0000
  C   C1510     1.0  0.90578  0.23731  0.72910  1.0000
  C   C1511     1.0  0.89213  0.19238  0.79835  1.0000
  C   C1512     1.0  0.88043  0.17094  0.79947  1.0000
  C   C1513     1.0  0.93911  0.16444  0.79594  1.0000
  C   C1514     1.0  0.91123  0.23980  0.70452  1.0000
  H   H2650     1.0  0.91667  0.14799  0.77731  1.0000
  H   H2651     1.0  0.91647  0.17790  0.80131  1.0000
  H   H2652     1.0  0.89151  0.21569  0.76399  1.0000
  H   H2653     1.0  0.89722  0.16483  0.76606  1.0000
  H   H2654     1.0  0.91364  0.17881  0.73885  1.0000
  H   H2655     1.0  0.92271  0.22061  0.74190  1.0000
  H   H2656     1.0  0.91794  0.26865  0.76913  1.0000
  H   H2657     1.0  0.90258  0.26972  0.77588  1.0000
  H   H2658     1.0  0.92278  0.24551  0.80793  1.0000
  H   H2659     1.0  0.90783  0.23658  0.81665  1.0000
  H   H2660     1.0  0.93461  0.17389  0.76078  1.0000
  H   H2661     1.0  0.93363  0.21870  0.77700  1.0000
  H   H2662     1.0  0.90467  0.26853  0.73526  1.0000
  H   H2663     1.0  0.89696  0.22448  0.72809  1.0000
  H   H2664     1.0  0.89794  0.17528  0.81015  1.0000
  H   H2665     1.0  0.89028  0.22323  0.80467  1.0000
  H   H2666     1.0  0.87667  0.16990  0.81749  1.0000
  H   H2667     1.0  0.87403  0.18724  0.78825  1.0000
  H   H2668     1.0  0.88180  0.13923  0.79414  1.0000
  H   H2669     1.0  0.94860  0.16693  0.79080  1.0000
  H   H2670     1.0  0.93743  0.17859  0.81275  1.0000
  H   H2671     1.0  0.93705  0.13187  0.79786  1.0000
  H   H2672     1.0  0.91212  0.20909  0.69755  1.0000
  H   H2673     1.0  0.90548  0.25911  0.69332  1.0000
  H   H2674     1.0  0.92005  0.25326  0.70407  1.0000
  H   H2675     1.0  0.95699  0.46145  0.88862  1.0000
  Fe  Fe175     1.0  0.73820  0.20427  0.85044  1.0000
  C   C1515     1.0  0.85172  0.43916  0.95054  1.0000
  H   H2676     1.0  0.89684  0.30749  0.99006  1.0000
  H   H2677     1.0  0.78468  0.17718  0.75545  1.0000
  S   S342      1.0  0.73710  0.33008  0.90179  1.0000
  H   H2678     1.0  0.91780  0.31930  0.80142  1.0000
  C   C1516     1.0  0.96021  0.43569  0.89985  1.0000
  H   H2679     1.0  0.94860  0.06600  0.59189  1.0000
  H   H2680     1.0  0.83954  0.14967  0.76549  1.0000
  H   H2681     1.0  0.83292  0.99936  0.70917  1.0000
  C   C1517     1.0  0.73660  0.02400  0.78102  1.0000
  H   H2682     1.0  0.91419  0.30070  0.83045  1.0000
  Fe  Fe176     1.0  0.97430  0.12774  0.63086  1.0000
  H   H2683     1.0  0.80188  0.10960  0.82571  1.0000
  C   C1518     1.0  0.83293  0.15951  0.77901  1.0000
  C   C1519     1.0  0.82084  0.14454  0.77389  1.0000
  C   C1520     1.0  0.82711  0.00646  0.67417  1.0000
  C   C1521     1.0  0.82986  0.98627  0.62438  1.0000
  H   H2684     1.0  0.97598  0.47052  0.79312  1.0000
  H   H2685     1.0  0.74382  0.18172  0.96311  1.0000
  C   C1522     1.0  0.81118  0.15880  0.79193  1.0000
  H   H2686     1.0  0.89580  0.23528  0.98016  1.0000
  N   N83       1.0  0.79938  0.13906  0.79208  1.0000
  C   C1523     1.0  0.79916  0.10208  0.80839  1.0000
  C   C1524     1.0  0.78985  0.16863  0.80070  1.0000
  H   H2687     1.0  0.76220  0.99582  0.82691  1.0000
  H   H2688     1.0  0.83542  0.04745  0.49092  1.0000
  H   H2689     1.0  0.96533  0.05001  0.74695  1.0000
  H   H2690     1.0  0.94338  0.44393  0.96754  1.0000
  H   H2691     1.0  0.84034  0.03823  0.69158  1.0000
  C   C1525     1.0  0.91297  0.05901  0.68374  1.0000
  C   C1526     1.0  0.91523  0.07735  0.65936  1.0000
  H   H2692     1.0  0.74610  0.17429  0.79799  1.0000
  C   C1527     1.0  0.96809  0.41468  0.96259  1.0000
  H   H2693     1.0  0.94263  0.47896  0.91766  1.0000
  C   C1528     1.0  0.81617  0.13565  0.50648  1.0000
  H   H2694     1.0  0.79023  0.19789  0.79044  1.0000
  H   H2695     1.0  0.81487  0.15499  0.80929  1.0000
  C   C1529     1.0  0.95642  0.99887  0.76458  1.0000
  H   H2696     1.0  0.74037  0.07546  0.75721  1.0000
  H   H2697     1.0  0.95987  0.10089  0.77511  1.0000
  C   C1530     1.0  0.79606  0.01703  0.58903  1.0000
  H   H2698     1.0  0.81602  0.16808  0.51067  1.0000
  C   C1531     1.0  0.96455  0.03525  0.52942  1.0000
  H   H2699     1.0  0.78148  0.22017  0.85047  1.0000
  H   H2700     1.0  0.95528  0.38725  0.94256  1.0000
  C   C1532     1.0  0.79660  0.02846  0.61207  1.0000
  H   H2701     1.0  0.79715  0.03936  0.57495  1.0000
  C   C1533     1.0  0.95745  0.38683  0.86833  1.0000
  H   H2702     1.0  0.82376  0.99528  0.56594  1.0000
  H   H2703     1.0  0.79809  0.05970  0.61540  1.0000
  H   H2704     1.0  0.76201  0.00132  0.78454  1.0000
  N   N84       1.0  0.95875  0.44541  0.92497  1.0000
  H   H2705     1.0  0.94046  0.42893  0.92824  1.0000
  C   C1534     1.0  0.83178  0.02374  0.69562  1.0000
  H   H2706     1.0  0.94396  0.40616  0.89277  1.0000
  H   H2707     1.0  0.92792  0.44063  0.86566  1.0000
  C   C1535     1.0  0.95354  0.39856  0.89269  1.0000
  C   C1536     1.0  0.86545  0.99256  0.76050  1.0000
  H   H2708     1.0  0.89238  0.00832  0.49708  1.0000
  H   H2709     1.0  0.78060  0.39088  0.91277  1.0000
  C   C1537     1.0  0.96272  0.40812  0.93914  1.0000
  H   H2710     1.0  0.97583  0.47203  0.92379  1.0000
  H   H2711     1.0  0.73757  0.25429  0.96125  1.0000
  H   H2712     1.0  0.81867  0.99239  0.67945  1.0000
  H   H2713     1.0  0.89994  0.21664  0.61085  1.0000
  H   H2714     1.0  0.95210  0.36159  0.86331  1.0000
  C   C1538     1.0  0.95508  0.07220  0.77568  1.0000
  Fe  Fe177     1.0  0.78609  0.41056  0.98102  1.0000
  C   C1539     1.0  0.94623  0.04924  0.60838  1.0000
  H   H2715     1.0  0.96214  0.43324  0.97382  1.0000
  S   S343      1.0  0.77727  0.99521  0.49989  1.0000
  H   H2716     1.0  0.96687  0.37657  0.86757  1.0000
  H   H2717     1.0  0.80700  0.03583  0.83599  1.0000
  H   H2718     1.0  0.85148  0.46747  0.94043  1.0000
  H   H2719     1.0  0.74983  0.00499  0.75522  1.0000
  H   H2720     1.0  0.78106  0.38018  0.88270  1.0000
  C   C1540     1.0  0.82685  0.00613  0.58228  1.0000
  H   H2721     1.0  0.92130  0.04641  0.69073  1.0000
  H   H2722     1.0  0.94517  0.02408  0.55893  1.0000
  S   S344      1.0  0.82531  0.02356  0.75803  1.0000
  S   S345      1.0  0.97244  0.10754  0.59489  1.0000
  H   H2723     1.0  0.97097  0.03563  0.77487  1.0000
  S   S346      1.0  0.96857  0.08201  0.65981  1.0000
  H   H2724     1.0  0.81650  0.07215  0.80228  1.0000
  H   H2725     1.0  0.91923  0.05301  0.64872  1.0000
  H   H2726     1.0  0.96088  0.00879  0.52149  1.0000
  H   H2727     1.0  0.95181  0.08458  0.51906  1.0000
  H   H2728     1.0  0.93920  0.02782  0.60568  1.0000
  H   H2729     1.0  0.81155  0.28799  0.95225  1.0000
  C   C1541     1.0  0.94590  0.45566  0.93034  1.0000
  H   H2730     1.0  0.84438  0.99055  0.65932  1.0000
  H   H2731     1.0  0.96974  0.43085  0.89482  1.0000
  S   S347      1.0  0.90239  0.99630  0.81284  1.0000
  C   C1542     1.0  0.86042  0.02771  0.77001  1.0000
  H   H2732     1.0  0.80748  0.12302  0.51172  1.0000
  C   C1543     1.0  0.97744  0.09351  0.52029  1.0000
  H   H2733     1.0  0.77677  0.98581  0.81428  1.0000
  H   H2734     1.0  0.80526  0.05565  0.78418  1.0000
  S   S348      1.0  0.91487  0.99290  0.76042  1.0000
  H   H2735     1.0  0.96246  0.98924  0.72231  1.0000
  S   S349      1.0  0.79249  0.98494  0.76617  1.0000
  H   H2736     1.0  0.90674  0.03400  0.68349  1.0000
  H   H2737     1.0  0.97903  0.09532  0.53896  1.0000
  H   H2738     1.0  0.92375  0.46171  0.95253  1.0000
  H   H2739     1.0  0.74333  0.03099  0.79324  1.0000
  H   H2740     1.0  0.87874  0.98423  0.50645  1.0000
  H   H2741     1.0  0.73513  0.25188  0.93095  1.0000
  C   C1544     1.0  0.93085  0.47045  0.86896  1.0000
  H   H2742     1.0  0.85009  0.42666  0.89737  1.0000
  H   H2743     1.0  0.97754  0.35613  0.96583  1.0000
  H   H2744     1.0  0.94696  0.07761  0.76604  1.0000
  H   H2745     1.0  0.97659  0.43012  0.95985  1.0000
  H   H2746     1.0  0.75211  0.06109  0.50065  1.0000
  H   H2747     1.0  0.94902  0.00605  0.75319  1.0000
  H   H2748     1.0  0.73023  0.39320  0.82917  1.0000
  H   H2749     1.0  0.73536  0.99227  0.74976  1.0000
  C   C1545     1.0  0.93693  0.15478  0.49613  1.0000
  C   C1546     1.0  0.84030  0.42822  0.89842  1.0000
  C   C1547     1.0  0.96645  0.48066  0.92841  1.0000
  Fe  Fe178     1.0  0.79013  0.48390  0.20367  1.0000
  H   H2750     1.0  0.77477  0.76294  0.43850  1.0000
  H   H2751     1.0  0.73679  0.57227  0.34205  1.0000
  H   H2752     1.0  0.84230  0.92505  0.44974  1.0000
  S   S350      1.0  0.75612  0.78912  0.38720  1.0000
  C   C1548     1.0  0.78452  0.66074  0.00374  1.0000
  C   C1549     1.0  0.85086  0.90914  0.44540  1.0000
  H   H2753     1.0  0.82469  0.57148  0.28399  1.0000
  H   H2754     1.0  0.95810  0.91819  0.46359  1.0000
  H   H2755     1.0  0.75325  0.76123  0.44157  1.0000
  S   S351      1.0  0.80143  0.52968  0.21882  1.0000
  H   H2756     1.0  0.86039  0.94980  0.46403  1.0000
  Fe  Fe179     1.0  0.78925  0.52358  0.25081  1.0000
  S   S352      1.0  0.78445  0.57489  0.27517  1.0000
  C   C1550     1.0  0.74546  0.68399  0.43657  1.0000
  H   H2757     1.0  0.83702  0.74219  0.22339  1.0000
  S   S353      1.0  0.93391  0.56013  0.28521  1.0000
  Fe  Fe180     1.0  0.78476  0.95536  0.47191  1.0000
  S   S354      1.0  0.76991  0.91581  0.46061  1.0000
  H   H2758     1.0  0.97320  0.89685  0.48563  1.0000
  H   H2759     1.0  0.74197  0.52512  0.30007  1.0000
  H   H2760     1.0  0.81951  0.60436  0.23509  1.0000
  H   H2761     1.0  0.75190  0.69591  0.26264  1.0000
  Fe  Fe181     1.0  0.96466  0.85730  0.34501  1.0000
  S   S355      1.0  0.96275  0.80115  0.36795  1.0000
  S   S356      1.0  0.95936  0.92226  0.35376  1.0000
  Fe  Fe182     1.0  0.96038  0.76738  0.33560  1.0000
  S   S357      1.0  0.94592  0.71954  0.33789  1.0000
  S   S358      1.0  0.96077  0.82513  0.31313  1.0000
  H   H2762     1.0  0.77868  0.51022  0.04533  1.0000
  C   C1551     1.0  0.92746  0.93715  0.38868  1.0000
  C   C1552     1.0  0.93739  0.91906  0.37716  1.0000
  C   C1553     1.0  0.94667  0.94292  0.36861  1.0000
  C   C1554     1.0  0.75024  0.49766  0.34325  1.0000
  C   C1555     1.0  0.84313  0.71677  0.22865  1.0000
  H   H2763     1.0  0.92024  0.91858  0.39490  1.0000
  H   H2764     1.0  0.93779  0.88685  0.37458  1.0000
  H   H2765     1.0  0.76623  0.71129  0.46663  1.0000
  H   H2766     1.0  0.90178  0.93747  0.42722  1.0000
  H   H2767     1.0  0.75595  0.55218  0.32294  1.0000
  C   C1556     1.0  0.93652  0.60555  0.29959  1.0000
  C   C1557     1.0  0.94525  0.63159  0.29018  1.0000
  C   C1558     1.0  0.94812  0.66677  0.30135  1.0000
  C   C1559     1.0  0.94229  0.67662  0.32223  1.0000
  C   C1560     1.0  0.93342  0.65096  0.33147  1.0000
  C   C1561     1.0  0.93054  0.61578  0.32029  1.0000
  H   H2768     1.0  0.94988  0.62440  0.27411  1.0000
  H   H2769     1.0  0.95482  0.68632  0.29374  1.0000
  H   H2770     1.0  0.92877  0.65820  0.34752  1.0000
  H   H2771     1.0  0.92378  0.59641  0.32781  1.0000
  C   C1562     1.0  0.79113  0.63451  0.11733  1.0000
  S   S359      1.0  0.80205  0.50142  0.00224  1.0000
  H   H2772     1.0  0.85201  0.88316  0.45801  1.0000
  H   H2773     1.0  0.79597  0.53452  0.07655  1.0000
  C   C1563     1.0  0.75242  0.75907  0.46072  1.0000
  H   H2774     1.0  0.96384  0.66137  0.34395  1.0000
  C   C1564     1.0  0.74682  0.63863  0.43260  1.0000
  N   N85       1.0  0.74181  0.73520  0.46881  1.0000
  H   H2775     1.0  0.94920  0.51065  0.35852  1.0000
  N   N86       1.0  0.97022  0.89865  0.43617  1.0000
  H   H2776     1.0  0.75475  0.55635  0.04244  1.0000
  C   C1565     1.0  0.75958  0.82641  0.40677  1.0000
  C   C1566     1.0  0.77124  0.83944  0.40680  1.0000
  C   C1567     1.0  0.77456  0.86724  0.42278  1.0000
  C   C1568     1.0  0.76629  0.88192  0.43927  1.0000
  C   C1569     1.0  0.75463  0.86902  0.43914  1.0000
  C   C1570     1.0  0.75124  0.84206  0.42281  1.0000
  H   H2777     1.0  0.77779  0.82759  0.39450  1.0000
  H   H2778     1.0  0.78357  0.87662  0.42261  1.0000
  H   H2779     1.0  0.74819  0.87965  0.45197  1.0000
  H   H2780     1.0  0.74226  0.83251  0.42298  1.0000
  C   C1571     1.0  0.74932  0.63554  0.30187  1.0000
  C   C1572     1.0  0.74945  0.60860  0.28383  1.0000
  C   C1573     1.0  0.76007  0.58955  0.27554  1.0000
  C   C1574     1.0  0.77073  0.59735  0.28512  1.0000
  C   C1575     1.0  0.77060  0.62442  0.30308  1.0000
  C   C1576     1.0  0.75998  0.64334  0.31144  1.0000
  H   H2781     1.0  0.74128  0.60248  0.27618  1.0000
  H   H2782     1.0  0.76004  0.56935  0.26150  1.0000
  H   H2783     1.0  0.77878  0.63091  0.31056  1.0000
  H   H2784     1.0  0.76007  0.66409  0.32523  1.0000
  H   H2785     1.0  0.89938  0.89101  0.46412  1.0000
  C   C1577     1.0  0.83747  0.58049  0.24217  1.0000
  H   H2786     1.0  0.76163  0.73748  0.25760  1.0000
  H   H2787     1.0  0.77337  0.80007  0.46042  1.0000
  C   C1578     1.0  0.87994  0.96908  0.39699  1.0000
  H   H2788     1.0  0.81795  0.50446  0.04992  1.0000
  H   H2789     1.0  0.76973  0.59468  0.06074  1.0000
  C   C1579     1.0  0.89783  0.88165  0.44654  1.0000
  H   H2790     1.0  0.85163  0.50237  0.29933  1.0000
  H   H2791     1.0  0.73207  0.91762  0.47369  1.0000
  H   H2792     1.0  0.79792  0.63545  0.07139  1.0000
  C   C1580     1.0  0.75319  0.72805  0.26633  1.0000
  H   H2793     1.0  0.87245  0.94882  0.39624  1.0000
  H   H2794     1.0  0.75831  0.51557  0.06321  1.0000
  C   C1581     1.0  0.86433  0.57158  0.23482  1.0000
  H   H2795     1.0  0.96827  0.75833  0.42316  1.0000
  H   H2796     1.0  0.75432  0.62473  0.44200  1.0000
  H   H2797     1.0  0.78255  0.58305  0.10616  1.0000
  H   H2798     1.0  0.78242  0.63992  0.07505  1.0000
  H   H2799     1.0  0.79155  0.62139  0.13523  1.0000
  S   S360      1.0  0.73567  0.65896  0.31147  1.0000
  H   H2800     1.0  0.74779  0.95672  0.45102  1.0000
  H   H2801     1.0  0.77315  0.50276  0.32701  1.0000
  C   C1582     1.0  0.97844  0.87442  0.47540  1.0000
  C   C1583     1.0  0.96225  0.93064  0.44713  1.0000
  H   H2802     1.0  0.82163  0.53340  0.16805  1.0000
  H   H2803     1.0  0.79693  0.53030  0.04659  1.0000
  H   H2804     1.0  0.81693  0.51281  0.08044  1.0000
  H   H2805     1.0  0.75044  0.67537  0.47144  1.0000
  H   H2806     1.0  0.73503  0.67518  0.46845  1.0000
  H   H2807     1.0  0.73697  0.81594  0.29072  1.0000
  H   H2808     1.0  0.77711  0.68099  0.99803  1.0000
  H   H2809     1.0  0.74284  0.75172  0.23870  1.0000
  H   H2810     1.0  0.74500  0.78686  0.26039  1.0000
  H   H2811     1.0  0.75832  0.94481  0.40517  1.0000
  H   H2812     1.0  0.84191  0.61297  0.18499  1.0000
  H   H2813     1.0  0.88396  0.93525  0.47635  1.0000
  C   C1584     1.0  0.87572  0.54993  0.22621  1.0000
  C   C1585     1.0  0.95828  0.49365  0.16786  1.0000
  H   H2814     1.0  0.94712  0.92429  0.42525  1.0000
  H   H2815     1.0  0.85609  0.64811  0.21566  1.0000
  H   H2816     1.0  0.79901  0.62359  0.03290  1.0000
  H   H2817     1.0  0.82689  0.63091  0.25639  1.0000
  H   H2818     1.0  0.74076  0.49827  0.33976  1.0000
  S   S361      1.0  0.90911  0.49940  0.25709  1.0000
  H   H2819     1.0  0.87401  0.89318  0.45480  1.0000
  H   H2820     1.0  0.73273  0.88702  0.30072  1.0000
  H   H2821     1.0  0.82983  0.57654  0.15726  1.0000
  H   H2822     1.0  0.91655  0.88295  0.43626  1.0000
  C   C1586     1.0  0.82549  0.60087  0.24953  1.0000
  Fe  Fe183     1.0  0.92134  0.50627  0.28612  1.0000
  C   C1587     1.0  0.97818  0.50272  0.14657  1.0000
  C   C1588     1.0  0.73131  0.75391  0.45670  1.0000
  H   H2823     1.0  0.85930  0.58302  0.19951  1.0000
  S   S362      1.0  0.73356  0.76730  0.34065  1.0000
  H   H2824     1.0  0.85052  0.89774  0.42782  1.0000
  C   C1589     1.0  0.95211  0.94845  0.43243  1.0000
  C   C1590     1.0  0.92674  0.97911  0.39189  1.0000
  H   H2825     1.0  0.95969  0.77777  0.44741  1.0000
  H   H2826     1.0  0.75845  0.50629  0.03295  1.0000
  C   C1591     1.0  0.84271  0.48392  0.26990  1.0000
  H   H2827     1.0  0.82677  0.54449  0.20756  1.0000
  H   H2828     1.0  0.77542  0.55356  0.07772  1.0000
  C   C1592     1.0  0.90926  0.86137  0.43707  1.0000
  H   H2829     1.0  0.76200  0.49987  0.29567  1.0000
  H   H2830     1.0  0.73368  0.81819  0.46426  1.0000
  H   H2831     1.0  0.89235  0.90534  0.41376  1.0000
  H   H2832     1.0  0.84975  0.64317  0.24414  1.0000
  H   H2833     1.0  0.79195  0.58411  0.02042  1.0000
  H   H2834     1.0  0.78304  0.75608  0.46406  1.0000
  H   H2835     1.0  0.77690  0.95058  0.38197  1.0000
  Fe  Fe184     1.0  0.73137  0.69971  0.34189  1.0000
  N   N87       1.0  0.88353  0.94371  0.43915  1.0000
  H   H2836     1.0  0.95961  0.62936  0.38280  1.0000
  C   C1593     1.0  0.82468  0.56349  0.17240  1.0000
  C   C1594     1.0  0.77488  0.97147  0.39613  1.0000
  H   H2837     1.0  0.79915  0.65214  0.11318  1.0000
  C   C1595     1.0  0.79773  0.55226  0.06014  1.0000
  C   C1596     1.0  0.81080  0.56423  0.05871  1.0000
  H   H2838     1.0  0.94917  0.49172  0.32999  1.0000
  H   H2839     1.0  0.88011  0.56807  0.21189  1.0000
  C   C1597     1.0  0.89401  0.91822  0.43052  1.0000
  H   H2840     1.0  0.96664  0.91520  0.40068  1.0000
  H   H2841     1.0  0.76243  0.54493  0.35038  1.0000
  H   H2842     1.0  0.96138  0.54640  0.31407  1.0000
  S   S363      1.0  0.87647  0.48749  0.29043  1.0000
  H   H2843     1.0  0.81329  0.57736  0.04130  1.0000
  C   C1598     1.0  0.74146  0.96979  0.43851  1.0000
  C   C1599     1.0  0.76445  0.74383  0.46959  1.0000
  H   H2844     1.0  0.79220  0.67949  0.00623  1.0000
  C   C1600     1.0  0.96188  0.58059  0.34580  1.0000
  H   H2845     1.0  0.79835  0.58007  0.10309  1.0000
  H   H2846     1.0  0.97358  0.84595  0.47588  1.0000
  H   H2847     1.0  0.73860  0.62313  0.43837  1.0000
  H   H2848     1.0  0.77866  0.66024  0.03935  1.0000
  C   C1601     1.0  0.97520  0.60966  0.31536  1.0000
  C   C1602     1.0  0.81920  0.57560  0.26878  1.0000
  H   H2849     1.0  0.95410  0.60022  0.34109  1.0000
  C   C1603     1.0  0.88627  0.95841  0.46249  1.0000
  H   H2850     1.0  0.74854  0.63391  0.41396  1.0000
  H   H2851     1.0  0.96671  0.61090  0.30672  1.0000
  H   H2852     1.0  0.95535  0.79025  0.41835  1.0000
  C   C1604     1.0  0.79066  0.60696  0.03388  1.0000
  C   C1605     1.0  0.96767  0.68542  0.38763  1.0000
  H   H2853     1.0  0.83970  0.53706  0.18880  1.0000
  C   C1606     1.0  0.96340  0.86051  0.43516  1.0000
  H   H2854     1.0  0.77265  0.62174  0.02310  1.0000
  C   C1607     1.0  0.74301  0.75511  0.25758  1.0000
  H   H2855     1.0  0.81074  0.59116  0.27415  1.0000
  C   C1608     1.0  0.83914  0.67734  0.21940  1.0000
  H   H2856     1.0  0.85903  0.96386  0.43378  1.0000
  H   H2857     1.0  0.89098  0.85851  0.44781  1.0000
  H   H2858     1.0  0.73799  0.69621  0.42659  1.0000
  N   N88       1.0  0.78873  0.58656  0.05748  1.0000
  H   H2859     1.0  0.77515  0.55064  0.02489  1.0000
  H   H2860     1.0  0.81679  0.58334  0.17621  1.0000
  H   H2861     1.0  0.83003  0.67248  0.22627  1.0000
  Fe  Fe185     1.0  0.73935  0.75890  0.37715  1.0000
  S   S364      1.0  0.73849  0.69072  0.37702  1.0000
  H   H2862     1.0  0.94193  0.53961  0.33584  1.0000
  H   H2863     1.0  0.85215  0.72367  0.22166  1.0000
  C   C1609     1.0  0.96297  0.78490  0.42942  1.0000
  H   H2864     1.0  0.96814  0.48182  0.07337  1.0000
  C   C1610     1.0  0.79046  0.60037  0.10074  1.0000
  H   H2865     1.0  0.81251  0.58656  0.07160  1.0000
  C   C1611     1.0  0.73107  0.74249  0.26946  1.0000
  H   H2866     1.0  0.88185  0.54578  0.24047  1.0000
  H   H2867     1.0  0.73365  0.50468  0.26479  1.0000
  H   H2868     1.0  0.87234  0.90081  0.42491  1.0000
  H   H2869     1.0  0.82827  0.53629  0.06210  1.0000
  H   H2870     1.0  0.82874  0.61986  0.20212  1.0000
  H   H2871     1.0  0.75384  0.73040  0.28520  1.0000
  H   H2872     1.0  0.95644  0.86497  0.42242  1.0000
  C   C1612     1.0  0.76155  0.97559  0.40085  1.0000
  C   C1613     1.0  0.76043  0.52878  0.04564  1.0000
  H   H2873     1.0  0.90816  0.85068  0.41953  1.0000
  H   H2874     1.0  0.77057  0.49688  0.12511  1.0000
  H   H2875     1.0  0.85268  0.54081  0.21456  1.0000
  H   H2876     1.0  0.75064  0.48744  0.36174  1.0000
  C   C1614     1.0  0.77658  0.56971  0.06062  1.0000
  S   S365      1.0  0.77716  0.48171  0.23492  1.0000
  C   C1615     1.0  0.78994  0.61742  0.07541  1.0000
  H   H2877     1.0  0.75129  0.79092  0.46588  1.0000
  H   H2878     1.0  0.83894  0.68172  0.20036  1.0000
  H   H2879     1.0  0.84305  0.71457  0.24777  1.0000
  H   H2880     1.0  0.97470  0.97498  0.37689  1.0000
  C   C1616     1.0  0.96830  0.64274  0.37854  1.0000
  H   H2881     1.0  0.95855  0.85350  0.45190  1.0000
  H   H2882     1.0  0.97575  0.53390  0.14005  1.0000
  H   H2883     1.0  0.96050  0.57235  0.36447  1.0000
  C   C1617     1.0  0.74225  0.49071  0.26971  1.0000
  C   C1618     1.0  0.94967  0.51948  0.33985  1.0000
  N   N89       1.0  0.84394  0.59903  0.22122  1.0000
  C   C1619     1.0  0.83672  0.59978  0.20012  1.0000
  C   C1620     1.0  0.84771  0.64126  0.22570  1.0000
  C   C1621     1.0  0.74314  0.69145  0.46250  1.0000
  C   C1622     1.0  0.75420  0.54213  0.34119  1.0000
  C   C1623     1.0  0.96115  0.54058  0.33303  1.0000
  C   C1624     1.0  0.83228  0.55843  0.19331  1.0000
  H   H2884     1.0  0.97796  0.81456  0.43994  1.0000
  C   C1625     1.0  0.97069  0.82184  0.42832  1.0000
  C   C1626     1.0  0.74337  0.49294  0.29566  1.0000
  H   H2885     1.0  0.86667  0.60219  0.23957  1.0000
  H   H2886     1.0  0.96190  0.48518  0.13194  1.0000
  H   H2887     1.0  0.91173  0.83486  0.44849  1.0000
  C   C1627     1.0  0.77344  0.53893  0.04283  1.0000
  H   H2888     1.0  0.83602  0.54809  0.23973  1.0000
  H   H2889     1.0  0.97452  0.82563  0.41049  1.0000
  C   C1628     1.0  0.85492  0.57295  0.21631  1.0000
  H   H2890     1.0  0.73095  0.84653  0.26713  1.0000
  H   H2891     1.0  0.77922  0.95876  0.41171  1.0000
  H   H2892     1.0  0.95569  0.96798  0.41785  1.0000
  H   H2893     1.0  0.84295  0.58046  0.25744  1.0000
  H   H2894     1.0  0.93878  0.95543  0.46045  1.0000
  H   H2895     1.0  0.73342  0.75786  0.43785  1.0000
  H   H2896     1.0  0.86104  0.55482  0.25067  1.0000
  H   H2897     1.0  0.96849  0.51897  0.33725  1.0000
  C   C1629     1.0  0.77449  0.76721  0.45735  1.0000
  C   C1630     1.0  0.87296  0.91730  0.44100  1.0000
  S   S366      1.0  0.97986  0.75372  0.33024  1.0000
  C   C1631     1.0  0.97425  0.91183  0.41195  1.0000
  C   C1632     1.0  0.78080  0.63765  0.02618  1.0000
  H   H2898     1.0  0.81722  0.54541  0.26268  1.0000
  C   C1633     1.0  0.86084  0.93857  0.44639  1.0000
  C   C1634     1.0  0.97117  0.64403  0.35218  1.0000
  H   H2899     1.0  0.73229  0.90809  0.35391  1.0000
  H   H2900     1.0  0.78320  0.65509  0.11646  1.0000
  H   H2901     1.0  0.96560  0.68385  0.40649  1.0000
  H   H2902     1.0  0.87393  0.51961  0.22009  1.0000
  H   H2903     1.0  0.96065  0.70425  0.37928  1.0000
  H   H2904     1.0  0.97592  0.64487  0.27088  1.0000
  H   H2905     1.0  0.74132  0.94693  0.42514  1.0000
  H   H2906     1.0  0.95611  0.52661  0.16567  1.0000
  H   H2907     1.0  0.75365  0.69830  0.42963  1.0000
  C   C1635     1.0  0.81896  0.52715  0.06309  1.0000
  H   H2908     1.0  0.88797  0.95443  0.38890  1.0000
  N   N90       1.0  0.97307  0.60366  0.34123  1.0000
  S   S367      1.0  0.78274  0.49104  0.16732  1.0000
  H   H2909     1.0  0.96740  0.95648  0.45213  1.0000
  H   H2910     1.0  0.96234  0.48718  0.18466  1.0000
  H   H2911     1.0  0.97516  0.62501  0.38791  1.0000
  C   C1636     1.0  0.77921  0.48353  0.12102  1.0000
  H   H2912     1.0  0.97525  0.67559  0.30902  1.0000
  H   H2913     1.0  0.73229  0.73747  0.28827  1.0000
  H   H2914     1.0  0.89593  0.96258  0.46332  1.0000
  C   C1637     1.0  0.74488  0.57097  0.35198  1.0000
  H   H2915     1.0  0.97890  0.66325  0.34892  1.0000
  H   H2916     1.0  0.97622  0.70031  0.38430  1.0000
  H   H2917     1.0  0.83405  0.49323  0.27668  1.0000
  H   H2918     1.0  0.74263  0.56122  0.37016  1.0000
  C   C1638     1.0  0.88201  0.97929  0.42215  1.0000
  H   H2919     1.0  0.74831  0.60199  0.35173  1.0000
  H   H2920     1.0  0.74940  0.50724  0.26004  1.0000
  C   C1639     1.0  0.94337  0.97441  0.44678  1.0000
  H   H2921     1.0  0.97670  0.97637  0.41859  1.0000
  H   H2922     1.0  0.79365  0.48217  0.31797  1.0000
  C   C1640     1.0  0.85271  0.48892  0.28276  1.0000
  H   H2923     1.0  0.97975  0.51315  0.10234  1.0000
  H   H2924     1.0  0.84571  0.48124  0.34052  1.0000
  S   S368      1.0  0.90801  0.48312  0.31323  1.0000
  H   H2925     1.0  0.76474  0.74921  0.48820  1.0000
  H   H2926     1.0  0.98008  0.88799  0.40406  1.0000
  H   H2927     1.0  0.80641  0.86531  0.65595  1.0000
  H   H2928     1.0  0.76890  0.65692  0.83439  1.0000
  S   S369      1.0  0.75312  0.80315  0.83879  1.0000
  H   H2929     1.0  0.75296  0.61611  0.85394  1.0000
  C   C1641     1.0  0.80919  0.87949  0.67160  1.0000
  S   S370      1.0  0.73996  0.62989  0.89939  1.0000
  S   S371      1.0  0.93555  0.93924  0.80857  1.0000
  H   H2930     1.0  0.97162  0.57879  0.78570  1.0000
  Fe  Fe186     1.0  0.96400  0.60726  0.84376  1.0000
  S   S372      1.0  0.95962  0.65742  0.86753  1.0000
  S   S373      1.0  0.95517  0.54726  0.84054  1.0000
  Fe  Fe187     1.0  0.96185  0.70149  0.83671  1.0000
  S   S374      1.0  0.94687  0.74784  0.82690  1.0000
  C   C1642     1.0  0.96867  0.96946  0.73233  1.0000
  S   S375      1.0  0.96485  0.65022  0.81276  1.0000
  C   C1643     1.0  0.82109  0.93126  0.64803  1.0000
  C   C1644     1.0  0.75302  0.89361  0.71764  1.0000
  S   S376      1.0  0.77681  0.56540  0.97437  1.0000
  C   C1645     1.0  0.74520  0.92052  0.73320  1.0000
  C   C1646     1.0  0.92902  0.53120  0.89051  1.0000
  H   H2931     1.0  0.79694  0.80055  0.82258  1.0000
  H   H2932     1.0  0.75249  0.91886  0.80204  1.0000
  Fe  Fe188     1.0  0.78913  0.93801  0.74070  1.0000
  H   H2933     1.0  0.78455  0.77739  0.81125  1.0000
  S   S377      1.0  0.78148  0.87530  0.74879  1.0000
  H   H2934     1.0  0.75449  0.86314  0.72613  1.0000
  H   H2935     1.0  0.74872  0.89000  0.70122  1.0000
  H   H2936     1.0  0.97702  0.96642  0.53016  1.0000
  H   H2937     1.0  0.92841  0.51231  0.94451  1.0000
  H   H2938     1.0  0.84541  0.89084  0.66684  1.0000
  S   S378      1.0  0.80608  0.94872  0.71898  1.0000
  H   H2939     1.0  0.80946  0.85598  0.68588  1.0000
  H   H2940     1.0  0.97139  0.65140  0.76378  1.0000
  H   H2941     1.0  0.74842  0.74529  0.53820  1.0000
  H   H2942     1.0  0.75493  0.70091  0.50611  1.0000
  H   H2943     1.0  0.95185  0.49523  0.79260  1.0000
  H   H2944     1.0  0.73810  0.87803  0.80148  1.0000
  Fe  Fe189     1.0  0.73800  0.75941  0.84693  1.0000
  Fe  Fe190     1.0  0.78551  0.50241  0.98219  1.0000
  H   H2945     1.0  0.82747  0.87218  0.66189  1.0000
  H   H2946     1.0  0.96464  0.51757  0.89586  1.0000
  C   C1647     1.0  0.94378  0.52678  0.85891  1.0000
  C   C1648     1.0  0.93838  0.54819  0.87696  1.0000
  C   C1649     1.0  0.79335  0.95974  0.62603  1.0000
  H   H2947     1.0  0.79785  0.74741  0.81679  1.0000
  H   H2948     1.0  0.76498  0.58486  0.84253  1.0000
  H   H2949     1.0  0.96941  0.94070  0.72307  1.0000
  H   H2950     1.0  0.94131  0.57798  0.88027  1.0000
  H   H2951     1.0  0.76352  0.59232  0.87300  1.0000
  H   H2952     1.0  0.92748  0.49509  0.97438  1.0000
  C   C1650     1.0  0.93844  0.88576  0.81345  1.0000
  C   C1651     1.0  0.94956  0.87210  0.82101  1.0000
  C   C1652     1.0  0.95238  0.83031  0.82499  1.0000
  C   C1653     1.0  0.94409  0.80126  0.82147  1.0000
  C   C1654     1.0  0.93303  0.81489  0.81362  1.0000
  C   C1655     1.0  0.93021  0.85668  0.80967  1.0000
  H   H2953     1.0  0.95604  0.89409  0.82402  1.0000
  H   H2954     1.0  0.96092  0.82062  0.83101  1.0000
  H   H2955     1.0  0.92658  0.79293  0.81048  1.0000
  H   H2956     1.0  0.92165  0.86639  0.80371  1.0000
  H   H2957     1.0  0.95275  0.54816  0.78484  1.0000
  H   H2958     1.0  0.94028  0.53993  0.75152  1.0000
  C   C1656     1.0  0.97508  0.56770  0.76881  1.0000
  H   H2959     1.0  0.77747  0.65817  0.91397  1.0000
  H   H2960     1.0  0.80349  0.63573  0.90243  1.0000
  C   C1657     1.0  0.75022  0.61292  0.92050  1.0000
  C   C1658     1.0  0.75405  0.63808  0.93705  1.0000
  C   C1659     1.0  0.76220  0.62307  0.95323  1.0000
  C   C1660     1.0  0.76657  0.58259  0.95334  1.0000
  C   C1661     1.0  0.76268  0.55734  0.93692  1.0000
  C   C1662     1.0  0.75455  0.57239  0.92072  1.0000
  H   H2961     1.0  0.75049  0.66875  0.93785  1.0000
  H   H2962     1.0  0.76501  0.64285  0.96597  1.0000
  H   H2963     1.0  0.76587  0.52610  0.93675  1.0000
  H   H2964     1.0  0.95861  0.59393  0.75544  1.0000
  C   C1663     1.0  0.76080  0.82257  0.81338  1.0000
  C   C1664     1.0  0.75949  0.80750  0.79166  1.0000
  C   C1665     1.0  0.76606  0.82341  0.77223  1.0000
  C   C1666     1.0  0.77379  0.85526  0.77409  1.0000
  C   C1667     1.0  0.77512  0.87018  0.79584  1.0000
  C   C1668     1.0  0.76873  0.85373  0.81533  1.0000
  H   H2965     1.0  0.75350  0.78333  0.78986  1.0000
  H   H2966     1.0  0.76502  0.81131  0.75555  1.0000
  H   H2967     1.0  0.78121  0.89399  0.79769  1.0000
  H   H2968     1.0  0.76994  0.86528  0.83207  1.0000
  N   N91       1.0  0.91832  0.68331  0.85493  1.0000
  C   C1669     1.0  0.92840  0.68071  0.87085  1.0000
  C   C1670     1.0  0.92270  0.66951  0.83152  1.0000
  C   C1671     1.0  0.91452  0.72755  0.85202  1.0000
  C   C1672     1.0  0.90786  0.65942  0.86416  1.0000
  C   C1673     1.0  0.91051  0.62021  0.87912  1.0000
  C   C1674     1.0  0.92595  0.70090  0.89423  1.0000
  C   C1675     1.0  0.90539  0.73818  0.83357  1.0000
  C   C1676     1.0  0.92811  0.62592  0.83037  1.0000
  C   C1677     1.0  0.93296  0.61762  0.80601  1.0000
  C   C1678     1.0  0.89964  0.59451  0.88299  1.0000
  C   C1679     1.0  0.93505  0.68694  0.91161  1.0000
  C   C1680     1.0  0.90033  0.78146  0.83562  1.0000
  H   H2969     1.0  0.93620  0.69552  0.86230  1.0000
  H   H2970     1.0  0.93142  0.64889  0.87445  1.0000
  H   H2971     1.0  0.91541  0.67091  0.81947  1.0000
  H   H2972     1.0  0.92940  0.69055  0.82382  1.0000
  H   H2973     1.0  0.92232  0.74645  0.84756  1.0000
  H   H2974     1.0  0.91060  0.73876  0.86855  1.0000
  H   H2975     1.0  0.90173  0.67838  0.87508  1.0000
  H   H2976     1.0  0.90253  0.65111  0.84970  1.0000
  H   H2977     1.0  0.91333  0.62783  0.89630  1.0000
  H   H2978     1.0  0.91761  0.60106  0.87126  1.0000
  H   H2979     1.0  0.92645  0.73434  0.89165  1.0000
  H   H2980     1.0  0.91705  0.69418  0.90183  1.0000
  H   H2981     1.0  0.89796  0.71727  0.83529  1.0000
  H   H2982     1.0  0.90966  0.73630  0.81603  1.0000
  H   H2983     1.0  0.93551  0.62078  0.84192  1.0000
  H   H2984     1.0  0.92127  0.60346  0.83472  1.0000
  H   H2985     1.0  0.93987  0.63928  0.80034  1.0000
  H   H2986     1.0  0.93693  0.58644  0.80582  1.0000
  H   H2987     1.0  0.92580  0.62015  0.79370  1.0000
  H   H2988     1.0  0.90179  0.56723  0.89414  1.0000
  H   H2989     1.0  0.89228  0.61198  0.89161  1.0000
  H   H2990     1.0  0.89681  0.58413  0.86635  1.0000
  H   H2991     1.0  0.93301  0.70185  0.92811  1.0000
  H   H2992     1.0  0.93492  0.65359  0.91500  1.0000
  H   H2993     1.0  0.94401  0.69542  0.90509  1.0000
  H   H2994     1.0  0.90749  0.80353  0.83416  1.0000
  H   H2995     1.0  0.89425  0.78891  0.82158  1.0000
  H   H2996     1.0  0.89532  0.78467  0.85238  1.0000
  H   H2997     1.0  0.80252  0.90336  0.67653  1.0000
  H   H2998     1.0  0.79222  0.93739  0.64008  1.0000
  C   C1681     1.0  0.74401  0.71652  0.53572  1.0000
  H   H2999     1.0  0.96916  0.58290  0.91042  1.0000
  N   N92       1.0  0.77573  0.70783  0.87249  1.0000
  C   C1682     1.0  0.92522  0.49224  0.88662  1.0000
  C   C1683     1.0  0.77027  0.74243  0.88590  1.0000
  C   C1684     1.0  0.77926  0.72505  0.84866  1.0000
  C   C1685     1.0  0.78658  0.68991  0.88378  1.0000
  C   C1686     1.0  0.82137  0.89733  0.66722  1.0000
  H   H3000     1.0  0.76169  0.90736  0.71362  1.0000
  H   H3001     1.0  0.94614  0.94660  0.72617  1.0000
  C   C1687     1.0  0.76403  0.73155  0.90946  1.0000
  C   C1688     1.0  0.75906  0.76963  0.92095  1.0000
  C   C1689     1.0  0.76239  0.60715  0.85569  1.0000
  C   C1690     1.0  0.77006  0.64407  0.85217  1.0000
  C   C1691     1.0  0.83601  0.97479  0.66376  1.0000
  C   C1692     1.0  0.78712  0.76245  0.84764  1.0000
  H   H3002     1.0  0.79168  0.91684  0.59961  1.0000
  H   H3003     1.0  0.77701  0.76460  0.88923  1.0000
  H   H3004     1.0  0.76359  0.75934  0.87547  1.0000
  H   H3005     1.0  0.77125  0.73408  0.83902  1.0000
  H   H3006     1.0  0.78409  0.70162  0.83838  1.0000
  H   H3007     1.0  0.79328  0.67924  0.87056  1.0000
  H   H3008     1.0  0.79102  0.71372  0.89265  1.0000
  Fe  Fe191     1.0  0.97934  0.65986  0.87050  1.0000
  C   C1693     1.0  0.73932  0.73772  0.49452  1.0000
  C   C1694     1.0  0.79588  0.64303  0.91445  1.0000
  H   H3009     1.0  0.92473  0.54818  0.90420  1.0000
  H   H3010     1.0  0.95420  0.53151  0.91878  1.0000
  H   H3011     1.0  0.78189  0.78957  0.85335  1.0000
  H   H3012     1.0  0.77940  0.63366  0.85339  1.0000
  H   H3013     1.0  0.77027  0.71659  0.92138  1.0000
  H   H3014     1.0  0.75296  0.78711  0.90959  1.0000
  H   H3015     1.0  0.75410  0.76083  0.93727  1.0000
  H   H3016     1.0  0.76630  0.78933  0.92497  1.0000
  C   C1695     1.0  0.75111  0.92658  0.75611  1.0000
  H   H3017     1.0  0.79434  0.61625  0.92640  1.0000
  H   H3018     1.0  0.97032  0.56098  0.93917  1.0000
  C   C1696     1.0  0.95222  0.51778  0.77778  1.0000
  H   H3019     1.0  0.76397  0.66141  0.88648  1.0000
  H   H3020     1.0  0.97613  0.51452  0.71981  1.0000
  C   C1697     1.0  0.96342  0.52095  0.91470  1.0000
  H   H3021     1.0  0.81847  0.91664  0.63238  1.0000
  H   H3022     1.0  0.85305  0.84772  0.63499  1.0000
  H   H3023     1.0  0.95288  0.91762  0.77530  1.0000
  H   H3024     1.0  0.96631  0.48815  0.94677  1.0000
  H   H3025     1.0  0.85610  0.92781  0.65848  1.0000
  C   C1698     1.0  0.73274  0.88484  0.78630  1.0000
  C   C1699     1.0  0.95559  0.92685  0.75723  1.0000
  C   C1700     1.0  0.75058  0.95034  0.79537  1.0000
  H   H3026     1.0  0.96882  0.95128  0.79174  1.0000
  H   H3027     1.0  0.81368  0.95266  0.65240  1.0000
  S   S379      1.0  0.73742  0.69224  0.84289  1.0000
  H   H3028     1.0  0.94810  0.49461  0.95960  1.0000
  C   C1701     1.0  0.79301  0.94817  0.60298  1.0000
  H   H3029     1.0  0.79470  0.75714  0.85880  1.0000
  C   C1702     1.0  0.85035  0.90502  0.65188  1.0000
  C   C1703     1.0  0.76265  0.97067  0.79296  1.0000
  C   C1704     1.0  0.96814  0.59261  0.75025  1.0000
  S   S380      1.0  0.79460  0.95938  0.55549  1.0000
  H   H3030     1.0  0.74129  0.67559  0.50921  1.0000
  C   C1705     1.0  0.97223  0.63610  0.74722  1.0000
  C   C1706     1.0  0.76658  0.67685  0.86977  1.0000
  H   H3031     1.0  0.96035  0.89979  0.75017  1.0000
  H   H3032     1.0  0.96917  0.51475  0.80476  1.0000
  N   N93       1.0  0.74389  0.95016  0.77369  1.0000
  H   H3033     1.0  0.73765  0.86103  0.92830  1.0000
  H   H3034     1.0  0.75384  0.89645  0.76362  1.0000
  S   S381      1.0  0.73341  0.75331  0.88513  1.0000
  H   H3035     1.0  0.75158  0.55237  0.90824  1.0000
  H   H3036     1.0  0.75831  0.69231  0.86419  1.0000
  H   H3037     1.0  0.94370  0.87187  0.73191  1.0000
  H   H3038     1.0  0.78285  0.62568  0.89204  1.0000
  C   C1707     1.0  0.97292  0.95198  0.77387  1.0000
  H   H3039     1.0  0.75653  0.71189  0.90729  1.0000
  C   C1708     1.0  0.93802  0.89355  0.74189  1.0000
  C   C1709     1.0  0.78482  0.65308  0.90120  1.0000
  C   C1710     1.0  0.79190  0.77240  0.82305  1.0000
  H   H3040     1.0  0.93315  0.52205  0.77828  1.0000
  N   N94       1.0  0.96364  0.96228  0.75671  1.0000
  C   C1711     1.0  0.94421  0.93337  0.74379  1.0000
  H   H3041     1.0  0.96906  0.57947  0.73315  1.0000
  H   H3042     1.0  0.96678  0.65354  0.73464  1.0000
  H   H3043     1.0  0.79799  0.66885  0.92483  1.0000
  H   H3044     1.0  0.86381  0.88529  0.62631  1.0000
  N   N95       1.0  0.83226  0.95387  0.64296  1.0000
  H   H3045     1.0  0.76903  0.95220  0.78246  1.0000
  H   H3046     1.0  0.74510  0.96471  0.80937  1.0000
  H   H3047     1.0  0.76822  0.94434  0.82596  1.0000
  H   H3048     1.0  0.92969  0.89944  0.73297  1.0000
  H   H3049     1.0  0.93583  0.87976  0.75931  1.0000
  H   H3050     1.0  0.86436  0.85877  0.65406  1.0000
  H   H3051     1.0  0.84817  0.94257  0.62153  1.0000
  C   C1712     1.0  0.97144  0.55463  0.92061  1.0000
  H   H3052     1.0  0.83845  0.90165  0.62401  1.0000
  C   C1713     1.0  0.74542  0.70527  0.51054  1.0000
  Fe  Fe192     1.0  0.73172  0.68651  0.88056  1.0000
  H   H3053     1.0  0.82403  0.90878  0.68367  1.0000
  H   H3054     1.0  0.74140  0.76832  0.50008  1.0000
  H   H3055     1.0  0.73661  0.90590  0.73617  1.0000
  C   C1714     1.0  0.73221  0.93099  0.77960  1.0000
  C   C1715     1.0  0.94065  0.51629  0.76572  1.0000
  S   S382      1.0  0.80157  0.94177  0.49056  1.0000
  H   H3056     1.0  0.96111  0.52002  0.74389  1.0000
  C   C1716     1.0  0.85837  0.87222  0.64105  1.0000
  H   H3057     1.0  0.75950  0.94179  0.75126  1.0000
  C   C1717     1.0  0.73136  0.86964  0.91479  1.0000
  H   H3058     1.0  0.73454  0.71992  0.54124  1.0000
  C   C1718     1.0  0.84211  0.92577  0.63398  1.0000
  C   C1719     1.0  0.84574  0.97517  0.74929  1.0000
  H   H3059     1.0  0.97391  0.88562  0.77784  1.0000
  C   C1720     1.0  0.96306  0.50778  0.76136  1.0000
  H   H3060     1.0  0.73656  0.86699  0.77190  1.0000
  H   H3061     1.0  0.83369  0.94813  0.59415  1.0000
  C   C1721     1.0  0.79440  0.97662  0.58426  1.0000
  C   C1722     1.0  0.85799  0.96647  0.75012  1.0000
  N   N96       1.0  0.97469  0.52206  0.76869  1.0000
  H   H3062     1.0  0.74813  0.69225  0.54683  1.0000
  H   H3063     1.0  0.93789  0.95388  0.75311  1.0000
  H   H3064     1.0  0.74375  0.95008  0.72370  1.0000
  H   H3065     1.0  0.84018  0.95444  0.74151  1.0000
  C   C1723     1.0  0.97640  0.50418  0.79276  1.0000
  C   C1724     1.0  0.76773  0.97432  0.81653  1.0000
  H   H3066     1.0  0.86173  0.93911  0.74282  1.0000
  H   H3067     1.0  0.81831  0.95754  0.60125  1.0000
  C   C1725     1.0  0.93997  0.48791  0.85499  1.0000
  H   H3068     1.0  0.83802  0.95263  0.67806  1.0000
  H   H3069     1.0  0.73520  0.89322  0.90271  1.0000
  C   C1726     1.0  0.82710  0.97113  0.60042  1.0000
  S   S383      1.0  0.88089  0.97977  0.76081  1.0000
  C   C1727     1.0  0.92977  0.48571  0.95660  1.0000
  H   H3070     1.0  0.78687  0.63938  0.98994  1.0000
  C   C1728     1.0  0.97960  0.91054  0.77105  1.0000
  H   H3071     1.0  0.97951  0.97581  0.77368  1.0000
  H   H3072     1.0  0.93973  0.48600  0.75870  1.0000
  S   S384      1.0  0.77828  0.98048  0.71804  1.0000
