data_image0
_chemical_formula_structural       HSFeSFeS2FeS2FeSFeS3Fe2S2FeSHS2FeS2FeS2FeSFeS3FeS2FeSCH2S2FeSH2CHC6H4C8H5C6H4SCH5C6H4C6H5C2HC7H4CH2CH2CH5CH9NC12H32C2H4C2HC2H4C2SCHCH2SHCH2C2H2CH3FeCH2SHC3HC2FeH2FeCHCH3C2H5CH4CSC2NH2CH5CHCH3CH2CHCH4C2H5CH3CHCH3CHCSC3H3NHCHCH2CSHCHSCHC2HCH2CH3CH2C4H4CH4NCH5CHCH15CH9N2HCH5CH6C2H2CHC3H6NCH4CH3CH6CHCH2C3HC2HC2H5CH2NCH2CH3FeCH5CH3CH5CHNH2C2HFeCHCH2FeS2FeHSH2SCFeS2FeS2FeSFeS4CSCHFeS2C2SCFeHCFeS2FeS2HFeHCHSC2HCH5C3HCH2NHCHC7H4C3H2C6H4C6H4CHCH6CH3CNC3HCH2CH9CH8CH2CHC2HSHC2FeHCHC2NHCHCH3SH3CH2CH4C2HSCHC2H9CH6C3H6C3H3SHFeH2CHCHCHCHCH3CH3CHCHC2NHCH2NC12H29SNH3CHCH5C2H3C4HCH2CHSH4CH2CH2CHCH6CH2C2H2NH2CSHCH7C3FeH3CHSH6CH5C3NC10HCH23CH3SFeHCHCHFeCFeH3CH2C5H3CSH4C3H4CHCHFeCSHFeH2SC2FeHSH3CHFeS2H2CFeSCS2HS2CSH3CSCHCH2SFeS2CFeHSC2FeCSC6H4FeH3C6H6SHCH5C3H2FeHFeH2C2H3CH2C6H5C2H2C2H2CH3C2H3C6H4SH7CSCH2C2HCFeH7NCSCH5CH5C3HSH3CNH2C2H2NC11H27NH2CH4CH2CHC2HC2H4CHC4H2CHC2H5S2HCH5CH7C2HCHC3HFeH6CH3C5SH4CH2FeH4FeH3C2NH8CSHCH3CSH3CH2C4HC3FeCSCFeHCH7CH3CHSC2HNH2C2H6C3H2CHCHFeC2HFeSH2CFe2S2FeS2FeSFeS6HSC2FeSHCH4FeCSH2SHC7H3C6H4C2HC4HC6H8NCH2C2HCHC4H2CH3SC3H5CH2C7H8C3H3CHC2HCNCHC2H3CHC2H2CNH4CH4NHC6H15C2HC3HCSHCH3CH10FeC2H2C3HSHCH3CHCH5CHC2H4CH2CH3CSH4CH4SCH3CHCHNC7HC2H3CH16CH6CHCH2CH3CSCH7CNSH2SHC2H3C2H2C2NH2CH4CH2CH2C2HFeH3CH8C2H3CH2CSFeSFeCHC2HCH2CHNHCH4CHCSHCSHC2HCHCHCH3CHSH7CH10CHCH2SNH2FeH3CH3C2H4CHCH2C2FeH2CH3C2H2CH2C2H3SCSH2SH2CFeSHCSFeHSCHFeH2S2HS3FeHSFeSFeSHCH2FeS2FeSCFeSFeS3C2H3C9H3C6H5FeH8CHC6H5C2S2HCH2CH2C8H5CHCH2C2NCH2C6H3NC5HCSHCSCH9CHSH3C2H2CH3CNH3CH3SH6CHNH4CH4CSCH12C2H2CH2CHCH2SC2H5C2HCH2CHC2SH3CHC3H3CH3CH2CH4C3HC2H7SH4CHCHNC12H25CH5C2H2FeH2C2NH3CHCH2CH2C3NHCH3CHCHCHCHFeCH4CHCHCH2C2H7CSC4HSHCFeCH2FeHNH2CHCH6CH3CH4C3HFeH2SNFeSFeH2SHCFeHSHC2SFeS2H5SHSCHSFeSHFeSFeSCSC2SC3SHSCHSH2C2H2C7H4CHSHCHCHC6H7CHC2HCHCH2FeH3CHCHC3HCH2C3H6C6H3SCHC2HCNH4C2HC2H3CHCHC2H4CH2C2HC3HCH2CH4CH3CH8CFeHCH5CHCH4C2H5CH4SH2NC2HC3HC4H6C2SH2CHC2H5CH6C3H6CHCH2NH5CHC4H4SCH2C2H2CH10CH2CHCH2Fe2H11NH6SH5CNHCH4CH3SH2CHSH6CHCH3C2HNH8CHSC2H2CFeHCH3SCSH3CHC3H4CH2CH3CHC2HC2HSH2CH3SHSFeSFeSHCSFeSCS2FeS2FeS2FeSFeS3HSFeS2FeSFeS2HFeSCFeS2FeS2C2HC3H7CH4C7H4C2SH2CHC6H4C3HCHC6H6CH4C2FeH2CH2C3HCH2C2HC2H2CH4CH3CH2SH2CH2CHCH3CHCH2CHCH5NC10H23SC2HC3H6FeH2CHCH5CH6CHNHC2HCHCH4C5H3C3H2C2H2CH5C2HCH2CH3CNHCHC2H2FeH6CNC3H2C2H3C2H6CHCH2CH2CH4CHCH6CH8FeHC2H8CHSCH2SH2CNHCH4C2H4C2H2CHSH2CHCHSCH2SC4HNHCH4CNH3C2H2CH3C3FeH3CNHCH3CH4NFeH2CH6CHCH3CH2SCH2FeS2FeS2HFeSHSFeS2FeS2FeSFeS3FeSFeSHFeS2FeSFeS3H3FeS2FeS2CSHC6H4C6H4C6H4C2HC6HCH2C6H4C6H6CSH4C3H4CH5C2H4CH2CH3NHC2H3CH2C2HCHFeCH3C3H2C2H3C2H2CH2CSC2HCHNHCH2NC9SCH23CHCSCH4NH4CH5CH4CH4SHCH2CH2C3H3CH8CFeHCH4CHCH3CHCH7C2HNC11H25C6H12CH2FeH7CH2CHCHCH6CHCFeNC2HC2HSH3CH2CH7NC7HC3H16CH4CSCNCHCH3C2HCH3CSH2CS2FeS2FeS2FeSFeS3H2SCHCH3FeCSHFe2SCHC2H3C9H4C6H8SC6H5CHC6H4NC4HCH3C2H4CH5CH2CHNHCH4CH3CH2CHNH3NHCH6C3H2FeHC2H3CH3C3FeH4CH2CH2NC11SH13CH12C2HSH4CH3CH4CH3SH4CFeHCHNH3CHSHCHCHSH2C3H2CH3NC12H28CH3SH2C2H2C4H4CH3CHSH2SCHCH5CH5CH2CHCHCHSFeS2FeS2FeSFeS3CH2NSHFeS2FeS2FeSFeS3H2SFeS2FeS2FeSFeS3C6H4CHC6H4C3H2C4H4CH3C6H5C9H5C4HCH6CH4C2H2C3HCH3CHC2HC3H4CH2NFeHCHC3H2CHCHCHCHC2HC2H2CHCH3CH2CFeH2CH5NH2CHC2H11SHC2HCH3C2H3FeH4C2H2C2HC2H2NC12H28NC12H28CH2CH7SCH19CH6CHC4H16CHCH8C2NC8H6NHCNH10CHCHCH2C2HC2H7CHCSFeCSFeS2FeS2FeSFeS3FeS2FeS2FeSFeS3FeS2FeS2FeSFeS3CHCH5C3H2C5H3C2HSCH3C2HC4H2C6H4C6H4C6H4C6H4C7H17NC9H4CNH4CH14C3H2NH6CH4CHCH2SH6C2H3C5H13CH3CH2CH4C2H3CH3C4HCSH2CH4C4H7CSH2C2HCH4CHCH2C2HC3H5NH3FeHNC3H2CH3CH5C2H2CH5CH4CH2CHSCH2CH3C2H3CH6CH6CHCH9CH2CH3CH2CNCH2CH4CH3CH2CH3FeHCH3NSCH2CHC2HCHCHCHCHCH3C3H5CH2CH3FeS2FeS2FeSFeS3CSHSCFeSFeS2H2CFeHSH3CSHFe2SFeSCNSFeHSH3SHFeCHSH4CH12CHC2H3C3H2CH4C7H4C6H4C6H4C6H4NC2HC2HC3HCH11CFeH6SH2CH4CHSC2SCH5CHSHCHCH7FeH2CH3SC2H4SH4CHCHCHSH2C2H3CHCHCH5NHSH2CH2CH4CHC2H2CH3C2NC12H12CH6CH3CH5CHCH2CHC2H2CHC2FeC3H2C2H3CHC2SH2CHFeC3HCH6NHC5HC3H2SH4FeH6CH2SH6NH3SH2C2H5FeHCH4CH4CH5FeS2FeS2FeSFeS3FeCSFeC2HS2FeS2FeHSFeSHS2FeHSH2CH2CFeHFeS3FeS2CH2CH2CNH2CHCSH3CHC2HC3H6CH3CHCHSC7H4C6H4C6H4C6H5NC8HC2H3SCH9CH7FeCHNC10H22NC6H8CH3CH2SHCH2CHCH5NC6HFeHSC2H2CH4CHCH5NH5CH6NC8HCHC2H21CH6C2HCH5NCHCH2C8H12SH6FeH2C2H6CH4CNH6CHCH2CSHCHCH4CH4CHC3SHCH4CH2CH4C2H2C2H3CH5C2H6SFeS2FeS2FeS2FeSFeS3FeS2FeS2FeSFeS3FeS2FeS2FeSFeS3C2H3C2HC4H6C6H2CH2C4H4C6H4C6H4C6H5C6H4NC12H28NHCHC2H2SC2H6CHCH10C3H2CHCH5CFeCSH4NC3H2CH2C3H3CH2C3HCH4CH3CH7CH5CH5C3H2CHNH3C2H6C4H2CHCH4C2HCH2CH4CH2CH2NC12H31CHCSCH2CH5C2H3N2H2C2H2CH4C3H2CHNFeCH7CH2C2H4C2H2CH3CH4C4H2CH2CH2C2H2CH3CHSCH8FeH2CSHCH3CSH12C2H3CH3FeS2FeS2FeSFeS3FeS2FeS2FeSFeS3HS2HCHSHNHFeS2FeS2FeSFeS3C6H6C7H6SC6H6C2H6CHCHC6H4CHC3HCH4CH3C5NCHC3H2CHNCHNHCH3CH4C2H2C2H3CH4FeH5CHFeH4CHNC4HC4H2CH16CH2CHCH11SHC2H3CH2C2H2C2H9C2HC2H3CHCHC2HCHCH2CHC2H2CH11NH2CHFeCHCH4C4HC3HC2SCH2CH3C2H4CH3CHSNCH3C2HCHCH7CH2C2HNH4CH2CHCHCH3CH2CH4C2H2C2H2C2H8CH2CH4C2H5CH5CNCHC2HCH3CH2CH3C2H7CH4S2FeS2FeS2FeSFeS3CFeSH2CH3CHSCHFeHSH8CH2C6H4C6H4CH3C6H7CH3C7H3CH2NHCH7C2SFeHCHSC5H6C2SH10C4HC2H2CH3CH3FeCSC2H2C2H4C2H9CHS2H3CHCHC3H2CH4NSH3C2H3NHNC2H2NC12H28C2HCHCHCH3CH2CHC2H5C2H5FeC4HSHFeH2CH3C2H6C2H8CHFeH5SH2FeC2H5CSHCHCHCFeCH4FeHS2FeS2FeS2FeSFeS3H2FeS2FeSHS2FeS2FeS2Fe2S3FeCS2HFeHSFeS2HCH2C2H2C6H3C6H4C6H4CH2C6H4C6H5SC2H2C6H4C2H2FeHC2H4SNC4HC2H3SCH8CH7C2H2CSCHNC12H28C2HCH5C3H2CH2NC12H28CH2CNC6HC4H12FeH12CH4C2FeHCH5CH5C3H3C2H4C3H2CH2CHNHC2H2NH2SH6CHCHNH2CSHC3H5C3HCH2C2H5FeH7CH2CH2CHCHCSHCH2NCSC2HCH4SH2CHFeHCHCH6C2HC2HCNCH4C2H4CHC2H10C2H2C2H2C2H3C2SH3C2HFeSCSCHFeSFeS2FeS2FeSFeS3H2FeSHFeSFeSFeCSH2SFeS2FeSFeS2C2SCHFeC7H4CHCNCH2C11H4CFeCSHC6H5C6H4NH6CH4CH2C2SCSH3CHNC10H33C2H9CSHC2H3C2HCSCHCH3CH2CFeC2H8CH12C2H3CH5CHC2HSCH4CNC10H12C2H6CHCHNH6CH2SFeC4H5C2HCHC2NH6C2H5CH3CH2CHC2H9C2SHC3HCHCH3CH2CH3CH2SHCH6C3H4CH5CH3CH3CH2C2HCHC2S2H2CHCH2CHNHNCHCSHSH9C3H7SHSHC2SHCHCHCHCHC2NHFeH3CH5SCH4SFeSFeSCH3SHFeSHSHC4FeSFeS2FeCSHFeHS3H7SH2SH2CHC7H4C6H5CH3CH6C3HSC2SC3HCH2FeCH5SCH3CHC2HC6H5C2H3NC6FeC5H12CH12CH5C2H3SH5SHCHNH4CH3NHSH2CH5C5HCSHCH3C3HCHFeH3C2HSH2CHFeCHNCHCH2C2H2SHCNCH5NH4SHSHC2HCH3CH7C3H3SCHCH6C2HFeC2HC2HCFeCH7CHCHCH2CNCHSH5FeH4CHCH2CHSHCH2CSC3SCH3CHC2HCHNH3CHCH9C3HC2H2CHCSH2C4SH2FeS2FeSC2H2CFeS2FeS2FeSFeS3H3CH2CHSH2SHSCSHFeSFeSCHC6H12SHC6H6FeH2CHC2H4C3H2C2HCH3CH6CHCHNC5HC3H7C8H2C4SH2CHCH5CH2CHCH4CH4CH2CH16CHCHC8HCH11CHC2H5CH3FeC2H7CH5NCSHCHCSHNH5CH4CHCSH2FeH2CHC2H4CHCHCHC2H2CHSCH2CSFeNC12H27SNC5HCH2FeC2HCH6C2HC2HCH3SC2HFeNC2HCH3C3H2C2HNCSH2C2HCHCHCH2C2SHCHCHCHFeHSH5SHCH3CH2CH5CH6CHC3HFeH3NH2CHC2H2CHCH2CH2CH3CH3C2HS2FeSH2CSH2CFeSH2S2HFeSH2C2SH2FeCSHCSCSFeS2FeS2FeSFeHS2C2H4CHC6H4C6H3SCH2CH2C2HC6H4CHCH3NHC3H2CH2SH3CH2CHC3H2C6HCH3FeCH3FeH3CFeC2H2CS2CSH3SCHCH4C2H2CH4CH2C4H3CHCSH2CHNH4SHC3H2CH4NHCH2CH4CH3C3H2FeC3H4CHSH2C2HCH16S2HNHCH6CHC3H4C4H4C2H3CH3C2NC9H19NCHC2HC2H2NH4SH10CHCH3CH2CH2CH2CH2CH8CHSCH2C2HCH2FeC3SHFeSCFeS2FeS2HFeS3HSFeHSHCSH2SCFeSH3S2HFeHSH3SHSHCHCS2HC3H2FeH4C2H2CSC6H4C3HC2HCHNHCHCH2C3H5FeNC4H2CHSHC2H5FeH2C2HCFeHC7H2NH2C3HCFeHCHC2H3NH5CH4CH6C7HCH3CH2CHCHCH2CHFeH6CH3SH2CH3CHCHCHC2HC2SH9C2HCHCH3CHCH3CH4CNH3CH2C2H2CH2CH4C2H3CSH4SH5CH6CHC2H4CH3CNHC3FeC2NC3H2FeH3C4H7FeH7CH4NC8HCH6CH7C3HC2H4SH2C2H3SCSH2CNH4CH2CHCH4CH3CHCH5C3H3C2HC2H2SCHC3HC2H2CH2NH4CH9CHCH2C3HC2HCH2CHFeS3H2CFeS2FeS2FeSFeS5FeSHFeSFeCSHFeNFeS2HFeHCSH3CHCHSHCS2H6SC6H4C2HCH3C6H4CHC2H2C6H4C3H5CH2CH2CH5C2H2CHCH4CH3C2HNSHFeC2HCHCH8CH2C2FeC2HCH4CHCNC12H28CH3CH6SH6CH2CHCH6CH5SHCH6CHCH4NH2NC12H13CH10C2HCHC2HCH4NHCH2C2H5FeC3HC2HC2HCHC2SH3C2H3C2SCH4C3H2CH3SNHC2H2CH2C2H3C2SH3CH2CH3FeHC2H5C3H3SH3CH3CH4C2H7CH2C2HCH5C2HFeSHFeS2C2S2FeSHFeS2FeSFeS3C2SHFeSHFeS2FeS2FeSFeS3HC2FeS2FeS2Fe2S2H2C6H4C6H4C6H7C6HCH2C6H4C6FeH7CH3NHC2NH2CHNC12H25C3NC12H28NCHCHC2HC3H3CH6CH3CHCH4CH2C2H6C2H3C2SH2CH9CHCH2CH2NHCFeCNH2CH3CH4C2H6NC12H31CHFeH2C3HCHCH2CH5CH8SH2CNSH2SC2HCHCH3CH3CFeC2HC3H4CHC3NH2CHCSCH4CSH4CHCHC2SHCH5FeCNH3CH2CSCHC3H3SHCH2C2HSCH2CHFeC3H6CH2SH4C2H9CH2CH7CHCH2
_chemical_formula_sum              "H6144 S768 Fe384 C3456 N192"
_cell_length_a       67.3594
_cell_length_b       67.1597
_cell_length_c       85.8344
_cell_angle_alpha    80.4232
_cell_angle_beta     80.4429
_cell_angle_gamma    80.1197

_space_group_name_H-M_alt    "P 1"
_space_group_IT_number       1

loop_
  _space_group_symop_operation_xyz
  'x, y, z'

loop_
  _atom_site_type_symbol
  _atom_site_label
  _atom_site_symmetry_multiplicity
  _atom_site_fract_x
  _atom_site_fract_y
  _atom_site_fract_z
  _atom_site_occupancy
  H   H1        1.0  0.23168  0.47423  0.04068  1.0000
  S   S1        1.0  0.18200  0.01235  0.08584  1.0000
  Fe  Fe1       1.0  0.18258  0.01187  0.11196  1.0000
  S   S2        1.0  0.16824  0.03814  0.12601  1.0000
  Fe  Fe2       1.0  0.16748  0.16076  0.17040  1.0000
  S   S3        1.0  0.15762  0.19393  0.16284  1.0000
  S   S4        1.0  0.16582  0.14504  0.19605  1.0000
  Fe  Fe3       1.0  0.17818  0.15194  0.13624  1.0000
  S   S5        1.0  0.16941  0.18498  0.12586  1.0000
  S   S6        1.0  0.19255  0.12707  0.12086  1.0000
  Fe  Fe4       1.0  0.18560  0.19263  0.14457  1.0000
  S   S7        1.0  0.20074  0.22123  0.14099  1.0000
  Fe  Fe5       1.0  0.14198  0.18435  0.14474  1.0000
  S   S8        1.0  0.11114  0.20409  0.14275  1.0000
  S   S9        1.0  0.19674  0.15981  0.15342  1.0000
  S   S10       1.0  0.14956  0.15089  0.15385  1.0000
  Fe  Fe6       1.0  0.25785  0.44891  0.07390  1.0000
  Fe  Fe7       1.0  0.23930  0.42618  0.10502  1.0000
  S   S11       1.0  0.21205  0.45061  0.10765  1.0000
  S   S12       1.0  0.24364  0.39966  0.12497  1.0000
  Fe  Fe8       1.0  0.21168  0.45101  0.08138  1.0000
  S   S13       1.0  0.18269  0.45625  0.06953  1.0000
  H   H2        1.0  0.26364  0.38625  0.04163  1.0000
  S   S14       1.0  0.23722  0.42480  0.07938  1.0000
  S   S15       1.0  0.26183  0.44830  0.09956  1.0000
  Fe  Fe9       1.0  0.08250  0.39494  0.00636  1.0000
  S   S16       1.0  0.05014  0.40063  0.01805  1.0000
  S   S17       1.0  0.09216  0.38800  0.98091  1.0000
  Fe  Fe10      1.0  0.09995  0.40315  0.03550  1.0000
  S   S18       1.0  0.06838  0.40978  0.04918  1.0000
  S   S19       1.0  0.13059  0.39890  0.04522  1.0000
  Fe  Fe11      1.0  0.06161  0.38224  0.04006  1.0000
  S   S20       1.0  0.04301  0.35981  0.05677  1.0000
  Fe  Fe12      1.0  0.05943  0.42752  0.02600  1.0000
  S   S21       1.0  0.04052  0.45854  0.01949  1.0000
  S   S22       1.0  0.09346  0.37452  0.02776  1.0000
  S   S23       1.0  0.09147  0.42282  0.01293  1.0000
  Fe  Fe13      1.0  0.01777  0.21256  0.09604  1.0000
  S   S24       1.0  0.02788  0.21238  0.06979  1.0000
  S   S25       1.0  0.03665  0.18867  0.11177  1.0000
  Fe  Fe14      1.0  0.02085  0.24663  0.06782  1.0000
  S   S26       1.0  0.04282  0.26626  0.05169  1.0000
  C   C1        1.0  0.19036  0.05506  0.16739  1.0000
  H   H3        1.0  0.23061  0.45772  0.19319  1.0000
  H   H4        1.0  0.99388  0.11535  0.08173  1.0000
  S   S27       1.0  0.28979  0.28176  0.14939  1.0000
  S   S28       1.0  0.30191  0.31866  0.10912  1.0000
  Fe  Fe15      1.0  0.30726  0.25109  0.14538  1.0000
  S   S29       1.0  0.29387  0.22221  0.14570  1.0000
  H   H5        1.0  0.25179  0.31192  0.15855  1.0000
  H   H6        1.0  0.26114  0.40547  0.15700  1.0000
  C   C2        1.0  0.01336  0.06199  0.06326  1.0000
  H   H7        1.0  0.28274  0.26627  0.08587  1.0000
  C   C3        1.0  0.04444  0.33348  0.05561  1.0000
  C   C4        1.0  0.05645  0.32425  0.04309  1.0000
  C   C5        1.0  0.05594  0.30360  0.04208  1.0000
  C   C6        1.0  0.04352  0.29199  0.05360  1.0000
  C   C7        1.0  0.03207  0.30104  0.06640  1.0000
  C   C8        1.0  0.03262  0.32165  0.06741  1.0000
  H   H8        1.0  0.06599  0.33310  0.03415  1.0000
  H   H9        1.0  0.06522  0.29663  0.03233  1.0000
  H   H10       1.0  0.02276  0.29216  0.07549  1.0000
  H   H11       1.0  0.02380  0.32858  0.07735  1.0000
  C   C9        1.0  0.22811  0.47007  0.18307  1.0000
  C   C10       1.0  0.18542  0.28154  0.12086  1.0000
  C   C11       1.0  0.25858  0.37658  0.12032  1.0000
  C   C12       1.0  0.26662  0.37400  0.10457  1.0000
  C   C13       1.0  0.27931  0.35583  0.10126  1.0000
  C   C14       1.0  0.28423  0.34023  0.11366  1.0000
  C   C15       1.0  0.27568  0.34251  0.12938  1.0000
  C   C16       1.0  0.26291  0.36067  0.13269  1.0000
  H   H12       1.0  0.26332  0.38613  0.09495  1.0000
  H   H13       1.0  0.28577  0.35411  0.08906  1.0000
  H   H14       1.0  0.27940  0.33057  0.13904  1.0000
  H   H15       1.0  0.25665  0.36252  0.14490  1.0000
  H   H16       1.0  0.01454  0.05824  0.07622  1.0000
  C   C17       1.0  0.14439  0.41514  0.05240  1.0000
  C   C18       1.0  0.16224  0.40645  0.05908  1.0000
  C   C19       1.0  0.17403  0.41866  0.06456  1.0000
  C   C20       1.0  0.16816  0.43983  0.06336  1.0000
  C   C21       1.0  0.15039  0.44852  0.05663  1.0000
  C   C22       1.0  0.13855  0.43630  0.05122  1.0000
  H   H17       1.0  0.16696  0.39012  0.06002  1.0000
  H   H18       1.0  0.18764  0.41171  0.06967  1.0000
  H   H19       1.0  0.17066  0.28516  0.12853  1.0000
  H   H20       1.0  0.12496  0.44325  0.04608  1.0000
  S   S30       1.0  0.28572  0.44306  0.05534  1.0000
  C   C23       1.0  0.02549  0.35360  0.01240  1.0000
  H   H21       1.0  0.22251  0.43127  0.04391  1.0000
  H   H22       1.0  0.06036  0.25984  0.99882  1.0000
  H   H23       1.0  0.13702  0.11092  0.16617  1.0000
  H   H24       1.0  0.04806  0.38943  0.98664  1.0000
  H   H25       1.0  0.15195  0.41112  0.97276  1.0000
  C   C24       1.0  0.09105  0.19957  0.13354  1.0000
  C   C25       1.0  0.09260  0.18269  0.12558  1.0000
  C   C26       1.0  0.07593  0.17964  0.11872  1.0000
  C   C27       1.0  0.05780  0.19362  0.11949  1.0000
  C   C28       1.0  0.05632  0.21047  0.12744  1.0000
  C   C29       1.0  0.07286  0.21341  0.13443  1.0000
  H   H26       1.0  0.10650  0.17187  0.12489  1.0000
  H   H27       1.0  0.07706  0.16635  0.11284  1.0000
  H   H28       1.0  0.04217  0.22088  0.12862  1.0000
  H   H29       1.0  0.07147  0.22636  0.14074  1.0000
  C   C30       1.0  0.22646  0.22085  0.14324  1.0000
  C   C31       1.0  0.23295  0.23913  0.14487  1.0000
  C   C32       1.0  0.25350  0.23967  0.14589  1.0000
  C   C33       1.0  0.26777  0.22199  0.14510  1.0000
  C   C34       1.0  0.26123  0.20365  0.14376  1.0000
  C   C35       1.0  0.24065  0.20304  0.14288  1.0000
  H   H30       1.0  0.22196  0.25284  0.14549  1.0000
  H   H31       1.0  0.25835  0.25363  0.14741  1.0000
  H   H32       1.0  0.27218  0.18987  0.14326  1.0000
  H   H33       1.0  0.23583  0.18889  0.14164  1.0000
  H   H34       1.0  0.22707  0.27305  0.11844  1.0000
  C   C36       1.0  0.25646  0.29463  0.10318  1.0000
  C   C37       1.0  0.21955  0.44683  0.15823  1.0000
  H   H35       1.0  0.23142  0.36060  0.08596  1.0000
  C   C38       1.0  0.23448  0.43433  0.03352  1.0000
  C   C39       1.0  0.17471  0.06316  0.12339  1.0000
  C   C40       1.0  0.19306  0.06812  0.11458  1.0000
  C   C41       1.0  0.19811  0.08786  0.11371  1.0000
  C   C42       1.0  0.18493  0.10283  0.12163  1.0000
  C   C43       1.0  0.16641  0.09798  0.13016  1.0000
  C   C44       1.0  0.16142  0.07822  0.13112  1.0000
  H   H36       1.0  0.20344  0.05670  0.10858  1.0000
  H   H37       1.0  0.21241  0.09150  0.10698  1.0000
  H   H38       1.0  0.15595  0.10944  0.13605  1.0000
  H   H39       1.0  0.14713  0.07457  0.13787  1.0000
  C   C45       1.0  0.26989  0.24758  0.19214  1.0000
  H   H40       1.0  0.26418  0.40908  0.04984  1.0000
  H   H41       1.0  0.01425  0.00559  0.03263  1.0000
  C   C46       1.0  0.20120  0.01805  0.16294  1.0000
  H   H42       1.0  0.99071  0.31301  0.06759  1.0000
  H   H43       1.0  0.21418  0.00539  0.16241  1.0000
  C   C47       1.0  0.21016  0.46627  0.14796  1.0000
  H   H44       1.0  0.12358  0.09630  0.18278  1.0000
  H   H45       1.0  0.10866  0.14329  0.16946  1.0000
  H   H46       1.0  0.08124  0.20956  0.21307  1.0000
  H   H47       1.0  0.19417  0.31075  0.12083  1.0000
  H   H48       1.0  0.03523  0.02351  0.06124  1.0000
  C   C48       1.0  0.23544  0.46943  0.99264  1.0000
  H   H49       1.0  0.04503  0.06759  0.05488  1.0000
  H   H50       1.0  0.03026  0.35830  0.02287  1.0000
  H   H51       1.0  0.21206  0.47178  0.18100  1.0000
  H   H52       1.0  0.12501  0.24794  0.17630  1.0000
  H   H53       1.0  0.07370  0.20457  0.19548  1.0000
  H   H54       1.0  0.00292  0.06295  0.99433  1.0000
  H   H55       1.0  0.23386  0.05101  0.97262  1.0000
  H   H56       1.0  0.25294  0.46117  0.01267  1.0000
  H   H57       1.0  0.25515  0.37460  0.17567  1.0000
  N   N1        1.0  0.08728  0.25096  0.08563  1.0000
  C   C49       1.0  0.07020  0.26700  0.09128  1.0000
  C   C50       1.0  0.09787  0.25871  0.06927  1.0000
  C   C51       1.0  0.07788  0.23266  0.08396  1.0000
  C   C52       1.0  0.10229  0.24405  0.09738  1.0000
  C   C53       1.0  0.11242  0.26085  0.10193  1.0000
  C   C54       1.0  0.05808  0.26154  0.10801  1.0000
  C   C55       1.0  0.09300  0.21436  0.07798  1.0000
  C   C56       1.0  0.09917  0.28193  0.06535  1.0000
  C   C57       1.0  0.11205  0.28703  0.04921  1.0000
  C   C58       1.0  0.12458  0.25235  0.11575  1.0000
  C   C59       1.0  0.04224  0.27957  0.11262  1.0000
  C   C60       1.0  0.08179  0.19875  0.07339  1.0000
  H   H58       1.0  0.05910  0.27089  0.08257  1.0000
  H   H59       1.0  0.07581  0.28146  0.09165  1.0000
  H   H60       1.0  0.11364  0.25035  0.06719  1.0000
  H   H61       1.0  0.08995  0.25549  0.05971  1.0000
  H   H62       1.0  0.06604  0.23733  0.07584  1.0000
  H   H63       1.0  0.06981  0.22626  0.09555  1.0000
  H   H64       1.0  0.09506  0.23550  0.10850  1.0000
  H   H65       1.0  0.11505  0.23282  0.09263  1.0000
  H   H66       1.0  0.10109  0.27377  0.10573  1.0000
  H   H67       1.0  0.12328  0.26654  0.09164  1.0000
  H   H68       1.0  0.04971  0.24871  0.10816  1.0000
  H   H69       1.0  0.06828  0.25743  0.11731  1.0000
  H   H70       1.0  0.10187  0.20637  0.08762  1.0000
  H   H71       1.0  0.10381  0.21927  0.06739  1.0000
  H   H72       1.0  0.08375  0.29077  0.06464  1.0000
  H   H73       1.0  0.10578  0.28746  0.07451  1.0000
  H   H74       1.0  0.11225  0.30377  0.04661  1.0000
  H   H75       1.0  0.12796  0.27919  0.04933  1.0000
  H   H76       1.0  0.10549  0.28237  0.03955  1.0000
  H   H77       1.0  0.13260  0.26431  0.11831  1.0000
  H   H78       1.0  0.11426  0.24743  0.12671  1.0000
  H   H79       1.0  0.13612  0.23907  0.11277  1.0000
  H   H80       1.0  0.03352  0.27513  0.12449  1.0000
  H   H81       1.0  0.04975  0.29284  0.11329  1.0000
  H   H82       1.0  0.03140  0.28413  0.10377  1.0000
  H   H83       1.0  0.07392  0.20552  0.06293  1.0000
  H   H84       1.0  0.09285  0.18528  0.07016  1.0000
  H   H85       1.0  0.07047  0.19347  0.08352  1.0000
  H   H86       1.0  0.03824  0.20009  0.20640  1.0000
  H   H87       1.0  0.01140  0.44429  0.98931  1.0000
  H   H88       1.0  0.17385  0.02206  0.03549  1.0000
  H   H89       1.0  0.22891  0.04672  0.99869  1.0000
  C   C61       1.0  0.31326  0.29587  0.20334  1.0000
  C   C62       1.0  0.27780  0.47614  0.03204  1.0000
  H   H90       1.0  0.17601  0.07458  0.20477  1.0000
  H   H91       1.0  0.02807  0.12602  0.08030  1.0000
  H   H92       1.0  0.04709  0.03535  0.07408  1.0000
  H   H93       1.0  0.29973  0.41979  0.08660  1.0000
  C   C63       1.0  0.24709  0.41361  0.02976  1.0000
  C   C64       1.0  0.18459  0.41455  0.01504  1.0000
  H   H94       1.0  0.23802  0.40436  0.02496  1.0000
  C   C65       1.0  0.08851  0.16196  0.18577  1.0000
  C   C66       1.0  0.21936  0.35160  0.08504  1.0000
  H   H95       1.0  0.21626  0.35440  0.07249  1.0000
  H   H96       1.0  0.23327  0.00683  0.99527  1.0000
  H   H97       1.0  0.22441  0.48268  0.99623  1.0000
  H   H98       1.0  0.29111  0.99795  0.01825  1.0000
  C   C67       1.0  0.22163  0.28916  0.11377  1.0000
  C   C68       1.0  0.99694  0.44254  0.99744  1.0000
  S   S31       1.0  0.23782  0.00385  0.06458  1.0000
  C   C69       1.0  0.24645  0.42795  0.17318  1.0000
  H   H99       1.0  0.07004  0.99020  0.06024  1.0000
  C   C70       1.0  0.24313  0.46535  0.16793  1.0000
  H   H100      1.0  0.11642  0.21504  0.17375  1.0000
  H   H101      1.0  0.27191  0.98699  0.14550  1.0000
  S   S32       1.0  0.23233  0.47528  0.07449  1.0000
  H   H102      1.0  0.99321  0.02898  0.00379  1.0000
  C   C71       1.0  0.99424  0.11183  0.01664  1.0000
  H   H103      1.0  0.16865  0.98770  0.03184  1.0000
  H   H104      1.0  0.27506  0.23456  0.18524  1.0000
  C   C72       1.0  0.04415  0.29081  0.99970  1.0000
  C   C73       1.0  0.00349  0.08818  0.04152  1.0000
  H   H105      1.0  0.99343  0.31968  0.09321  1.0000
  H   H106      1.0  0.14333  0.22789  0.18458  1.0000
  C   C74       1.0  0.03506  0.05623  0.05434  1.0000
  H   H107      1.0  0.03691  0.98594  0.07719  1.0000
  H   H108      1.0  0.26073  0.42879  0.17781  1.0000
  H   H109      1.0  0.99589  0.07671  0.03760  1.0000
  Fe  Fe16      1.0  0.31176  0.29422  0.12909  1.0000
  C   C75       1.0  0.00334  0.11832  0.06995  1.0000
  H   H110      1.0  0.25160  0.46010  0.13727  1.0000
  H   H111      1.0  0.24821  0.09838  0.14794  1.0000
  S   S33       1.0  0.31883  0.99887  0.98031  1.0000
  H   H112      1.0  0.20519  0.35701  0.09277  1.0000
  C   C76       1.0  0.29117  0.44052  0.13074  1.0000
  C   C77       1.0  0.30472  0.30740  0.21566  1.0000
  C   C78       1.0  0.05295  0.26990  0.00784  1.0000
  H   H113      1.0  0.05568  0.35203  0.99958  1.0000
  C   C79       1.0  0.12714  0.23513  0.18618  1.0000
  C   C80       1.0  0.18794  0.46551  0.14674  1.0000
  Fe  Fe17      1.0  0.21341  0.99417  0.08507  1.0000
  H   H114      1.0  0.25747  0.00547  0.00095  1.0000
  H   H115      1.0  0.06425  0.27140  0.01547  1.0000
  Fe  Fe18      1.0  0.23465  0.47290  0.10080  1.0000
  C   C81       1.0  0.04492  0.03524  0.06154  1.0000
  H   H116      1.0  0.20287  0.11537  0.15562  1.0000
  C   C82       1.0  0.22299  0.02584  0.01999  1.0000
  H   H117      1.0  0.23441  0.40491  0.16318  1.0000
  H   H118      1.0  0.25168  0.44105  0.00229  1.0000
  H   H119      1.0  0.20915  0.44443  0.16968  1.0000
  C   C83       1.0  0.25363  0.47781  0.98213  1.0000
  C   C84       1.0  0.17881  0.00850  0.04402  1.0000
  H   H120      1.0  0.04981  0.99124  0.04858  1.0000
  H   H121      1.0  0.99986  0.44163  0.00994  1.0000
  H   H122      1.0  0.00854  0.14715  0.07562  1.0000
  H   H123      1.0  0.16647  0.00707  0.05429  1.0000
  H   H124      1.0  0.18198  0.47919  0.13871  1.0000
  C   C85       1.0  0.13831  0.10191  0.17812  1.0000
  H   H125      1.0  0.15197  0.07503  0.16788  1.0000
  H   H126      1.0  0.99292  0.12636  0.06149  1.0000
  H   H127      1.0  0.15463  0.07388  0.18844  1.0000
  H   H128      1.0  0.17795  0.04912  0.17614  1.0000
  C   C86       1.0  0.15535  0.08379  0.17678  1.0000
  S   S34       1.0  0.98891  0.24636  0.06364  1.0000
  C   C87       1.0  0.24560  0.01602  0.99475  1.0000
  C   C88       1.0  0.25510  0.44585  0.14563  1.0000
  N   N2        1.0  0.00342  0.08386  0.05938  1.0000
  H   H129      1.0  0.18443  0.05807  0.15571  1.0000
  H   H130      1.0  0.25031  0.03814  0.00941  1.0000
  C   C89       1.0  0.28985  0.45749  0.03620  1.0000
  H   H131      1.0  0.09288  0.16480  0.15975  1.0000
  H   H132      1.0  0.18277  0.28471  0.10819  1.0000
  H   H133      1.0  0.24295  0.33375  0.10801  1.0000
  H   H134      1.0  0.24812  0.26499  0.21762  1.0000
  H   H135      1.0  0.02379  0.32828  0.99173  1.0000
  C   C90       1.0  0.30591  0.45012  0.02495  1.0000
  H   H136      1.0  0.24130  0.39714  0.05379  1.0000
  C   C91       1.0  0.25445  0.40080  0.04472  1.0000
  H   H137      1.0  0.29132  0.35879  0.16066  1.0000
  H   H138      1.0  0.17552  0.09926  0.15906  1.0000
  H   H139      1.0  0.05422  0.45611  0.97560  1.0000
  C   C92       1.0  0.25357  0.38935  0.18034  1.0000
  H   H140      1.0  0.19535  0.02109  0.15127  1.0000
  H   H141      1.0  0.20847  0.02381  0.01640  1.0000
  C   C93       1.0  0.26383  0.25813  0.21986  1.0000
  H   H142      1.0  0.21057  0.48041  0.15289  1.0000
  C   C94       1.0  0.25466  0.98978  0.05070  1.0000
  H   H143      1.0  0.11667  0.20722  0.21001  1.0000
  H   H144      1.0  0.22263  0.42450  0.00567  1.0000
  H   H145      1.0  0.20466  0.44680  0.00314  1.0000
  H   H146      1.0  0.21961  0.03734  0.02836  1.0000
  C   C95       1.0  0.29776  0.47983  0.00545  1.0000
  C   C96       1.0  0.17648  0.09097  0.17131  1.0000
  H   H147      1.0  0.20211  0.29097  0.13666  1.0000
  H   H148      1.0  0.01023  0.11019  0.01060  1.0000
  H   H149      1.0  0.18903  0.01304  0.17246  1.0000
  H   H150      1.0  0.27333  0.27348  0.12091  1.0000
  H   H151      1.0  0.99723  0.28772  0.04371  1.0000
  C   C97       1.0  0.24220  0.45441  0.00726  1.0000
  H   H152      1.0  0.21877  0.43386  0.15189  1.0000
  H   H153      1.0  0.26079  0.41612  0.02095  1.0000
  H   H154      1.0  0.28304  0.43001  0.15546  1.0000
  C   C98       1.0  0.22623  0.32879  0.08991  1.0000
  H   H155      1.0  0.21711  0.33126  0.11476  1.0000
  C   C99       1.0  0.20825  0.03715  0.16640  1.0000
  H   H156      1.0  0.17778  0.10294  0.17853  1.0000
  H   H157      1.0  0.21134  0.02226  0.97980  1.0000
  H   H158      1.0  0.03565  0.29961  0.00921  1.0000
  C   C100      1.0  0.30985  0.46121  0.00962  1.0000
  H   H159      1.0  0.18430  0.04875  0.20029  1.0000
  C   C101      1.0  0.06124  0.30224  0.98962  1.0000
  S   S35       1.0  0.30046  0.29865  0.18657  1.0000
  C   C102      1.0  0.11306  0.21965  0.18583  1.0000
  C   C103      1.0  0.27821  0.44342  0.14680  1.0000
  C   C104      1.0  0.18942  0.06297  0.20196  1.0000
  H   H160      1.0  0.22053  0.04107  0.15661  1.0000
  H   H161      1.0  0.20739  0.08143  0.14638  1.0000
  H   H162      1.0  0.24113  0.38955  0.19061  1.0000
  N   N3        1.0  0.19512  0.07470  0.17134  1.0000
  H   H163      1.0  0.21388  0.32050  0.08854  1.0000
  C   C105      1.0  0.23091  0.32451  0.10734  1.0000
  H   H164      1.0  0.28572  0.00493  0.06654  1.0000
  C   C106      1.0  0.16712  0.15955  0.21121  1.0000
  H   H165      1.0  0.21463  0.03308  0.17782  1.0000
  H   H166      1.0  0.23996  0.32426  0.08144  1.0000
  C   C107      1.0  0.04382  0.34188  0.00305  1.0000
  S   S36       1.0  0.01265  0.24692  0.09423  1.0000
  H   H167      1.0  0.02814  0.10177  0.05527  1.0000
  C   C108      1.0  0.21150  0.08192  0.15836  1.0000
  H   H168      1.0  0.20631  0.08637  0.18972  1.0000
  S   S37       1.0  0.21490  0.99588  0.11094  1.0000
  C   C109      1.0  0.00357  0.99744  0.04104  1.0000
  H   H169      1.0  0.26571  0.46523  0.97858  1.0000
  C   C110      1.0  0.20066  0.29451  0.12377  1.0000
  C   C111      1.0  0.04341  0.19620  0.21832  1.0000
  H   H170      1.0  0.16946  0.18781  0.19548  1.0000
  C   C112      1.0  0.26810  0.27343  0.10935  1.0000
  H   H171      1.0  0.24494  0.44246  0.03805  1.0000
  H   H172      1.0  0.21856  0.46740  0.13572  1.0000
  C   C113      1.0  0.20330  0.07162  0.18704  1.0000
  H   H173      1.0  0.22828  0.46147  0.98519  1.0000
  H   H174      1.0  0.22619  0.32239  0.16591  1.0000
  H   H175      1.0  0.20248  0.41470  0.03343  1.0000
  C   C114      1.0  0.21148  0.46568  0.02606  1.0000
  H   H176      1.0  0.22986  0.01116  0.02635  1.0000
  H   H177      1.0  0.07102  0.30526  0.99798  1.0000
  C   C115      1.0  0.21268  0.43625  0.01232  1.0000
  C   C116      1.0  0.27097  0.24024  0.20989  1.0000
  C   C117      1.0  0.19595  0.42592  0.02392  1.0000
  C   C118      1.0  0.23034  0.31655  0.14137  1.0000
  H   H178      1.0  0.26567  0.48215  0.04072  1.0000
  H   H179      1.0  0.24235  0.28548  0.13701  1.0000
  H   H180      1.0  0.22029  0.10583  0.16978  1.0000
  H   H181      1.0  0.12319  0.15992  0.20941  1.0000
  C   C119      1.0  0.16811  0.18047  0.20773  1.0000
  H   H182      1.0  0.22618  0.07155  0.15910  1.0000
  H   H183      1.0  0.19107  0.26501  0.12389  1.0000
  H   H184      1.0  0.17284  0.40715  0.02360  1.0000
  H   H185      1.0  0.17681  0.42531  0.00587  1.0000
  N   N4        1.0  0.22522  0.44766  0.01978  1.0000
  C   C120      1.0  0.01762  0.13306  0.07149  1.0000
  H   H186      1.0  0.06430  0.16977  0.21248  1.0000
  H   H187      1.0  0.18457  0.43751  0.02962  1.0000
  H   H188      1.0  0.30756  0.43800  0.13211  1.0000
  H   H189      1.0  0.02614  0.44822  0.05357  1.0000
  H   H190      1.0  0.07256  0.16982  0.18640  1.0000
  C   C121      1.0  0.30980  0.40485  0.08667  1.0000
  H   H191      1.0  0.16706  0.20840  0.21735  1.0000
  C   C122      1.0  0.02323  0.47186  0.03346  1.0000
  H   H192      1.0  0.28698  0.23349  0.21100  1.0000
  H   H193      1.0  0.31534  0.43573  0.02810  1.0000
  H   H194      1.0  0.14570  0.46486  0.05560  1.0000
  H   H195      1.0  0.23389  0.33220  0.13678  1.0000
  H   H196      1.0  0.26746  0.30576  0.10088  1.0000
  H   H197      1.0  0.25275  0.29322  0.09130  1.0000
  H   H198      1.0  0.25237  0.43352  0.13939  1.0000
  H   H199      1.0  0.23635  0.12466  0.14491  1.0000
  H   H200      1.0  0.08974  0.14914  0.19567  1.0000
  H   H201      1.0  0.31769  0.36412  0.10223  1.0000
  H   H202      1.0  0.21838  0.06172  0.18632  1.0000
  H   H203      1.0  0.09917  0.19003  0.17629  1.0000
  H   H204      1.0  0.19271  0.01104  0.04836  1.0000
  H   H205      1.0  0.30565  0.36207  0.13094  1.0000
  H   H206      1.0  0.03316  0.28828  0.99222  1.0000
  C   C123      1.0  0.99436  0.30412  0.03866  1.0000
  H   H207      1.0  0.27996  0.25938  0.18749  1.0000
  H   H208      1.0  0.24747  0.99797  0.13917  1.0000
  H   H209      1.0  0.25866  0.46420  0.17113  1.0000
  H   H210      1.0  0.99403  0.34532  0.05983  1.0000
  H   H211      1.0  0.21400  0.04608  0.21470  1.0000
  H   H212      1.0  0.28192  0.45726  0.15051  1.0000
  H   H213      1.0  0.01399  0.99387  0.12806  1.0000
  H   H214      1.0  0.12544  0.41626  0.98077  1.0000
  H   H215      1.0  0.01925  0.36757  0.00480  1.0000
  N   N5        1.0  0.05422  0.32160  0.97903  1.0000
  N   N6        1.0  0.23751  0.30248  0.11388  1.0000
  H   H216      1.0  0.21926  0.28868  0.10132  1.0000
  C   C124      1.0  0.09337  0.15266  0.17025  1.0000
  H   H217      1.0  0.29761  0.27887  0.09595  1.0000
  H   H218      1.0  0.29507  0.25237  0.10238  1.0000
  H   H219      1.0  0.18655  0.45170  0.14170  1.0000
  H   H220      1.0  0.00060  0.48202  0.98526  1.0000
  H   H221      1.0  0.28828  0.45438  0.12190  1.0000
  C   C125      1.0  0.28702  0.26746  0.09760  1.0000
  H   H222      1.0  0.99546  0.29922  0.11963  1.0000
  H   H223      1.0  0.08198  0.14265  0.16988  1.0000
  H   H224      1.0  0.26810  0.39033  0.18448  1.0000
  H   H225      1.0  0.25894  0.30396  0.12971  1.0000
  H   H226      1.0  0.25848  0.26121  0.11090  1.0000
  H   H227      1.0  0.06005  0.03107  0.05453  1.0000
  C   C126      1.0  0.21619  0.10382  0.15822  1.0000
  C   C127      1.0  0.24294  0.30117  0.13048  1.0000
  H   H228      1.0  0.03437  0.05531  0.04164  1.0000
  H   H229      1.0  0.25403  0.25404  0.19017  1.0000
  C   C128      1.0  0.11660  0.20086  0.19886  1.0000
  H   H230      1.0  0.99136  0.08156  0.09155  1.0000
  C   C129      1.0  0.05326  0.38899  0.97409  1.0000
  C   C130      1.0  0.03792  0.33539  0.98811  1.0000
  C   C131      1.0  0.10290  0.17754  0.18603  1.0000
  H   H231      1.0  0.28046  0.00022  0.97136  1.0000
  H   H232      1.0  0.31208  0.38530  0.13436  1.0000
  H   H233      1.0  0.23211  0.29569  0.16368  1.0000
  H   H234      1.0  0.99849  0.38015  0.06207  1.0000
  H   H235      1.0  0.28775  0.42707  0.12625  1.0000
  H   H236      1.0  0.00210  0.12149  0.03690  1.0000
  N   N7        1.0  0.24106  0.44651  0.16125  1.0000
  C   C132      1.0  0.23547  0.31123  0.15840  1.0000
  H   H237      1.0  0.09774  0.15720  0.21691  1.0000
  H   H238      1.0  0.03337  0.34979  0.98028  1.0000
  H   H239      1.0  0.26690  0.01652  0.03802  1.0000
  H   H240      1.0  0.23461  0.42759  0.18390  1.0000
  C   C133      1.0  0.08047  0.19693  0.20635  1.0000
  H   H241      1.0  0.12366  0.24141  0.19767  1.0000
  H   H242      1.0  0.11887  0.17044  0.18228  1.0000
  H   H243      1.0  0.19523  0.40248  0.00927  1.0000
  C   C134      1.0  0.31374  0.39637  0.10371  1.0000
  H   H244      1.0  0.26789  0.46673  0.21576  1.0000
  H   H245      1.0  0.04973  0.32849  0.01123  1.0000
  H   H246      1.0  0.02301  0.09014  0.07520  1.0000
  H   H247      1.0  0.01932  0.08659  0.03516  1.0000
  H   H248      1.0  0.14122  0.11189  0.18635  1.0000
  H   H249      1.0  0.00370  0.05126  0.06077  1.0000
  C   C135      1.0  0.24868  0.40698  0.16715  1.0000
  H   H250      1.0  0.01343  0.34382  0.01684  1.0000
  C   C136      1.0  0.00456  0.47441  0.06002  1.0000
  H   H251      1.0  0.21375  0.31711  0.14193  1.0000
  H   H252      1.0  0.02666  0.13752  0.05975  1.0000
  C   C137      1.0  0.06487  0.18408  0.21702  1.0000
  C   C138      1.0  0.26751  0.00020  0.03863  1.0000
  C   C139      1.0  0.20058  0.05804  0.21659  1.0000
  H   H253      1.0  0.09714  0.22754  0.18751  1.0000
  C   C140      1.0  0.16689  0.19211  0.22014  1.0000
  C   C141      1.0  0.01540  0.09796  0.06478  1.0000
  H   H254      1.0  0.27346  0.27011  0.21439  1.0000
  C   C142      1.0  0.01871  0.46332  0.04940  1.0000
  C   C143      1.0  0.23399  0.10859  0.14533  1.0000
  H   H255      1.0  0.20074  0.46035  0.03663  1.0000
  H   H256      1.0  0.30211  0.39431  0.08185  1.0000
  H   H257      1.0  0.26130  0.22801  0.21373  1.0000
  H   H258      1.0  0.29626  0.99385  0.09315  1.0000
  H   H259      1.0  0.07126  0.29122  0.98230  1.0000
  C   C144      1.0  0.22231  0.48157  0.03127  1.0000
  H   H260      1.0  0.00123  0.46778  0.07237  1.0000
  H   H261      1.0  0.23077  0.10675  0.13341  1.0000
  N   N8        1.0  0.10157  0.18588  0.20154  1.0000
  C   C145      1.0  0.28125  0.98972  0.02739  1.0000
  H   H262      1.0  0.07909  0.33599  0.98287  1.0000
  H   H263      1.0  0.20565  0.07196  0.21906  1.0000
  C   C146      1.0  0.23738  0.03320  0.00526  1.0000
  H   H264      1.0  0.00756  0.31151  0.03962  1.0000
  H   H265      1.0  0.04052  0.26250  0.01555  1.0000
  H   H266      1.0  0.13231  0.19289  0.19571  1.0000
  Fe  Fe19      1.0  0.31343  0.28342  0.16464  1.0000
  C   C147      1.0  0.10836  0.16861  0.21409  1.0000
  H   H267      1.0  0.99211  0.42798  0.99613  1.0000
  H   H268      1.0  0.29867  0.39515  0.11108  1.0000
  H   H269      1.0  0.17854  0.46549  0.15867  1.0000
  H   H270      1.0  0.32091  0.40750  0.10827  1.0000
  H   H271      1.0  0.19471  0.99207  0.02527  1.0000
  C   C148      1.0  0.18308  0.98937  0.03580  1.0000
  H   H272      1.0  0.99271  0.03585  0.98257  1.0000
  H   H273      1.0  0.99301  0.30522  0.02582  1.0000
  H   H274      1.0  0.99282  0.47935  0.00627  1.0000
  C   C149      1.0  0.29990  0.99397  0.06795  1.0000
  H   H275      1.0  0.25772  0.98695  0.11037  1.0000
  H   H276      1.0  0.26393  0.04978  0.98343  1.0000
  H   H277      1.0  0.20148  0.47389  0.01721  1.0000
  H   H278      1.0  0.28151  0.02705  0.98649  1.0000
  H   H279      1.0  0.29087  0.31806  0.21451  1.0000
  C   C150      1.0  0.30509  0.36415  0.16308  1.0000
  H   H280      1.0  0.30184  0.38086  0.16344  1.0000
  N   N9        1.0  0.25443  0.02284  0.97772  1.0000
  H   H281      1.0  0.31041  0.04500  0.97224  1.0000
  H   H282      1.0  0.24170  0.47906  0.15871  1.0000
  C   C151      1.0  0.27071  0.03555  0.97830  1.0000
  C   C152      1.0  0.31836  0.36903  0.13343  1.0000
  H   H283      1.0  0.30864  0.35629  0.17496  1.0000
  Fe  Fe20      1.0  0.99495  0.21202  0.06819  1.0000
  C   C153      1.0  0.99362  0.10969  0.03473  1.0000
  H   H284      1.0  0.31290  0.00274  0.06554  1.0000
  C   C154      1.0  0.07217  0.33278  0.97281  1.0000
  H   H285      1.0  0.23839  0.98665  0.97550  1.0000
  H   H286      1.0  0.03832  0.98684  0.13542  1.0000
  Fe  Fe21      1.0  0.01948  0.34176  0.45422  1.0000
  S   S38       1.0  0.03300  0.32176  0.43497  1.0000
  S   S39       1.0  0.02131  0.37492  0.45458  1.0000
  Fe  Fe22      1.0  0.01256  0.23754  0.35720  1.0000
  H   H287      1.0  0.23301  0.20315  0.24238  1.0000
  S   S40       1.0  0.03756  0.23858  0.33567  1.0000
  H   H288      1.0  0.25271  0.46387  0.40164  1.0000
  H   H289      1.0  0.25756  0.10306  0.38329  1.0000
  S   S41       1.0  0.01560  0.24099  0.38216  1.0000
  C   C155      1.0  0.02045  0.29316  0.42072  1.0000
  Fe  Fe23      1.0  0.15329  0.18959  0.31183  1.0000
  S   S42       1.0  0.17249  0.20742  0.29214  1.0000
  S   S43       1.0  0.13207  0.20293  0.33260  1.0000
  Fe  Fe24      1.0  0.17496  0.14848  0.30203  1.0000
  S   S44       1.0  0.19555  0.16301  0.28153  1.0000
  S   S45       1.0  0.17489  0.11417  0.30787  1.0000
  Fe  Fe25      1.0  0.19910  0.18408  0.29835  1.0000
  S   S46       1.0  0.23088  0.18987  0.30031  1.0000
  Fe  Fe26      1.0  0.16762  0.18517  0.27657  1.0000
  S   S47       1.0  0.16178  0.19841  0.25138  1.0000
  S   S48       1.0  0.18055  0.16777  0.31933  1.0000
  S   S49       1.0  0.14636  0.16913  0.29576  1.0000
  S   S50       1.0  0.22919  0.00129  0.34832  1.0000
  C   C156      1.0  0.30777  0.08474  0.36761  1.0000
  S   S51       1.0  0.25655  0.00959  0.37471  1.0000
  C   C157      1.0  0.23713  0.46981  0.40581  1.0000
  H   H290      1.0  0.21956  0.04238  0.30674  1.0000
  Fe  Fe27      1.0  0.24815  0.02486  0.35080  1.0000
  S   S52       1.0  0.24197  0.05947  0.34706  1.0000
  S   S53       1.0  0.27670  0.01017  0.33700  1.0000
  C   C158      1.0  0.23225  0.23580  0.24233  1.0000
  C   C159      1.0  0.19378  0.01050  0.31717  1.0000
  S   S54       1.0  0.29227  0.45531  0.36623  1.0000
  C   C160      1.0  0.10686  0.00483  0.43845  1.0000
  Fe  Fe28      1.0  0.29879  0.45240  0.34005  1.0000
  H   H291      1.0  0.99746  0.29755  0.33528  1.0000
  C   C161      1.0  0.21002  0.47715  0.42782  1.0000
  Fe  Fe29      1.0  0.30156  0.32825  0.29297  1.0000
  S   S55       1.0  0.29196  0.30338  0.31235  1.0000
  S   S56       1.0  0.28780  0.36151  0.29443  1.0000
  Fe  Fe30      1.0  0.28480  0.28854  0.29267  1.0000
  S   S57       1.0  0.25419  0.27908  0.29167  1.0000
  S   S58       1.0  0.29244  0.31435  0.27355  1.0000
  H   H292      1.0  0.03761  0.32099  0.34836  1.0000
  Fe  Fe31      1.0  0.98854  0.37675  0.46617  1.0000
  H   H293      1.0  0.25188  0.45512  0.29988  1.0000
  C   C162      1.0  0.25078  0.30842  0.24881  1.0000
  H   H294      1.0  0.24786  0.00178  0.42234  1.0000
  S   S59       1.0  0.23069  0.47472  0.37423  1.0000
  C   C163      1.0  0.31395  0.30528  0.22948  1.0000
  C   C164      1.0  0.26400  0.29067  0.24126  1.0000
  H   H295      1.0  0.30196  0.44744  0.41074  1.0000
  C   C165      1.0  0.02173  0.18328  0.33257  1.0000
  H   H296      1.0  0.06886  0.17982  0.22929  1.0000
  H   H297      1.0  0.12406  0.47521  0.41978  1.0000
  H   H298      1.0  0.19882  0.99673  0.29584  1.0000
  H   H299      1.0  0.20237  0.43072  0.45983  1.0000
  H   H300      1.0  0.16542  0.13395  0.22998  1.0000
  C   C166      1.0  0.28791  0.40843  0.31889  1.0000
  C   C167      1.0  0.28197  0.39477  0.31035  1.0000
  C   C168      1.0  0.29539  0.37734  0.30625  1.0000
  H   H301      1.0  0.30932  0.05630  0.35091  1.0000
  C   C169      1.0  0.23586  0.99681  0.44752  1.0000
  H   H302      1.0  0.27743  0.42172  0.32207  1.0000
  H   H303      1.0  0.26686  0.39762  0.30700  1.0000
  N   N10       1.0  0.21832  0.02032  0.29127  1.0000
  H   H304      1.0  0.07110  0.30142  0.33907  1.0000
  C   C170      1.0  0.19756  0.41282  0.44211  1.0000
  H   H305      1.0  0.16902  0.40793  0.40438  1.0000
  C   C171      1.0  0.30560  0.46127  0.41453  1.0000
  C   C172      1.0  0.23792  0.21456  0.29663  1.0000
  C   C173      1.0  0.25697  0.21722  0.29992  1.0000
  C   C174      1.0  0.26251  0.23687  0.29804  1.0000
  C   C175      1.0  0.24894  0.25396  0.29291  1.0000
  C   C176      1.0  0.23011  0.25122  0.28924  1.0000
  C   C177      1.0  0.22466  0.23160  0.29100  1.0000
  H   H306      1.0  0.26736  0.20406  0.30420  1.0000
  H   H307      1.0  0.27706  0.23882  0.30088  1.0000
  H   H308      1.0  0.21959  0.26439  0.28518  1.0000
  H   H309      1.0  0.21007  0.22969  0.28823  1.0000
  C   C178      1.0  0.16534  0.18284  0.23613  1.0000
  C   C179      1.0  0.26154  0.43244  0.27345  1.0000
  C   C180      1.0  0.16532  0.16173  0.23960  1.0000
  H   H310      1.0  0.29447  0.23449  0.23465  1.0000
  H   H311      1.0  0.16411  0.15444  0.25188  1.0000
  C   C181      1.0  0.19373  0.09904  0.31863  1.0000
  C   C182      1.0  0.19334  0.07794  0.32280  1.0000
  C   C183      1.0  0.20801  0.06559  0.33155  1.0000
  C   C184      1.0  0.22326  0.07426  0.33604  1.0000
  C   C185      1.0  0.22367  0.09532  0.33184  1.0000
  C   C186      1.0  0.20899  0.10767  0.32314  1.0000
  H   H312      1.0  0.18148  0.07121  0.31943  1.0000
  H   H313      1.0  0.20738  0.04946  0.33500  1.0000
  H   H314      1.0  0.23540  0.10217  0.33526  1.0000
  H   H315      1.0  0.20948  0.12387  0.31994  1.0000
  C   C187      1.0  0.06385  0.22885  0.33510  1.0000
  C   C188      1.0  0.07519  0.22386  0.32061  1.0000
  C   C189      1.0  0.09605  0.21583  0.31963  1.0000
  C   C190      1.0  0.10590  0.21310  0.33310  1.0000
  C   C191      1.0  0.09467  0.21849  0.34753  1.0000
  C   C192      1.0  0.07369  0.22608  0.34860  1.0000
  H   H316      1.0  0.06773  0.22602  0.31008  1.0000
  H   H317      1.0  0.10452  0.21185  0.30843  1.0000
  H   H318      1.0  0.10218  0.21647  0.35800  1.0000
  H   H319      1.0  0.06515  0.22982  0.35982  1.0000
  C   C193      1.0  0.99884  0.15931  0.43199  1.0000
  H   H320      1.0  0.30181  0.47107  0.27856  1.0000
  C   C194      1.0  0.26882  0.45803  0.24118  1.0000
  H   H321      1.0  0.26370  0.22049  0.24048  1.0000
  H   H322      1.0  0.09824  0.99947  0.45014  1.0000
  H   H323      1.0  0.29392  0.04908  0.32261  1.0000
  H   H324      1.0  0.21935  0.04789  0.26174  1.0000
  H   H325      1.0  0.08985  0.41717  0.44766  1.0000
  H   H326      1.0  0.17991  0.02054  0.31358  1.0000
  C   C195      1.0  0.01669  0.31339  0.42403  1.0000
  H   H327      1.0  0.22716  0.01246  0.44665  1.0000
  H   H328      1.0  0.18251  0.05859  0.25931  1.0000
  H   H329      1.0  0.26399  0.00756  0.43529  1.0000
  C   C196      1.0  0.31914  0.09905  0.35446  1.0000
  N   N11       1.0  0.26488  0.25300  0.23756  1.0000
  C   C197      1.0  0.25477  0.23455  0.24483  1.0000
  C   C198      1.0  0.28701  0.24843  0.23989  1.0000
  C   C199      1.0  0.25402  0.27096  0.24562  1.0000
  H   H330      1.0  0.30723  0.31432  0.23885  1.0000
  C   C200      1.0  0.29409  0.06554  0.35034  1.0000
  H   H331      1.0  0.09728  0.01813  0.43251  1.0000
  H   H332      1.0  0.28329  0.40376  0.27366  1.0000
  C   C201      1.0  0.16605  0.15016  0.22718  1.0000
  H   H333      1.0  0.28335  0.05425  0.35180  1.0000
  H   H334      1.0  0.12564  0.38525  0.45416  1.0000
  H   H335      1.0  0.30744  0.04535  0.38474  1.0000
  H   H336      1.0  0.24301  0.00493  0.24597  1.0000
  H   H337      1.0  0.25460  0.23177  0.25799  1.0000
  H   H338      1.0  0.01161  0.27105  0.40849  1.0000
  H   H339      1.0  0.27872  0.10642  0.34847  1.0000
  H   H340      1.0  0.99210  0.13491  0.45099  1.0000
  H   H341      1.0  0.25225  0.26688  0.25883  1.0000
  C   C202      1.0  0.26345  0.46804  0.27523  1.0000
  H   H342      1.0  0.19864  0.40743  0.38077  1.0000
  H   H343      1.0  0.24887  0.47138  0.27016  1.0000
  H   H344      1.0  0.28665  0.43719  0.29307  1.0000
  H   H345      1.0  0.30432  0.09186  0.37876  1.0000
  H   H346      1.0  0.11450  0.13610  0.32854  1.0000
  H   H347      1.0  0.19094  0.40110  0.45124  1.0000
  H   H348      1.0  0.25105  0.00326  0.46581  1.0000
  H   H349      1.0  0.28268  0.04266  0.40913  1.0000
  C   C203      1.0  0.23048  0.47029  0.42222  1.0000
  H   H350      1.0  0.22558  0.21136  0.26183  1.0000
  H   H351      1.0  0.16876  0.39082  0.43912  1.0000
  C   C204      1.0  0.22432  0.21559  0.24891  1.0000
  H   H352      1.0  0.21809  0.40349  0.39374  1.0000
  C   C205      1.0  0.19239  0.42694  0.39953  1.0000
  C   C206      1.0  0.06262  0.31119  0.36922  1.0000
  H   H353      1.0  0.12219  0.16061  0.32869  1.0000
  S   S60       1.0  0.99500  0.21116  0.36480  1.0000
  H   H354      1.0  0.25859  0.32213  0.24570  1.0000
  C   C207      1.0  0.06231  0.27136  0.38857  1.0000
  C   C208      1.0  0.26562  0.11109  0.37235  1.0000
  Fe  Fe32      1.0  0.30652  0.48409  0.35912  1.0000
  H   H355      1.0  0.29368  0.46492  0.25110  1.0000
  C   C209      1.0  0.13985  0.39704  0.43044  1.0000
  H   H356      1.0  0.06227  0.27725  0.34331  1.0000
  C   C210      1.0  0.15560  0.46031  0.41680  1.0000
  C   C211      1.0  0.29352  0.07664  0.33299  1.0000
  N   N12       1.0  0.27564  0.44832  0.27049  1.0000
  H   H357      1.0  0.17087  0.43556  0.44584  1.0000
  C   C212      1.0  0.20161  0.99701  0.40775  1.0000
  H   H358      1.0  0.21582  0.42582  0.37892  1.0000
  C   C213      1.0  0.20824  0.00378  0.30228  1.0000
  H   H359      1.0  0.04900  0.26419  0.36905  1.0000
  H   H360      1.0  0.17671  0.99712  0.33898  1.0000
  H   H361      1.0  0.20122  0.01889  0.32407  1.0000
  S   S61       1.0  0.31635  0.42245  0.33274  1.0000
  H   H362      1.0  0.30163  0.07037  0.30856  1.0000
  H   H363      1.0  0.03266  0.18689  0.22631  1.0000
  H   H364      1.0  0.18938  0.39837  0.41526  1.0000
  C   C214      1.0  0.13142  0.37992  0.44242  1.0000
  H   H365      1.0  0.30891  0.11293  0.35018  1.0000
  H   H366      1.0  0.20629  0.00735  0.39722  1.0000
  C   C215      1.0  0.11129  0.17502  0.23004  1.0000
  H   H367      1.0  0.19182  0.04337  0.29419  1.0000
  H   H368      1.0  0.22240  0.24777  0.24875  1.0000
  H   H369      1.0  0.30138  0.42598  0.27699  1.0000
  H   H370      1.0  0.19625  0.08000  0.25650  1.0000
  C   C216      1.0  0.00888  0.28670  0.41076  1.0000
  C   C217      1.0  0.29136  0.24470  0.25744  1.0000
  H   H371      1.0  0.12693  0.40950  0.42871  1.0000
  S   S62       1.0  0.00769  0.19031  0.40812  1.0000
  C   C218      1.0  0.22986  0.03001  0.30103  1.0000
  H   H372      1.0  0.04330  0.25033  0.40359  1.0000
  C   C219      1.0  0.23285  0.01025  0.27848  1.0000
  C   C220      1.0  0.25436  0.39749  0.27038  1.0000
  H   H373      1.0  0.02245  0.27911  0.35336  1.0000
  H   H374      1.0  0.24077  0.02155  0.26989  1.0000
  H   H375      1.0  0.31202  0.45224  0.30367  1.0000
  H   H376      1.0  0.24516  0.13928  0.37564  1.0000
  H   H377      1.0  0.27063  0.05773  0.29623  1.0000
  H   H378      1.0  0.03286  0.28088  0.38109  1.0000
  H   H379      1.0  0.22277  0.41041  0.45546  1.0000
  H   H380      1.0  0.21959  0.02701  0.47009  1.0000
  H   H381      1.0  0.31925  0.07112  0.37030  1.0000
  C   C221      1.0  0.30256  0.06214  0.32082  1.0000
  H   H382      1.0  0.20737  0.40521  0.43245  1.0000
  H   H383      1.0  0.05396  0.17642  0.32592  1.0000
  H   H384      1.0  0.24825  0.30465  0.26199  1.0000
  H   H385      1.0  0.29551  0.43873  0.24964  1.0000
  H   H386      1.0  0.01326  0.17524  0.45939  1.0000
  H   H387      1.0  0.23719  0.12404  0.36305  1.0000
  C   C222      1.0  0.22338  0.47635  0.39483  1.0000
  C   C223      1.0  0.20182  0.03587  0.28448  1.0000
  C   C224      1.0  0.25059  0.12931  0.36622  1.0000
  H   H388      1.0  0.24130  0.40427  0.26388  1.0000
  H   H389      1.0  0.25804  0.47188  0.24390  1.0000
  H   H390      1.0  0.25948  0.09136  0.35678  1.0000
  H   H391      1.0  0.31935  0.45394  0.26714  1.0000
  H   H392      1.0  0.27588  0.41383  0.25438  1.0000
  H   H393      1.0  0.23584  0.31211  0.24433  1.0000
  C   C225      1.0  0.27043  0.41175  0.26737  1.0000
  C   C226      1.0  0.28451  0.45216  0.25314  1.0000
  C   C227      1.0  0.99091  0.17545  0.42103  1.0000
  H   H394      1.0  0.27727  0.07400  0.38901  1.0000
  H   H395      1.0  0.13409  0.13799  0.33994  1.0000
  H   H396      1.0  0.24520  0.99959  0.28399  1.0000
  S   S63       1.0  0.31442  0.98726  0.37063  1.0000
  H   H397      1.0  0.02144  0.20004  0.33155  1.0000
  Fe  Fe33      1.0  0.26292  0.47471  0.36077  1.0000
  H   H398      1.0  0.21650  0.06334  0.27765  1.0000
  H   H399      1.0  0.22006  0.99121  0.30652  1.0000
  C   C228      1.0  0.21137  0.42246  0.45017  1.0000
  H   H400      1.0  0.06033  0.03636  0.46538  1.0000
  C   C229      1.0  0.15040  0.43831  0.42099  1.0000
  H   H401      1.0  0.99538  0.47297  0.46268  1.0000
  C   C230      1.0  0.17931  0.41270  0.41148  1.0000
  H   H402      1.0  0.25997  0.44544  0.24153  1.0000
  C   C231      1.0  0.29278  0.44071  0.28026  1.0000
  H   H403      1.0  0.21964  0.43327  0.44130  1.0000
  C   C232      1.0  0.25372  0.99684  0.43396  1.0000
  H   H404      1.0  0.27141  0.48133  0.26991  1.0000
  H   H405      1.0  0.05841  0.28243  0.39727  1.0000
  H   H406      1.0  0.28451  0.23147  0.26435  1.0000
  C   C233      1.0  0.18842  0.00459  0.42066  1.0000
  H   H407      1.0  0.06874  0.34291  0.38427  1.0000
  H   H408      1.0  0.25814  0.04467  0.31430  1.0000
  H   H409      1.0  0.06809  0.32047  0.39933  1.0000
  C   C234      1.0  0.04878  0.27777  0.37499  1.0000
  H   H410      1.0  0.31880  0.05629  0.32195  1.0000
  C   C235      1.0  0.25600  0.05276  0.30219  1.0000
  H   H411      1.0  0.25802  0.13847  0.35554  1.0000
  C   C236      1.0  0.18686  0.99199  0.32836  1.0000
  C   C237      1.0  0.18049  0.42901  0.43548  1.0000
  N   N13       1.0  0.16716  0.42145  0.42587  1.0000
  H   H412      1.0  0.02276  0.31100  0.36621  1.0000
  C   C238      1.0  0.00384  0.30588  0.34298  1.0000
  H   H413      1.0  0.13447  0.47118  0.39946  1.0000
  H   H414      1.0  0.09906  0.18724  0.23388  1.0000
  N   N14       1.0  0.19646  0.23560  0.33838  1.0000
  C   C239      1.0  0.18500  0.24748  0.32526  1.0000
  C   C240      1.0  0.21715  0.24225  0.33684  1.0000
  C   C241      1.0  0.19969  0.21326  0.33628  1.0000
  C   C242      1.0  0.18456  0.23744  0.35474  1.0000
  C   C243      1.0  0.17787  0.25923  0.35918  1.0000
  C   C244      1.0  0.16398  0.24143  0.32470  1.0000
  C   C245      1.0  0.21539  0.19889  0.34601  1.0000
  C   C246      1.0  0.21864  0.26527  0.33138  1.0000
  C   C247      1.0  0.23913  0.27029  0.33378  1.0000
  C   C248      1.0  0.16270  0.25903  0.37457  1.0000
  C   C249      1.0  0.15348  0.25496  0.31138  1.0000
  C   C250      1.0  0.21441  0.17643  0.34560  1.0000
  H   H415      1.0  0.19436  0.24574  0.31347  1.0000
  H   H416      1.0  0.18253  0.26411  0.32576  1.0000
  H   H417      1.0  0.22359  0.23743  0.34826  1.0000
  H   H418      1.0  0.22808  0.23440  0.32772  1.0000
  H   H419      1.0  0.20479  0.21148  0.32351  1.0000
  H   H420      1.0  0.18507  0.20692  0.33947  1.0000
  H   H421      1.0  0.17078  0.22978  0.35643  1.0000
  H   H422      1.0  0.19354  0.22901  0.36416  1.0000
  H   H423      1.0  0.17038  0.26975  0.34980  1.0000
  H   H424      1.0  0.19128  0.26534  0.36140  1.0000
  H   H425      1.0  0.16578  0.22550  0.32227  1.0000
  H   H426      1.0  0.15372  0.24287  0.33610  1.0000
  H   H427      1.0  0.21277  0.20120  0.35870  1.0000
  H   H428      1.0  0.23113  0.20165  0.34094  1.0000
  H   H429      1.0  0.21733  0.26919  0.31846  1.0000
  H   H430      1.0  0.20653  0.27545  0.33775  1.0000
  H   H431      1.0  0.25190  0.26048  0.32747  1.0000
  H   H432      1.0  0.24036  0.28647  0.32878  1.0000
  H   H433      1.0  0.24062  0.26806  0.34666  1.0000
  H   H434      1.0  0.15863  0.27473  0.37777  1.0000
  H   H435      1.0  0.14855  0.25368  0.37294  1.0000
  H   H436      1.0  0.16946  0.24891  0.38457  1.0000
  H   H437      1.0  0.16311  0.25389  0.29963  1.0000
  H   H438      1.0  0.13880  0.24975  0.31097  1.0000
  H   H439      1.0  0.15034  0.27113  0.31356  1.0000
  H   H440      1.0  0.21807  0.17291  0.33317  1.0000
  H   H441      1.0  0.22572  0.16667  0.35267  1.0000
  H   H442      1.0  0.19904  0.17261  0.35076  1.0000
  H   H443      1.0  0.09700  0.15134  0.24638  1.0000
  S   S64       1.0  0.16380  0.00151  0.44949  1.0000
  N   N15       1.0  0.28885  0.07851  0.36373  1.0000
  H   H444      1.0  0.24442  0.06657  0.30333  1.0000
  H   H445      1.0  0.11561  0.16176  0.25428  1.0000
  H   H446      1.0  0.23521  0.01869  0.31110  1.0000
  C   C251      1.0  0.20708  0.41508  0.38754  1.0000
  H   H447      1.0  0.24732  0.43854  0.26815  1.0000
  C   C252      1.0  0.24331  0.99052  0.46414  1.0000
  H   H448      1.0  0.09635  0.26257  0.33063  1.0000
  H   H449      1.0  0.27179  0.47034  0.29846  1.0000
  H   H450      1.0  0.07871  0.27078  0.38408  1.0000
  H   H451      1.0  0.13746  0.43937  0.43087  1.0000
  H   H452      1.0  0.12394  0.14429  0.23989  1.0000
  C   C253      1.0  0.27313  0.09671  0.35952  1.0000
  C   C254      1.0  0.20891  0.05358  0.27199  1.0000
  H   H453      1.0  0.03238  0.28248  0.42588  1.0000
  H   H454      1.0  0.23036  0.23935  0.22954  1.0000
  H   H455      1.0  0.25640  0.42877  0.28647  1.0000
  C   C255      1.0  0.19078  0.06734  0.26534  1.0000
  C   C256      1.0  0.25802  0.46897  0.29341  1.0000
  C   C257      1.0  0.18167  0.99131  0.43422  1.0000
  C   C258      1.0  0.04624  0.99860  0.45267  1.0000
  H   H456      1.0  0.15864  0.46549  0.42766  1.0000
  C   C259      1.0  0.07233  0.39973  0.46684  1.0000
  H   H457      1.0  0.28531  0.25826  0.26354  1.0000
  H   H458      1.0  0.30568  0.45848  0.42764  1.0000
  C   C260      1.0  0.06866  0.28832  0.34868  1.0000
  H   H459      1.0  0.24114  0.46491  0.43068  1.0000
  S   S65       1.0  0.31596  0.27051  0.28887  1.0000
  H   H460      1.0  0.27850  0.11717  0.37553  1.0000
  H   H461      1.0  0.18013  0.07415  0.27508  1.0000
  H   H462      1.0  0.20993  0.00680  0.26375  1.0000
  H   H463      1.0  0.12595  0.18100  0.22852  1.0000
  C   C261      1.0  0.10353  0.27188  0.33706  1.0000
  H   H464      1.0  0.30198  0.08981  0.33033  1.0000
  H   H465      1.0  0.01509  0.15607  0.43224  1.0000
  C   C262      1.0  0.29159  0.04441  0.38338  1.0000
  H   H466      1.0  0.11816  0.26288  0.34009  1.0000
  H   H467      1.0  0.04304  0.21048  0.22337  1.0000
  C   C263      1.0  0.28175  0.03408  0.39934  1.0000
  H   H468      1.0  0.18310  0.02081  0.42000  1.0000
  C   C264      1.0  0.03466  0.30651  0.35621  1.0000
  H   H469      1.0  0.20802  0.21702  0.24744  1.0000
  H   H470      1.0  0.11856  0.37523  0.43803  1.0000
  H   H471      1.0  0.06792  0.32300  0.35939  1.0000
  H   H472      1.0  0.18791  0.44186  0.42854  1.0000
  H   H473      1.0  0.06458  0.39372  0.45898  1.0000
  H   H474      1.0  0.04751  0.34137  0.40008  1.0000
  C   C265      1.0  0.19640  0.48416  0.41679  1.0000
  H   H475      1.0  0.99865  0.34279  0.41942  1.0000
  H   H476      1.0  0.20174  0.43458  0.40548  1.0000
  C   C266      1.0  0.27941  0.46275  0.22409  1.0000
  C   C267      1.0  0.27946  0.06580  0.37848  1.0000
  H   H477      1.0  0.08790  0.26211  0.36002  1.0000
  H   H478      1.0  0.27750  0.08238  0.33105  1.0000
  N   N16       1.0  0.05391  0.29563  0.36258  1.0000
  H   H479      1.0  0.27897  0.28828  0.24557  1.0000
  H   H480      1.0  0.16911  0.46141  0.40769  1.0000
  C   C268      1.0  0.11196  0.15693  0.24344  1.0000
  S   S66       1.0  0.26823  0.46955  0.33495  1.0000
  H   H481      1.0  0.26400  0.06327  0.37688  1.0000
  C   C269      1.0  0.30753  0.40502  0.32307  1.0000
  H   H482      1.0  0.19021  0.03142  0.45507  1.0000
  H   H483      1.0  0.18239  0.43864  0.39250  1.0000
  H   H484      1.0  0.12094  0.00995  0.44047  1.0000
  H   H485      1.0  0.14532  0.39106  0.41896  1.0000
  H   H486      1.0  0.03796  0.31246  0.38979  1.0000
  H   H487      1.0  0.15087  0.40948  0.44849  1.0000
  H   H488      1.0  0.28991  0.01832  0.40194  1.0000
  C   C270      1.0  0.04764  0.32273  0.38171  1.0000
  C   C271      1.0  0.02457  0.29437  0.34662  1.0000
  C   C272      1.0  0.00130  0.32710  0.41724  1.0000
  Fe  Fe34      1.0  0.28401  0.99354  0.36075  1.0000
  H   H489      1.0  0.28771  0.47601  0.22295  1.0000
  H   H490      1.0  0.14404  0.43477  0.41076  1.0000
  H   H491      1.0  0.07650  0.30425  0.37461  1.0000
  C   C273      1.0  0.08670  0.41303  0.46045  1.0000
  H   H492      1.0  0.09763  0.28606  0.35828  1.0000
  S   S67       1.0  0.20240  0.47709  0.44861  1.0000
  H   H493      1.0  0.23823  0.27517  0.24267  1.0000
  H   H494      1.0  0.03400  0.29234  0.33493  1.0000
  H   H495      1.0  0.03762  0.00884  0.44373  1.0000
  H   H496      1.0  0.19154  0.02831  0.27926  1.0000
  H   H497      1.0  0.06933  0.24614  0.40714  1.0000
  H   H498      1.0  0.26612  0.29550  0.22820  1.0000
  C   C274      1.0  0.24932  0.03878  0.29233  1.0000
  H   H499      1.0  0.24722  0.04769  0.28052  1.0000
  H   H500      1.0  0.03733  0.33514  0.37551  1.0000
  H   H501      1.0  0.26198  0.02600  0.29047  1.0000
  H   H502      1.0  0.10677  0.28608  0.32905  1.0000
  H   H503      1.0  0.29202  0.03425  0.37434  1.0000
  C   C275      1.0  0.05880  0.33245  0.39190  1.0000
  C   C276      1.0  0.08971  0.27690  0.35236  1.0000
  C   C277      1.0  0.05926  0.25033  0.39772  1.0000
  N   N17       1.0  0.06523  0.16301  0.35866  1.0000
  C   C278      1.0  0.04800  0.17729  0.35172  1.0000
  C   C279      1.0  0.07194  0.17243  0.37135  1.0000
  C   C280      1.0  0.08307  0.16099  0.34544  1.0000
  C   C281      1.0  0.05973  0.14201  0.36527  1.0000
  C   C282      1.0  0.03716  0.14075  0.37253  1.0000
  C   C283      1.0  0.04247  0.17190  0.33622  1.0000
  C   C284      1.0  0.10350  0.14941  0.35055  1.0000
  C   C285      1.0  0.05542  0.17955  0.38491  1.0000
  C   C286      1.0  0.06449  0.19012  0.39594  1.0000
  C   C287      1.0  0.03467  0.11958  0.38171  1.0000
  H   H504      1.0  0.32114  0.22651  0.25197  1.0000
  C   C288      1.0  0.11946  0.14581  0.33601  1.0000
  H   H505      1.0  0.05179  0.19306  0.34888  1.0000
  H   H506      1.0  0.03398  0.17860  0.36054  1.0000
  H   H507      1.0  0.08368  0.16158  0.37739  1.0000
  H   H508      1.0  0.07940  0.18590  0.36568  1.0000
  H   H509      1.0  0.08602  0.17639  0.33922  1.0000
  H   H510      1.0  0.07955  0.15291  0.33614  1.0000
  H   H511      1.0  0.06322  0.13188  0.35582  1.0000
  H   H512      1.0  0.06949  0.13436  0.37448  1.0000
  H   H513      1.0  0.02743  0.14369  0.36290  1.0000
  H   H514      1.0  0.03096  0.15202  0.38078  1.0000
  H   H515      1.0  0.06310  0.23866  0.38952  1.0000
  H   H516      1.0  0.04223  0.15528  0.33708  1.0000
  H   H517      1.0  0.10141  0.13438  0.35773  1.0000
  H   H518      1.0  0.10984  0.15854  0.35768  1.0000
  H   H519      1.0  0.04289  0.19065  0.38018  1.0000
  H   H520      1.0  0.04925  0.16631  0.39240  1.0000
  H   H521      1.0  0.07608  0.17921  0.40206  1.0000
  H   H522      1.0  0.07167  0.20319  0.38906  1.0000
  H   H523      1.0  0.05226  0.19596  0.40516  1.0000
  H   H524      1.0  0.01834  0.11902  0.38637  1.0000
  H   H525      1.0  0.04006  0.10766  0.37380  1.0000
  H   H526      1.0  0.04334  0.11627  0.39203  1.0000
  H   H527      1.0  0.26553  0.03317  0.39895  1.0000
  C   C289      1.0  0.15729  0.40455  0.43665  1.0000
  H   H528      1.0  0.24882  0.39429  0.28335  1.0000
  H   H529      1.0  0.00533  0.32145  0.33655  1.0000
  H   H530      1.0  0.14337  0.36643  0.44405  1.0000
  S   S68       1.0  0.11597  0.43651  0.46158  1.0000
  Fe  Fe35      1.0  0.17032  0.47778  0.46256  1.0000
  H   H531      1.0  0.18694  0.05008  0.46848  1.0000
  C   C290      1.0  0.31480  0.37362  0.31085  1.0000
  H   H532      1.0  0.28952  0.48119  0.39697  1.0000
  C   C291      1.0  0.03277  0.99658  0.46886  1.0000
  H   H533      1.0  0.00947  0.17849  0.34209  1.0000
  Fe  Fe36      1.0  0.99594  0.21617  0.38986  1.0000
  C   C292      1.0  0.11205  0.98785  0.42794  1.0000
  Fe  Fe37      1.0  0.25831  0.98532  0.33592  1.0000
  H   H534      1.0  0.26119  0.38271  0.26617  1.0000
  H   H535      1.0  0.01869  0.17978  0.32106  1.0000
  H   H536      1.0  0.31701  0.23626  0.27071  1.0000
  C   C293      1.0  0.99395  0.30059  0.40358  1.0000
  H   H537      1.0  0.05995  0.00530  0.45344  1.0000
  H   H538      1.0  0.99305  0.30706  0.35419  1.0000
  C   C294      1.0  0.28968  0.47956  0.41000  1.0000
  C   C295      1.0  0.13787  0.47526  0.41066  1.0000
  C   C296      1.0  0.22354  0.99781  0.26855  1.0000
  C   C297      1.0  0.99012  0.32077  0.40695  1.0000
  C   C298      1.0  0.31424  0.23990  0.25809  1.0000
  H   H539      1.0  0.32100  0.46392  0.40840  1.0000
  H   H540      1.0  0.20118  0.99542  0.46559  1.0000
  H   H541      1.0  0.14631  0.98748  0.38378  1.0000
  C   C299      1.0  0.18780  0.03357  0.46784  1.0000
  S   S69       1.0  0.31482  0.48022  0.33324  1.0000
  H   H542      1.0  0.01507  0.43845  0.46323  1.0000
  H   H543      1.0  0.02150  0.13761  0.46608  1.0000
  H   H544      1.0  0.01926  0.99010  0.46737  1.0000
  H   H545      1.0  0.11963  0.99443  0.41619  1.0000
  C   C300      1.0  0.23887  0.99134  0.25439  1.0000
  C   C301      1.0  0.20301  0.48355  0.40039  1.0000
  C   C302      1.0  0.30895  0.45506  0.27855  1.0000
  H   H546      1.0  0.04323  0.15019  0.46542  1.0000
  H   H547      1.0  0.29548  0.26085  0.23324  1.0000
  H   H548      1.0  0.22573  0.98662  0.44523  1.0000
  H   H549      1.0  0.19016  0.05227  0.22718  1.0000
  C   C303      1.0  0.32087  0.38748  0.31912  1.0000
  H   H550      1.0  0.27471  0.47574  0.41612  1.0000
  C   C304      1.0  0.32171  0.44950  0.29220  1.0000
  H   H551      1.0  0.29029  0.44931  0.22057  1.0000
  Fe  Fe38      1.0  0.01037  0.21144  0.60653  1.0000
  C   C305      1.0  0.15459  0.16434  0.71120  1.0000
  S   S70       1.0  0.03393  0.20003  0.62342  1.0000
  H   H552      1.0  0.00696  0.18132  0.50409  1.0000
  Fe  Fe39      1.0  0.99644  0.33618  0.48807  1.0000
  H   H553      1.0  0.18552  0.46366  0.59304  1.0000
  H   H554      1.0  0.21213  0.14326  0.70177  1.0000
  S   S71       1.0  0.01438  0.22299  0.58017  1.0000
  C   C306      1.0  0.01420  0.16864  0.47203  1.0000
  C   C307      1.0  0.00028  0.15572  0.53604  1.0000
  Fe  Fe40      1.0  0.13163  0.45770  0.47224  1.0000
  H   H555      1.0  0.01346  0.08326  0.55773  1.0000
  S   S72       1.0  0.02963  0.33191  0.47833  1.0000
  H   H556      1.0  0.06503  0.10479  0.63373  1.0000
  H   H557      1.0  0.24348  0.46266  0.55211  1.0000
  H   H558      1.0  0.28965  0.03879  0.60731  1.0000
  C   C308      1.0  0.01623  0.09906  0.55786  1.0000
  H   H559      1.0  0.23086  0.44944  0.52903  1.0000
  Fe  Fe41      1.0  0.09298  0.24491  0.67963  1.0000
  S   S73       1.0  0.09726  0.21327  0.69325  1.0000
  S   S74       1.0  0.07726  0.25514  0.65736  1.0000
  H   H560      1.0  0.31470  0.08715  0.64980  1.0000
  H   H561      1.0  0.98922  0.26872  0.52049  1.0000
  C   C309      1.0  0.22776  0.43377  0.53423  1.0000
  Fe  Fe42      1.0  0.12730  0.22048  0.69749  1.0000
  S   S75       1.0  0.15905  0.20220  0.69327  1.0000
  C   C310      1.0  0.99173  0.20317  0.66526  1.0000
  S   S76       1.0  0.12406  0.25131  0.68209  1.0000
  S   S77       1.0  0.07855  0.25984  0.70111  1.0000
  H   H562      1.0  0.19387  0.01665  0.58370  1.0000
  S   S78       1.0  0.11371  0.29401  0.71173  1.0000
  S   S79       1.0  0.09289  0.01280  0.51378  1.0000
  C   C311      1.0  0.15398  0.28502  0.71707  1.0000
  S   S80       1.0  0.22942  0.35786  0.70859  1.0000
  H   H563      1.0  0.99805  0.98886  0.52210  1.0000
  H   H564      1.0  0.23045  0.40374  0.57596  1.0000
  H   H565      1.0  0.21730  0.46094  0.57316  1.0000
  C   C312      1.0  0.02069  0.10119  0.57434  1.0000
  S   S81       1.0  0.20308  0.41762  0.69512  1.0000
  C   C313      1.0  0.26048  0.98747  0.51144  1.0000
  H   H566      1.0  0.23189  0.33301  0.68118  1.0000
  C   C314      1.0  0.14367  0.32284  0.66825  1.0000
  H   H567      1.0  0.01657  0.21623  0.50039  1.0000
  H   H568      1.0  0.18436  0.99666  0.53088  1.0000
  S   S82       1.0  0.25229  0.11152  0.70502  1.0000
  Fe  Fe43      1.0  0.26380  0.07816  0.70246  1.0000
  S   S83       1.0  0.28102  0.06481  0.68019  1.0000
  S   S84       1.0  0.23730  0.45140  0.62318  1.0000
  C   C315      1.0  0.04237  0.11283  0.59888  1.0000
  Fe  Fe44      1.0  0.27021  0.99964  0.61219  1.0000
  H   H569      1.0  0.02974  0.14077  0.48444  1.0000
  S   S85       1.0  0.25109  0.01815  0.63103  1.0000
  C   C316      1.0  0.20333  0.43520  0.58649  1.0000
  C   C317      1.0  0.00365  0.21184  0.50943  1.0000
  Fe  Fe45      1.0  0.30405  0.99996  0.58310  1.0000
  C   C318      1.0  0.16908  0.99507  0.60795  1.0000
  S   S86       1.0  0.27123  0.01408  0.58665  1.0000
  C   C319      1.0  0.27198  0.05055  0.66775  1.0000
  C   C320      1.0  0.25149  0.05325  0.66559  1.0000
  C   C321      1.0  0.24535  0.04311  0.65442  1.0000
  C   C322      1.0  0.25954  0.03002  0.64536  1.0000
  C   C323      1.0  0.27989  0.02679  0.64791  1.0000
  C   C324      1.0  0.28607  0.03712  0.65892  1.0000
  H   H570      1.0  0.24045  0.06356  0.67222  1.0000
  H   H571      1.0  0.22953  0.04563  0.65268  1.0000
  H   H572      1.0  0.29080  0.01621  0.64149  1.0000
  H   H573      1.0  0.30191  0.03472  0.66062  1.0000
  Fe  Fe46      1.0  0.11905  0.99172  0.50199  1.0000
  H   H574      1.0  0.02181  0.17864  0.47743  1.0000
  H   H575      1.0  0.25365  0.27252  0.69753  1.0000
  H   H576      1.0  0.20406  0.01025  0.54780  1.0000
  C   C325      1.0  0.21378  0.42703  0.67542  1.0000
  C   C326      1.0  0.20602  0.44675  0.66851  1.0000
  C   C327      1.0  0.21340  0.45464  0.65272  1.0000
  C   C328      1.0  0.22842  0.44272  0.64350  1.0000
  C   C329      1.0  0.23608  0.42293  0.65036  1.0000
  C   C330      1.0  0.22896  0.41518  0.66627  1.0000
  H   H577      1.0  0.19416  0.45600  0.67542  1.0000
  H   H578      1.0  0.24850  0.20417  0.71289  1.0000
  H   H579      1.0  0.24765  0.41355  0.64334  1.0000
  H   H580      1.0  0.23504  0.39996  0.67136  1.0000
  H   H581      1.0  0.28311  0.06150  0.61681  1.0000
  H   H582      1.0  0.29437  0.46176  0.56390  1.0000
  S   S87       1.0  0.05143  0.37614  0.49198  1.0000
  H   H583      1.0  0.05654  0.08598  0.62468  1.0000
  C   C331      1.0  0.19664  0.99636  0.62308  1.0000
  H   H584      1.0  0.22291  0.31037  0.69244  1.0000
  H   H585      1.0  0.10928  0.31805  0.55069  1.0000
  H   H586      1.0  0.02983  0.15490  0.60070  1.0000
  H   H587      1.0  0.99318  0.19205  0.67632  1.0000
  H   H588      1.0  0.05994  0.19003  0.64777  1.0000
  C   C332      1.0  0.22235  0.44451  0.57741  1.0000
  C   C333      1.0  0.16755  0.17657  0.70102  1.0000
  C   C334      1.0  0.18828  0.16871  0.69752  1.0000
  H   H589      1.0  0.29416  0.23220  0.69013  1.0000
  H   H590      1.0  0.31501  0.02696  0.62104  1.0000
  Fe  Fe47      1.0  0.23268  0.48425  0.61031  1.0000
  H   H591      1.0  0.26509  0.00258  0.50634  1.0000
  Fe  Fe48      1.0  0.99243  0.07759  0.48524  1.0000
  H   H592      1.0  0.26462  0.23545  0.70499  1.0000
  H   H593      1.0  0.03458  0.15983  0.71642  1.0000
  C   C335      1.0  0.19153  0.44831  0.59891  1.0000
  C   C336      1.0  0.26795  0.44666  0.56531  1.0000
  H   H594      1.0  0.98899  0.16316  0.66143  1.0000
  H   H595      1.0  0.03672  0.00642  0.50454  1.0000
  H   H596      1.0  0.20703  0.44681  0.55255  1.0000
  C   C337      1.0  0.17523  0.47730  0.53135  1.0000
  H   H597      1.0  0.32061  0.32682  0.71718  1.0000
  H   H598      1.0  0.00934  0.20660  0.52109  1.0000
  C   C338      1.0  0.03175  0.14943  0.58891  1.0000
  C   C339      1.0  0.04187  0.04768  0.48595  1.0000
  C   C340      1.0  0.04067  0.04844  0.50227  1.0000
  C   C341      1.0  0.05659  0.03797  0.51063  1.0000
  C   C342      1.0  0.07370  0.02661  0.50277  1.0000
  C   C343      1.0  0.07498  0.02615  0.48641  1.0000
  H   H599      1.0  0.20724  0.46981  0.64759  1.0000
  H   H600      1.0  0.02746  0.05695  0.50845  1.0000
  H   H601      1.0  0.05557  0.03849  0.52327  1.0000
  H   H602      1.0  0.15926  0.00877  0.61219  1.0000
  H   H603      1.0  0.27072  0.20361  0.69814  1.0000
  C   C344      1.0  0.22013  0.32288  0.68245  1.0000
  C   C345      1.0  0.02423  0.99744  0.50482  1.0000
  H   H604      1.0  0.00183  0.17546  0.64301  1.0000
  H   H605      1.0  0.27234  0.08152  0.59189  1.0000
  C   C346      1.0  0.16182  0.99227  0.59231  1.0000
  C   C347      1.0  0.02794  0.14801  0.47204  1.0000
  H   H606      1.0  0.14524  0.31298  0.65880  1.0000
  H   H607      1.0  0.17482  0.32746  0.66298  1.0000
  C   C348      1.0  0.07872  0.40183  0.49335  1.0000
  H   H608      1.0  0.18786  0.32379  0.68726  1.0000
  H   H609      1.0  0.10078  0.42123  0.49481  1.0000
  H   H610      1.0  0.18539  0.02874  0.62608  1.0000
  C   C349      1.0  0.18466  0.01324  0.63280  1.0000
  C   C350      1.0  0.17062  0.37555  0.68965  1.0000
  H   H611      1.0  0.22111  0.98948  0.50341  1.0000
  H   H612      1.0  0.01524  0.15878  0.53035  1.0000
  H   H613      1.0  0.05274  0.13225  0.61344  1.0000
  C   C351      1.0  0.04580  0.21567  0.63269  1.0000
  C   C352      1.0  0.04344  0.23690  0.62858  1.0000
  C   C353      1.0  0.05324  0.24873  0.63620  1.0000
  C   C354      1.0  0.06537  0.23952  0.64808  1.0000
  C   C355      1.0  0.06761  0.21829  0.65224  1.0000
  C   C356      1.0  0.05793  0.20645  0.64454  1.0000
  H   H614      1.0  0.03428  0.24418  0.61941  1.0000
  H   H615      1.0  0.05146  0.26513  0.63287  1.0000
  H   H616      1.0  0.07696  0.21099  0.66129  1.0000
  H   H617      1.0  0.26826  0.40804  0.55067  1.0000
  S   S88       1.0  0.23761  0.99275  0.56491  1.0000
  H   H618      1.0  0.21329  0.99650  0.62253  1.0000
  H   H619      1.0  0.20156  0.39072  0.65534  1.0000
  H   H620      1.0  0.28952  0.45706  0.54488  1.0000
  H   H621      1.0  0.99875  0.20732  0.47944  1.0000
  H   H622      1.0  0.14211  0.36070  0.67669  1.0000
  H   H623      1.0  0.07207  0.17695  0.57354  1.0000
  H   H624      1.0  0.31490  0.20865  0.71853  1.0000
  C   C357      1.0  0.21248  0.42817  0.52499  1.0000
  S   S89       1.0  0.16322  0.44940  0.47923  1.0000
  C   C358      1.0  0.25633  0.39977  0.55811  1.0000
  H   H625      1.0  0.02760  0.01221  0.47199  1.0000
  H   H626      1.0  0.04535  0.18549  0.57280  1.0000
  C   C359      1.0  0.06222  0.10094  0.62226  1.0000
  C   C360      1.0  0.06839  0.39391  0.48334  1.0000
  H   H627      1.0  0.99579  0.21662  0.69211  1.0000
  C   C361      1.0  0.17131  0.38067  0.66014  1.0000
  Fe  Fe49      1.0  0.02846  0.36532  0.47965  1.0000
  H   H628      1.0  0.20911  0.01517  0.64601  1.0000
  H   H629      1.0  0.99470  0.15776  0.49349  1.0000
  H   H630      1.0  0.99791  0.02672  0.52012  1.0000
  H   H631      1.0  0.14793  0.38703  0.71819  1.0000
  H   H632      1.0  0.11091  0.48090  0.53112  1.0000
  H   H633      1.0  0.03357  0.08916  0.57730  1.0000
  H   H634      1.0  0.99682  0.37234  0.53182  1.0000
  N   N18       1.0  0.23405  0.43401  0.56363  1.0000
  C   C362      1.0  0.18527  0.39750  0.65715  1.0000
  S   S90       1.0  0.30358  0.98728  0.60911  1.0000
  C   C363      1.0  0.19305  0.01233  0.64843  1.0000
  H   H635      1.0  0.28484  0.26171  0.71072  1.0000
  H   H636      1.0  0.19515  0.99258  0.48644  1.0000
  H   H637      1.0  0.23217  0.44447  0.58663  1.0000
  H   H638      1.0  0.02754  0.21058  0.67407  1.0000
  H   H639      1.0  0.19839  0.17802  0.68957  1.0000
  C   C364      1.0  0.26651  0.23640  0.71740  1.0000
  H   H640      1.0  0.99734  0.01345  0.54022  1.0000
  H   H641      1.0  0.30693  0.05652  0.63248  1.0000
  H   H642      1.0  0.24825  0.98940  0.52172  1.0000
  H   H643      1.0  0.16526  0.42049  0.64359  1.0000
  H   H644      1.0  0.30122  0.10994  0.63978  1.0000
  C   C365      1.0  0.13810  0.31999  0.71788  1.0000
  C   C366      1.0  0.21926  0.43339  0.55224  1.0000
  C   C367      1.0  0.20786  0.99445  0.54586  1.0000
  H   H645      1.0  0.00731  0.20167  0.65829  1.0000
  S   S91       1.0  0.99561  0.36896  0.49135  1.0000
  H   H646      1.0  0.01603  0.13442  0.56779  1.0000
  H   H647      1.0  0.27732  0.38330  0.57432  1.0000
  H   H648      1.0  0.05514  0.14983  0.56760  1.0000
  C   C368      1.0  0.28928  0.05559  0.60538  1.0000
  N   N19       1.0  0.17353  0.36525  0.67491  1.0000
  H   H649      1.0  0.21120  0.41984  0.55615  1.0000
  H   H650      1.0  0.05713  0.99150  0.48298  1.0000
  C   C369      1.0  0.19612  0.14902  0.70443  1.0000
  C   C370      1.0  0.20668  0.99800  0.47646  1.0000
  H   H651      1.0  0.22157  0.31606  0.67131  1.0000
  H   H652      1.0  0.19767  0.34008  0.69775  1.0000
  N   N20       1.0  0.04806  0.31401  0.53194  1.0000
  C   C371      1.0  0.07102  0.31018  0.53016  1.0000
  C   C372      1.0  0.04139  0.30675  0.51816  1.0000
  C   C373      1.0  0.04158  0.33688  0.53050  1.0000
  C   C374      1.0  0.03805  0.30406  0.54774  1.0000
  C   C375      1.0  0.04965  0.28374  0.55547  1.0000
  C   C376      1.0  0.08066  0.32002  0.54168  1.0000
  C   C377      1.0  0.01846  0.34451  0.53074  1.0000
  C   C378      1.0  0.04599  0.28352  0.51737  1.0000
  C   C379      1.0  0.04076  0.27865  0.50189  1.0000
  C   C380      1.0  0.03595  0.27303  0.56914  1.0000
  C   C381      1.0  0.10267  0.31019  0.54281  1.0000
  H   H653      1.0  0.27919  0.16648  0.70484  1.0000
  H   H654      1.0  0.07755  0.31619  0.51779  1.0000
  H   H655      1.0  0.07689  0.29363  0.53149  1.0000
  H   H656      1.0  0.02466  0.31057  0.51839  1.0000
  H   H657      1.0  0.04830  0.31487  0.50667  1.0000
  H   H658      1.0  0.04962  0.34462  0.51931  1.0000
  H   H659      1.0  0.04602  0.34303  0.54046  1.0000
  H   H660      1.0  0.03531  0.31458  0.55690  1.0000
  H   H661      1.0  0.02259  0.30125  0.54651  1.0000
  H   H662      1.0  0.06283  0.28676  0.56047  1.0000
  H   H663      1.0  0.05555  0.27284  0.54687  1.0000
  H   H664      1.0  0.08078  0.33652  0.53718  1.0000
  H   H665      1.0  0.07191  0.31875  0.55386  1.0000
  H   H666      1.0  0.00949  0.33623  0.54101  1.0000
  H   H667      1.0  0.01345  0.34243  0.51951  1.0000
  H   H668      1.0  0.06227  0.27744  0.51783  1.0000
  H   H669      1.0  0.03647  0.27530  0.52737  1.0000
  H   H670      1.0  0.05020  0.28603  0.49137  1.0000
  H   H671      1.0  0.04370  0.26189  0.50178  1.0000
  H   H672      1.0  0.27957  0.05901  0.58195  1.0000
  H   H673      1.0  0.02896  0.28346  0.57800  1.0000
  H   H674      1.0  0.02370  0.26773  0.56441  1.0000
  H   H675      1.0  0.04498  0.25949  0.57530  1.0000
  H   H676      1.0  0.19767  0.43825  0.52681  1.0000
  H   H677      1.0  0.23265  0.04874  0.58515  1.0000
  H   H678      1.0  0.11198  0.31154  0.53081  1.0000
  H   H679      1.0  0.22807  0.01286  0.59466  1.0000
  N   N21       1.0  0.19122  0.99735  0.60659  1.0000
  H   H680      1.0  0.17055  0.36395  0.70053  1.0000
  H   H681      1.0  0.13712  0.38369  0.69266  1.0000
  C   C382      1.0  0.15078  0.39101  0.69221  1.0000
  H   H682      1.0  0.23810  0.27220  0.71695  1.0000
  H   H683      1.0  0.18377  0.38353  0.68980  1.0000
  H   H684      1.0  0.15663  0.34197  0.68881  1.0000
  H   H685      1.0  0.24205  0.42308  0.53216  1.0000
  C   C383      1.0  0.09287  0.41538  0.48697  1.0000
  H   H686      1.0  0.15316  0.26958  0.71545  1.0000
  H   H687      1.0  0.20793  0.41980  0.59297  1.0000
  C   C384      1.0  0.14877  0.39950  0.70794  1.0000
  H   H688      1.0  0.23610  0.00720  0.49138  1.0000
  C   C385      1.0  0.32002  0.06353  0.62548  1.0000
  C   C386      1.0  0.15748  0.35150  0.67687  1.0000
  H   H689      1.0  0.27376  0.47735  0.55465  1.0000
  C   C387      1.0  0.02636  0.12259  0.57453  1.0000
  C   C388      1.0  0.05916  0.03668  0.47805  1.0000
  H   H690      1.0  0.99875  0.26465  0.66223  1.0000
  H   H691      1.0  0.25564  0.37079  0.57394  1.0000
  H   H692      1.0  0.12807  0.33165  0.66926  1.0000
  H   H693      1.0  0.27621  0.37073  0.55757  1.0000
  C   C389      1.0  0.02094  0.22651  0.67583  1.0000
  H   H694      1.0  0.00544  0.27019  0.63256  1.0000
  C   C390      1.0  0.30544  0.22055  0.69590  1.0000
  C   C391      1.0  0.21502  0.02494  0.59691  1.0000
  C   C392      1.0  0.03165  0.23255  0.68835  1.0000
  C   C393      1.0  0.19880  0.33472  0.68609  1.0000
  H   H695      1.0  0.02926  0.10236  0.54853  1.0000
  H   H696      1.0  0.02070  0.02138  0.52961  1.0000
  C   C394      1.0  0.19184  0.23837  0.70325  1.0000
  H   H697      1.0  0.05708  0.11096  0.59076  1.0000
  C   C395      1.0  0.27422  0.06457  0.59365  1.0000
  C   C396      1.0  0.26698  0.37995  0.56656  1.0000
  H   H698      1.0  0.14563  0.31279  0.67974  1.0000
  H   H699      1.0  0.06541  0.14282  0.58618  1.0000
  H   H700      1.0  0.03246  0.11867  0.62374  1.0000
  H   H701      1.0  0.18400  0.02427  0.65531  1.0000
  H   H702      1.0  0.01355  0.00756  0.49729  1.0000
  S   S92       1.0  0.00381  0.18238  0.55626  1.0000
  S   S93       1.0  0.02199  0.05957  0.47497  1.0000
  H   H703      1.0  0.00375  0.44290  0.48312  1.0000
  C   C397      1.0  0.24283  0.41272  0.57029  1.0000
  H   H704      1.0  0.18412  0.25386  0.69908  1.0000
  H   H705      1.0  0.02659  0.24887  0.68974  1.0000
  H   H706      1.0  0.17846  0.44097  0.60557  1.0000
  H   H707      1.0  0.98898  0.29136  0.64048  1.0000
  H   H708      1.0  0.15771  0.34621  0.65220  1.0000
  C   C398      1.0  0.01336  0.36728  0.53211  1.0000
  H   H709      1.0  0.18212  0.02992  0.59977  1.0000
  H   H710      1.0  0.21921  0.03935  0.57212  1.0000
  H   H711      1.0  0.19262  0.43394  0.57831  1.0000
  H   H712      1.0  0.10336  0.29381  0.54795  1.0000
  H   H713      1.0  0.99183  0.22544  0.51075  1.0000
  H   H714      1.0  0.07689  0.09967  0.61410  1.0000
  H   H715      1.0  0.18274  0.40636  0.66728  1.0000
  C   C399      1.0  0.25340  0.27416  0.71023  1.0000
  C   C400      1.0  0.23362  0.99097  0.49316  1.0000
  H   H716      1.0  0.19857  0.34792  0.66117  1.0000
  C   C401      1.0  0.04659  0.11764  0.61500  1.0000
  H   H717      1.0  0.02862  0.22294  0.70007  1.0000
  C   C402      1.0  0.15974  0.33717  0.66404  1.0000
  C   C403      1.0  0.05650  0.17489  0.57959  1.0000
  C   C404      1.0  0.00677  0.01540  0.52832  1.0000
  H   H718      1.0  0.13860  0.17016  0.71389  1.0000
  Fe  Fe50      1.0  0.15232  0.47023  0.49802  1.0000
  H   H719      1.0  0.25918  0.05974  0.59850  1.0000
  H   H720      1.0  0.20143  0.45000  0.60761  1.0000
  H   H721      1.0  0.27716  0.43129  0.56695  1.0000
  H   H722      1.0  0.25822  0.44138  0.54425  1.0000
  H   H723      1.0  0.00709  0.09807  0.58304  1.0000
  H   H724      1.0  0.20621  0.36327  0.67328  1.0000
  C   C405      1.0  0.31450  0.14048  0.71593  1.0000
  H   H725      1.0  0.21831  0.43005  0.51202  1.0000
  H   H726      1.0  0.15058  0.40417  0.68251  1.0000
  H   H727      1.0  0.21002  0.41206  0.52892  1.0000
  C   C406      1.0  0.31433  0.08697  0.62438  1.0000
  C   C407      1.0  0.99077  0.16548  0.54923  1.0000
  C   C408      1.0  0.21818  0.04347  0.58428  1.0000
  C   C409      1.0  0.19456  0.01750  0.59646  1.0000
  C   C410      1.0  0.25048  0.44658  0.55560  1.0000
  S   S94       1.0  0.15118  0.99859  0.49536  1.0000
  H   H728      1.0  0.30357  0.20512  0.69390  1.0000
  H   H729      1.0  0.13038  0.00646  0.59830  1.0000
  H   H730      1.0  0.02443  0.28403  0.50086  1.0000
  H   H731      1.0  0.24672  0.39548  0.55023  1.0000
  C   C411      1.0  0.19469  0.35327  0.67305  1.0000
  H   H732      1.0  0.16447  0.23013  0.71752  1.0000
  H   H733      1.0  0.30968  0.13240  0.70764  1.0000
  Fe  Fe51      1.0  0.99424  0.20037  0.57751  1.0000
  H   H734      1.0  0.17472  0.37287  0.64934  1.0000
  H   H735      1.0  0.05480  0.17890  0.59185  1.0000
  H   H736      1.0  0.20552  0.05620  0.58610  1.0000
  H   H737      1.0  0.30863  0.45996  0.59089  1.0000
  Fe  Fe52      1.0  0.21368  0.38941  0.71242  1.0000
  H   H738      1.0  0.13418  0.98958  0.58345  1.0000
  H   H739      1.0  0.19227  0.99718  0.65584  1.0000
  H   H740      1.0  0.25157  0.41321  0.58013  1.0000
  C   C412      1.0  0.05324  0.15280  0.58013  1.0000
  C   C413      1.0  0.19664  0.98679  0.53621  1.0000
  N   N22       1.0  0.22736  0.98579  0.47834  1.0000
  H   H741      1.0  0.07581  0.39741  0.50613  1.0000
  H   H742      1.0  0.00237  0.10969  0.55497  1.0000
  H   H743      1.0  0.16840  0.01116  0.63590  1.0000
  H   H744      1.0  0.15525  0.38826  0.66028  1.0000
  H   H745      1.0  0.00375  0.11153  0.60591  1.0000
  H   H746      1.0  0.30333  0.09322  0.61589  1.0000
  H   H747      1.0  0.02455  0.23662  0.66451  1.0000
  H   H748      1.0  0.00362  0.23461  0.64674  1.0000
  C   C414      1.0  0.18049  0.22981  0.71925  1.0000
  S   S95       1.0  0.99284  0.18709  0.60343  1.0000
  H   H749      1.0  0.17309  0.02870  0.47363  1.0000
  C   C415      1.0  0.26994  0.25867  0.71759  1.0000
  H   H750      1.0  0.16512  0.00492  0.58263  1.0000
  H   H751      1.0  0.02630  0.18563  0.70774  1.0000
  H   H752      1.0  0.19190  0.22848  0.69405  1.0000
  C   C416      1.0  0.30343  0.22136  0.71401  1.0000
  S   S96       1.0  0.15817  0.46480  0.52404  1.0000
  H   H753      1.0  0.99291  0.42712  0.47256  1.0000
  H   H754      1.0  0.02188  0.37633  0.52198  1.0000
  H   H755      1.0  0.18423  0.40471  0.63150  1.0000
  C   C417      1.0  0.28225  0.46162  0.55661  1.0000
  H   H756      1.0  0.01716  0.37035  0.54351  1.0000
  H   H757      1.0  0.21546  0.02944  0.60870  1.0000
  C   C418      1.0  0.99277  0.16610  0.48136  1.0000
  C   C419      1.0  0.31823  0.47001  0.59424  1.0000
  C   C420      1.0  0.26444  0.19659  0.71013  1.0000
  C   C421      1.0  0.18124  0.41263  0.64222  1.0000
  H   H758      1.0  0.25328  0.17302  0.70084  1.0000
  C   C422      1.0  0.99071  0.14190  0.53022  1.0000
  C   C423      1.0  0.26380  0.17416  0.70924  1.0000
  C   C424      1.0  0.99767  0.22812  0.68125  1.0000
  Fe  Fe53      1.0  0.08425  0.22862  0.71495  1.0000
  C   C425      1.0  0.20533  0.02141  0.47621  1.0000
  S   S97       1.0  0.23668  0.06629  0.71774  1.0000
  C   C426      1.0  0.31078  0.06131  0.59879  1.0000
  Fe  Fe54      1.0  0.10991  0.26348  0.70487  1.0000
  H   H759      1.0  0.19150  0.42438  0.64035  1.0000
  C   C427      1.0  0.01242  0.99491  0.52199  1.0000
  H   H760      1.0  0.04837  0.23048  0.68447  1.0000
  H   H761      1.0  0.08821  0.01781  0.48016  1.0000
  H   H762      1.0  0.04156  0.12274  0.56718  1.0000
  H   H763      1.0  0.99834  0.13431  0.52021  1.0000
  H   H764      1.0  0.30887  0.23545  0.71580  1.0000
  H   H765      1.0  0.28986  0.08688  0.64455  1.0000
  H   H766      1.0  0.20777  0.23948  0.70443  1.0000
  C   C428      1.0  0.30447  0.09305  0.64062  1.0000
  H   H767      1.0  0.25610  0.28990  0.71076  1.0000
  H   H768      1.0  0.16122  0.47147  0.55581  1.0000
  H   H769      1.0  0.02078  0.16022  0.58217  1.0000
  C   C429      1.0  0.16241  0.14458  0.71804  1.0000
  H   H770      1.0  0.26217  0.45105  0.57726  1.0000
  S   S98       1.0  0.11996  0.47585  0.49254  1.0000
  C   C430      1.0  0.18322  0.13690  0.71480  1.0000
  C   C431      1.0  0.17347  0.47789  0.54785  1.0000
  H   H771      1.0  0.20286  0.02488  0.48867  1.0000
  N   N23       1.0  0.02670  0.12804  0.59083  1.0000
  H   H772      1.0  0.13463  0.41070  0.70932  1.0000
  H   H773      1.0  0.03756  0.09742  0.60136  1.0000
  C   C432      1.0  0.13690  0.29993  0.71573  1.0000
  C   C433      1.0  0.13889  0.99182  0.59478  1.0000
  H   H774      1.0  0.12502  0.33169  0.71674  1.0000
  H   H775      1.0  0.30872  0.07800  0.59487  1.0000
  H   H776      1.0  0.16189  0.40743  0.70811  1.0000
  H   H777      1.0  0.19094  0.19856  0.71533  1.0000
  H   H778      1.0  0.30817  0.48403  0.59763  1.0000
  H   H779      1.0  0.31618  0.05447  0.58757  1.0000
  C   C434      1.0  0.99012  0.27505  0.63904  1.0000
  C   C435      1.0  0.02825  0.17545  0.71916  1.0000
  C   C436      1.0  0.99476  0.19465  0.50466  1.0000
  H   H780      1.0  0.99200  0.24319  0.68543  1.0000
  H   H781      1.0  0.00560  0.13498  0.61184  1.0000
  C   C437      1.0  0.00619  0.12750  0.60109  1.0000
  H   H782      1.0  0.98934  0.15354  0.58694  1.0000
  C   C438      1.0  0.98856  0.23922  0.65378  1.0000
  H   H783      1.0  0.05649  0.98546  0.52073  1.0000
  Fe  Fe55      1.0  0.26315  0.98513  0.58103  1.0000
  C   C439      1.0  0.09707  0.42091  0.47045  1.0000
  C   C440      1.0  0.00040  0.44094  0.47127  1.0000
  H   H784      1.0  0.16932  0.02666  0.83278  1.0000
  Fe  Fe56      1.0  0.00282  0.22768  0.81500  1.0000
  S   S99       1.0  0.03581  0.21809  0.80519  1.0000
  H   H785      1.0  0.13751  0.35902  0.89998  1.0000
  H   H786      1.0  0.15104  0.39081  0.89963  1.0000
  C   C441      1.0  0.23870  0.03596  0.96830  1.0000
  Fe  Fe57      1.0  0.24693  0.35984  0.72828  1.0000
  Fe  Fe58      1.0  0.03990  0.36507  0.87852  1.0000
  S   S100      1.0  0.05348  0.39111  0.86260  1.0000
  S   S101      1.0  0.03982  0.33534  0.86840  1.0000
  Fe  Fe59      1.0  0.03857  0.38563  0.90846  1.0000
  S   S102      1.0  0.05227  0.41250  0.89464  1.0000
  S   S103      1.0  0.02814  0.38574  0.93499  1.0000
  Fe  Fe60      1.0  0.03083  0.41178  0.87740  1.0000
  S   S104      1.0  0.01485  0.44224  0.86666  1.0000
  Fe  Fe61      1.0  0.07366  0.38975  0.88123  1.0000
  S   S105      1.0  0.10792  0.38888  0.87471  1.0000
  S   S106      1.0  0.01560  0.38606  0.89198  1.0000
  S   S107      1.0  0.06164  0.36257  0.89649  1.0000
  S   S108      1.0  0.19377  0.39412  0.77084  1.0000
  S   S109      1.0  0.99369  0.22853  0.84146  1.0000
  S   S110      1.0  0.23877  0.01574  0.83186  1.0000
  H   H787      1.0  0.09339  0.47615  0.92082  1.0000
  S   S111      1.0  0.21359  0.45088  0.86032  1.0000
  C   C442      1.0  0.08856  0.44529  0.83794  1.0000
  C   C443      1.0  0.19838  0.04235  0.76823  1.0000
  Fe  Fe62      1.0  0.21962  0.45830  0.83337  1.0000
  S   S112      1.0  0.23548  0.43570  0.81635  1.0000
  H   H788      1.0  0.26197  0.99137  0.80797  1.0000
  C   C444      1.0  0.99671  0.45603  0.87974  1.0000
  H   H789      1.0  0.99532  0.20595  0.72245  1.0000
  H   H790      1.0  0.13800  0.42832  0.77249  1.0000
  H   H791      1.0  0.25387  0.11779  0.76953  1.0000
  H   H792      1.0  0.19619  0.05276  0.77736  1.0000
  Fe  Fe63      1.0  0.25392  0.06378  0.73851  1.0000
  C   C445      1.0  0.19382  0.42194  0.89731  1.0000
  S   S113      1.0  0.25859  0.03433  0.75606  1.0000
  H   H793      1.0  0.01481  0.17678  0.76230  1.0000
  H   H794      1.0  0.11813  0.20053  0.75576  1.0000
  S   S114      1.0  0.24129  0.09544  0.74356  1.0000
  H   H795      1.0  0.01902  0.44293  0.91727  1.0000
  C   C446      1.0  0.24449  0.02080  0.81081  1.0000
  C   C447      1.0  0.25624  0.00620  0.80193  1.0000
  C   C448      1.0  0.26079  0.01082  0.78523  1.0000
  C   C449      1.0  0.25343  0.02996  0.77719  1.0000
  C   C450      1.0  0.24163  0.04459  0.78606  1.0000
  C   C451      1.0  0.23746  0.04012  0.80282  1.0000
  C   C452      1.0  0.17319  0.31008  0.72294  1.0000
  H   H796      1.0  0.26603  0.98852  0.89586  1.0000
  H   H797      1.0  0.23541  0.05918  0.78001  1.0000
  H   H798      1.0  0.22840  0.05153  0.80961  1.0000
  C   C453      1.0  0.22348  0.42394  0.80408  1.0000
  C   C454      1.0  0.23563  0.41154  0.79336  1.0000
  C   C455      1.0  0.22681  0.40227  0.78313  1.0000
  C   C456      1.0  0.20568  0.40525  0.78355  1.0000
  C   C457      1.0  0.19350  0.41747  0.79438  1.0000
  C   C458      1.0  0.20232  0.42681  0.80456  1.0000
  H   H799      1.0  0.25200  0.40911  0.79294  1.0000
  H   H800      1.0  0.23637  0.39277  0.77496  1.0000
  H   H801      1.0  0.17716  0.41986  0.79482  1.0000
  H   H802      1.0  0.19276  0.43624  0.81277  1.0000
  C   C459      1.0  0.17965  0.41237  0.91128  1.0000
  C   C460      1.0  0.25827  0.43683  0.73726  1.0000
  H   H803      1.0  0.20676  0.20897  0.72549  1.0000
  C   C461      1.0  0.09115  0.32979  0.74799  1.0000
  C   C462      1.0  0.28340  0.99140  0.91430  1.0000
  C   C463      1.0  0.04597  0.38733  0.94745  1.0000
  C   C464      1.0  0.06653  0.38757  0.94147  1.0000
  H   H804      1.0  0.07177  0.38690  0.92891  1.0000
  C   C465      1.0  0.11982  0.41069  0.87346  1.0000
  C   C466      1.0  0.14094  0.40926  0.86862  1.0000
  C   C467      1.0  0.15094  0.42632  0.86730  1.0000
  C   C468      1.0  0.14000  0.44477  0.87148  1.0000
  C   C469      1.0  0.11891  0.44619  0.87642  1.0000
  C   C470      1.0  0.10879  0.42929  0.87724  1.0000
  H   H805      1.0  0.14968  0.39482  0.86603  1.0000
  H   H806      1.0  0.16722  0.42502  0.86362  1.0000
  H   H807      1.0  0.11039  0.46046  0.87961  1.0000
  H   H808      1.0  0.09253  0.43061  0.88094  1.0000
  H   H809      1.0  0.12801  0.45839  0.91356  1.0000
  H   H810      1.0  0.11450  0.42850  0.79776  1.0000
  H   H811      1.0  0.02344  0.38802  0.96844  1.0000
  H   H812      1.0  0.00099  0.44377  0.96120  1.0000
  N   N24       1.0  0.22485  0.45767  0.74954  1.0000
  C   C471      1.0  0.02767  0.28872  0.75630  1.0000
  H   H813      1.0  0.24921  0.43030  0.73029  1.0000
  H   H814      1.0  0.09637  0.38795  0.94725  1.0000
  C   C472      1.0  0.16624  0.98851  0.77591  1.0000
  C   C473      1.0  0.30173  0.48103  0.90084  1.0000
  H   H815      1.0  0.07799  0.44865  0.82887  1.0000
  C   C474      1.0  0.04059  0.33350  0.95184  1.0000
  H   H816      1.0  0.11919  0.32633  0.94834  1.0000
  C   C475      1.0  0.13856  0.39520  0.82954  1.0000
  C   C476      1.0  0.03672  0.46962  0.89776  1.0000
  C   C477      1.0  0.29755  0.20495  0.74979  1.0000
  C   C478      1.0  0.26508  0.08721  0.78075  1.0000
  H   H817      1.0  0.04212  0.47208  0.94298  1.0000
  H   H818      1.0  0.02119  0.26949  0.74012  1.0000
  C   C479      1.0  0.10604  0.33517  0.95506  1.0000
  H   H819      1.0  0.02394  0.27318  0.81902  1.0000
  H   H820      1.0  0.26520  0.44935  0.72924  1.0000
  H   H821      1.0  0.18515  0.27842  0.72174  1.0000
  S   S115      1.0  0.28183  0.07373  0.72307  1.0000
  C   C480      1.0  0.02169  0.32306  0.86187  1.0000
  C   C481      1.0  0.02820  0.30393  0.85652  1.0000
  C   C482      1.0  0.01452  0.29347  0.85132  1.0000
  H   H822      1.0  0.99287  0.23699  0.73593  1.0000
  H   H823      1.0  0.20958  0.41367  0.89735  1.0000
  H   H824      1.0  0.30286  0.03455  0.74149  1.0000
  H   H825      1.0  0.04393  0.29703  0.85653  1.0000
  H   H826      1.0  0.01977  0.27867  0.84753  1.0000
  C   C483      1.0  0.08044  0.38824  0.95184  1.0000
  H   H827      1.0  0.07794  0.34221  0.74763  1.0000
  H   H828      1.0  0.08137  0.99821  0.92065  1.0000
  C   C484      1.0  0.19492  0.05574  0.75240  1.0000
  C   C485      1.0  0.05112  0.22064  0.75103  1.0000
  C   C486      1.0  0.06670  0.21590  0.76054  1.0000
  C   C487      1.0  0.06195  0.21517  0.77721  1.0000
  C   C488      1.0  0.04165  0.21949  0.78435  1.0000
  C   C489      1.0  0.02620  0.22486  0.77476  1.0000
  C   C490      1.0  0.03098  0.22527  0.75819  1.0000
  H   H829      1.0  0.08225  0.21214  0.75508  1.0000
  H   H830      1.0  0.07395  0.21101  0.78463  1.0000
  H   H831      1.0  0.01058  0.22858  0.78016  1.0000
  H   H832      1.0  0.09495  0.40368  0.84308  1.0000
  H   H833      1.0  0.01135  0.16187  0.79060  1.0000
  H   H834      1.0  0.25309  0.11525  0.79096  1.0000
  H   H835      1.0  0.15578  0.00713  0.79473  1.0000
  H   H836      1.0  0.99994  0.28782  0.74688  1.0000
  C   C491      1.0  0.04516  0.45889  0.91299  1.0000
  C   C492      1.0  0.17678  0.19940  0.77108  1.0000
  C   C493      1.0  0.17028  0.99767  0.79034  1.0000
  H   H837      1.0  0.15013  0.17847  0.76276  1.0000
  H   H838      1.0  0.22350  0.01322  0.96125  1.0000
  H   H839      1.0  0.02398  0.46696  0.95981  1.0000
  C   C494      1.0  0.18400  0.21001  0.78310  1.0000
  H   H840      1.0  0.19499  0.03288  0.82852  1.0000
  C   C495      1.0  0.98922  0.99313  0.88919  1.0000
  C   C496      1.0  0.03936  0.38816  0.96375  1.0000
  H   H841      1.0  0.18402  0.16641  0.75361  1.0000
  C   C497      1.0  0.99060  0.47706  0.87549  1.0000
  N   N25       1.0  0.18750  0.01020  0.78697  1.0000
  C   C498      1.0  0.19078  0.17528  0.74253  1.0000
  H   H842      1.0  0.15010  0.21367  0.74329  1.0000
  C   C499      1.0  0.30107  0.47384  0.88643  1.0000
  C   C500      1.0  0.05404  0.99418  0.88637  1.0000
  H   H843      1.0  0.18232  0.18285  0.77372  1.0000
  H   H844      1.0  0.15990  0.20209  0.77316  1.0000
  H   H845      1.0  0.99678  0.47199  0.92414  1.0000
  C   C501      1.0  0.14210  0.39334  0.92529  1.0000
  H   H846      1.0  0.99555  0.10555  0.91376  1.0000
  C   C502      1.0  0.18696  0.02108  0.80113  1.0000
  C   C503      1.0  0.28770  0.09039  0.77791  1.0000
  H   H847      1.0  0.11566  0.42352  0.95389  1.0000
  H   H848      1.0  0.15767  0.00052  0.76796  1.0000
  C   C504      1.0  0.30771  0.28295  0.73978  1.0000
  N   N26       1.0  0.30321  0.07135  0.77710  1.0000
  H   H849      1.0  0.17852  0.22670  0.78122  1.0000
  H   H850      1.0  0.17784  0.20372  0.79542  1.0000
  H   H851      1.0  0.26477  0.00837  0.95632  1.0000
  H   H852      1.0  0.21141  0.04664  0.94614  1.0000
  C   C505      1.0  0.11744  0.45025  0.92276  1.0000
  H   H853      1.0  0.29341  0.18967  0.74989  1.0000
  H   H854      1.0  0.12291  0.24068  0.75139  1.0000
  H   H855      1.0  0.15235  0.16697  0.74510  1.0000
  H   H856      1.0  0.19906  0.03097  0.79887  1.0000
  N   N27       1.0  0.11859  0.39387  0.82422  1.0000
  H   H857      1.0  0.12974  0.38801  0.93447  1.0000
  C   C506      1.0  0.11301  0.37302  0.83127  1.0000
  C   C507      1.0  0.12029  0.39580  0.80632  1.0000
  C   C508      1.0  0.15760  0.38117  0.82253  1.0000
  C   C509      1.0  0.09208  0.36876  0.82827  1.0000
  C   C510      1.0  0.17635  0.38318  0.82972  1.0000
  C   C511      1.0  0.08653  0.34893  0.83832  1.0000
  H   H858      1.0  0.13706  0.39180  0.84276  1.0000
  H   H859      1.0  0.11312  0.37053  0.84445  1.0000
  H   H860      1.0  0.12444  0.36068  0.82656  1.0000
  H   H861      1.0  0.13065  0.38248  0.80192  1.0000
  H   H862      1.0  0.10534  0.39509  0.80272  1.0000
  H   H863      1.0  0.15563  0.36486  0.82505  1.0000
  H   H864      1.0  0.16098  0.38548  0.80941  1.0000
  H   H865      1.0  0.09258  0.36715  0.81554  1.0000
  H   H866      1.0  0.07956  0.38112  0.83132  1.0000
  H   H867      1.0  0.19004  0.37408  0.82382  1.0000
  H   H868      1.0  0.17445  0.37746  0.84271  1.0000
  H   H869      1.0  0.09825  0.33577  0.83547  1.0000
  H   H870      1.0  0.08505  0.35003  0.85126  1.0000
  H   H871      1.0  0.07165  0.34610  0.83586  1.0000
  H   H872      1.0  0.18061  0.99538  0.82034  1.0000
  C   C512      1.0  0.31125  0.31656  0.72492  1.0000
  C   C513      1.0  0.13342  0.41376  0.77908  1.0000
  H   H873      1.0  0.21822  0.17770  0.75257  1.0000
  C   C514      1.0  0.31867  0.04409  0.75857  1.0000
  C   C515      1.0  0.19062  0.20782  0.72501  1.0000
  C   C516      1.0  0.28346  0.22191  0.74053  1.0000
  H   H874      1.0  0.17686  0.22439  0.75219  1.0000
  C   C517      1.0  0.00123  0.17607  0.78668  1.0000
  S   S116      1.0  0.22478  0.34658  0.74818  1.0000
  H   H875      1.0  0.20691  0.47050  0.79699  1.0000
  C   C518      1.0  0.30251  0.06293  0.76199  1.0000
  H   H876      1.0  0.09313  0.45985  0.83960  1.0000
  H   H877      1.0  0.24297  0.43200  0.76171  1.0000
  H   H878      1.0  0.99217  0.09366  0.89722  1.0000
  C   C519      1.0  0.04757  0.98878  0.90431  1.0000
  H   H879      1.0  0.02180  0.47924  0.90040  1.0000
  H   H880      1.0  0.03094  0.30158  0.74678  1.0000
  H   H881      1.0  0.28252  0.48249  0.84104  1.0000
  H   H882      1.0  0.31180  0.06492  0.80997  1.0000
  H   H883      1.0  0.01083  0.20359  0.73754  1.0000
  H   H884      1.0  0.15567  0.19853  0.72769  1.0000
  H   H885      1.0  0.01052  0.16402  0.74086  1.0000
  H   H886      1.0  0.99589  0.34628  0.86591  1.0000
  H   H887      1.0  0.06716  0.34807  0.96630  1.0000
  H   H888      1.0  0.23574  0.47118  0.72568  1.0000
  Fe  Fe64      1.0  0.22620  0.09915  0.72161  1.0000
  C   C520      1.0  0.13909  0.38650  0.90956  1.0000
  C   C521      1.0  0.99855  0.19675  0.73405  1.0000
  H   H889      1.0  0.30307  0.15006  0.75426  1.0000
  H   H890      1.0  0.03856  0.43098  0.92803  1.0000
  C   C522      1.0  0.21437  0.46347  0.76548  1.0000
  C   C523      1.0  0.29981  0.05450  0.96437  1.0000
  C   C524      1.0  0.26413  0.48334  0.88891  1.0000
  H   H891      1.0  0.04759  0.47942  0.89053  1.0000
  S   S117      1.0  0.11461  0.23314  0.72050  1.0000
  H   H892      1.0  0.26176  0.07980  0.77109  1.0000
  C   C525      1.0  0.01337  0.27706  0.75052  1.0000
  H   H893      1.0  0.22026  0.00524  0.78593  1.0000
  H   H894      1.0  0.05571  0.31444  0.75445  1.0000
  H   H895      1.0  0.10418  0.33583  0.75099  1.0000
  C   C526      1.0  0.27886  0.31047  0.74033  1.0000
  H   H896      1.0  0.20097  0.20935  0.75290  1.0000
  C   C527      1.0  0.12421  0.18648  0.75029  1.0000
  H   H897      1.0  0.09336  0.45775  0.90778  1.0000
  H   H898      1.0  0.01928  0.29507  0.76705  1.0000
  H   H899      1.0  0.28022  0.00789  0.91265  1.0000
  H   H900      1.0  0.06289  0.02337  0.93821  1.0000
  H   H901      1.0  0.04524  0.99435  0.93607  1.0000
  C   C528      1.0  0.18349  0.02639  0.77285  1.0000
  H   H902      1.0  0.29114  0.02932  0.95608  1.0000
  C   C529      1.0  0.31078  0.15051  0.74213  1.0000
  C   C530      1.0  0.15760  0.42388  0.91156  1.0000
  H   H903      1.0  0.05432  0.34036  0.94609  1.0000
  H   H904      1.0  0.11768  0.42858  0.84178  1.0000
  H   H905      1.0  0.08989  0.01893  0.93895  1.0000
  H   H906      1.0  0.99303  0.16328  0.76795  1.0000
  C   C531      1.0  0.24521  0.44514  0.75216  1.0000
  H   H907      1.0  0.02889  0.33876  0.92920  1.0000
  H   H908      1.0  0.19926  0.05579  0.96463  1.0000
  C   C532      1.0  0.21412  0.17129  0.74263  1.0000
  H   H909      1.0  0.27807  0.28016  0.75324  1.0000
  H   H910      1.0  0.11534  0.43795  0.82127  1.0000
  H   H911      1.0  0.10740  0.23195  0.76967  1.0000
  C   C533      1.0  0.28733  0.29019  0.74515  1.0000
  S   S118      1.0  0.19260  0.11252  0.72446  1.0000
  H   H912      1.0  0.10898  0.41975  0.92983  1.0000
  H   H913      1.0  0.20089  0.20740  0.78196  1.0000
  H   H914      1.0  0.16779  0.03495  0.77496  1.0000
  H   H915      1.0  0.28030  0.20757  0.77343  1.0000
  C   C534      1.0  0.20814  0.99763  0.78309  1.0000
  H   H916      1.0  0.18464  0.44282  0.76050  1.0000
  H   H917      1.0  0.15675  0.34044  0.72343  1.0000
  H   H918      1.0  0.28489  0.41479  0.73116  1.0000
  H   H919      1.0  0.30044  0.22322  0.76786  1.0000
  S   S119      1.0  0.15242  0.46552  0.87251  1.0000
  C   C535      1.0  0.29086  0.32385  0.73038  1.0000
  H   H920      1.0  0.11667  0.17373  0.75736  1.0000
  H   H921      1.0  0.19818  0.04642  0.74247  1.0000
  H   H922      1.0  0.17222  0.03147  0.80302  1.0000
  C   C536      1.0  0.08981  0.32151  0.96199  1.0000
  H   H923      1.0  0.12776  0.35827  0.92088  1.0000
  C   C537      1.0  0.18450  0.20829  0.75377  1.0000
  H   H924      1.0  0.05098  0.46998  0.91850  1.0000
  N   N28       1.0  0.06199  0.28407  0.76732  1.0000
  C   C538      1.0  0.06878  0.30198  0.75581  1.0000
  C   C539      1.0  0.04777  0.27472  0.75980  1.0000
  C   C540      1.0  0.05158  0.29152  0.78272  1.0000
  C   C541      1.0  0.07981  0.26799  0.77102  1.0000
  C   C542      1.0  0.09427  0.26041  0.75644  1.0000
  C   C543      1.0  0.08587  0.31172  0.76046  1.0000
  C   C544      1.0  0.04069  0.27581  0.79509  1.0000
  H   H925      1.0  0.31794  0.30345  0.76223  1.0000
  C   C545      1.0  0.29099  0.32810  0.78186  1.0000
  C   C546      1.0  0.11253  0.24563  0.76192  1.0000
  H   H926      1.0  0.19076  0.03491  0.95812  1.0000
  H   H927      1.0  0.04739  0.00262  0.90981  1.0000
  H   H928      1.0  0.09552  0.32491  0.73599  1.0000
  C   C547      1.0  0.18907  0.44836  0.74764  1.0000
  H   H929      1.0  0.05542  0.26996  0.74819  1.0000
  H   H930      1.0  0.04396  0.26038  0.76729  1.0000
  H   H931      1.0  0.04033  0.30549  0.78038  1.0000
  H   H932      1.0  0.06280  0.29639  0.78892  1.0000
  H   H933      1.0  0.08909  0.27342  0.77861  1.0000
  H   H934      1.0  0.07435  0.25416  0.77832  1.0000
  H   H935      1.0  0.10032  0.27310  0.74806  1.0000
  H   H936      1.0  0.08625  0.25227  0.74974  1.0000
  H   H937      1.0  0.08104  0.31745  0.77210  1.0000
  H   H938      1.0  0.10002  0.30062  0.76126  1.0000
  H   H939      1.0  0.05149  0.26200  0.79862  1.0000
  H   H940      1.0  0.01923  0.29814  0.80767  1.0000
  H   H941      1.0  0.25501  0.45414  0.75653  1.0000
  H   H942      1.0  0.29281  0.06852  0.96966  1.0000
  H   H943      1.0  0.18763  0.16790  0.73269  1.0000
  H   H944      1.0  0.18423  0.01918  0.76195  1.0000
  C   C548      1.0  0.31813  0.03819  0.74223  1.0000
  H   H945      1.0  0.12118  0.25320  0.76858  1.0000
  H   H946      1.0  0.28465  0.04902  0.79032  1.0000
  H   H947      1.0  0.08443  0.31688  0.95179  1.0000
  H   H948      1.0  0.21435  0.03467  0.76693  1.0000
  H   H949      1.0  0.15502  0.35545  0.91435  1.0000
  H   H950      1.0  0.05889  0.44811  0.90916  1.0000
  C   C549      1.0  0.00696  0.43925  0.94921  1.0000
  H   H951      1.0  0.19902  0.47227  0.76454  1.0000
  C   C550      1.0  0.29603  0.20823  0.76717  1.0000
  H   H952      1.0  0.03183  0.98522  0.90594  1.0000
  H   H953      1.0  0.01810  0.31935  0.94360  1.0000
  C   C551      1.0  0.29874  0.05519  0.79114  1.0000
  H   H954      1.0  0.05571  0.30327  0.96012  1.0000
  H   H955      1.0  0.01239  0.98534  0.86966  1.0000
  H   H956      1.0  0.23485  0.10486  0.78266  1.0000
  C   C552      1.0  0.14693  0.41952  0.94050  1.0000
  S   S120      1.0  0.30509  0.99588  0.93781  1.0000
  C   C553      1.0  0.28243  0.47480  0.88057  1.0000
  H   H957      1.0  0.29007  0.09905  0.78727  1.0000
  H   H958      1.0  0.04275  0.00665  0.88137  1.0000
  H   H959      1.0  0.28894  0.23639  0.74111  1.0000
  H   H960      1.0  0.21165  0.44940  0.77390  1.0000
  H   H961      1.0  0.11939  0.45331  0.93468  1.0000
  H   H962      1.0  0.26318  0.31589  0.74464  1.0000
  H   H963      1.0  0.12044  0.18867  0.73794  1.0000
  C   C554      1.0  0.27553  0.42012  0.74204  1.0000
  N   N29       1.0  0.18092  0.19736  0.74073  1.0000
  S   S121      1.0  0.28271  0.12726  0.73829  1.0000
  H   H964      1.0  0.16148  0.40991  0.94316  1.0000
  H   H965      1.0  0.99081  0.47576  0.94445  1.0000
  S   S122      1.0  0.18908  0.37731  0.73102  1.0000
  H   H966      1.0  0.08050  0.43867  0.84952  1.0000
  C   C555      1.0  0.21262  0.44440  0.74339  1.0000
  C   C556      1.0  0.22196  0.14840  0.74475  1.0000
  H   H967      1.0  0.12957  0.39825  0.95756  1.0000
  H   H968      1.0  0.30657  0.19608  0.77336  1.0000
  H   H969      1.0  0.03476  0.45815  0.89042  1.0000
  C   C557      1.0  0.99922  0.17713  0.76907  1.0000
  C   C558      1.0  0.07573  0.01187  0.94206  1.0000
  H   H970      1.0  0.02829  0.27099  0.79025  1.0000
  H   H971      1.0  0.17903  0.06381  0.75299  1.0000
  C   C559      1.0  0.07391  0.38878  0.96819  1.0000
  C   C560      1.0  0.06280  0.44896  0.96521  1.0000
  N   N30       1.0  0.14196  0.41593  0.92478  1.0000
  H   H972      1.0  0.15639  0.38445  0.92921  1.0000
  H   H973      1.0  0.28975  0.10102  0.76659  1.0000
  C   C561      1.0  0.10179  0.40969  0.83081  1.0000
  H   H974      1.0  0.08908  0.41283  0.82352  1.0000
  H   H975      1.0  0.05752  0.43402  0.94633  1.0000
  H   H976      1.0  0.27491  0.04183  0.81985  1.0000
  H   H977      1.0  0.30364  0.07505  0.75145  1.0000
  C   C562      1.0  0.03117  0.28491  0.81028  1.0000
  H   H978      1.0  0.20533  0.06742  0.74973  1.0000
  H   H979      1.0  0.19400  0.43823  0.89821  1.0000
  C   C563      1.0  0.29689  0.06176  0.80788  1.0000
  H   H980      1.0  0.00804  0.18925  0.78859  1.0000
  H   H981      1.0  0.18882  0.42099  0.88579  1.0000
  C   C564      1.0  0.02996  0.44634  0.92450  1.0000
  C   C565      1.0  0.13703  0.42006  0.97034  1.0000
  H   H982      1.0  0.31454  0.31463  0.79622  1.0000
  Fe  Fe65      1.0  0.20945  0.37907  0.74900  1.0000
  H   H983      1.0  0.17894  0.39934  0.82792  1.0000
  H   H984      1.0  0.00784  0.26543  0.76032  1.0000
  H   H985      1.0  0.28549  0.42600  0.74877  1.0000
  C   C566      1.0  0.30422  0.14001  0.73151  1.0000
  H   H986      1.0  0.04292  0.28984  0.81587  1.0000
  H   H987      1.0  0.06919  0.99939  0.88399  1.0000
  H   H988      1.0  0.31511  0.46750  0.87972  1.0000
  H   H989      1.0  0.14256  0.41085  0.82654  1.0000
  H   H990      1.0  0.15291  0.42408  0.89973  1.0000
  H   H991      1.0  0.03940  0.18086  0.72509  1.0000
  H   H992      1.0  0.31566  0.03064  0.76757  1.0000
  H   H993      1.0  0.31099  0.04180  0.79089  1.0000
  C   C567      1.0  0.18573  0.02024  0.83094  1.0000
  C   C568      1.0  0.04546  0.31594  0.96553  1.0000
  H   H994      1.0  0.07385  0.29770  0.74360  1.0000
  H   H995      1.0  0.01909  0.22945  0.75080  1.0000
  H   H996      1.0  0.12052  0.41030  0.77394  1.0000
  C   C569      1.0  0.20435  0.04201  0.95859  1.0000
  H   H997      1.0  0.01708  0.42447  0.95132  1.0000
  H   H998      1.0  0.28750  0.05803  0.76232  1.0000
  C   C570      1.0  0.03235  0.32582  0.93874  1.0000
  S   S123      1.0  0.23310  0.39249  0.73056  1.0000
  Fe  Fe66      1.0  0.18316  0.47022  0.85792  1.0000
  S   S124      1.0  0.05571  0.21942  0.73041  1.0000
  Fe  Fe67      1.0  0.20634  0.34596  0.72863  1.0000
  C   C571      1.0  0.03303  0.46018  0.94936  1.0000
  H   H999      1.0  0.21689  0.42799  0.74820  1.0000
  C   C572      1.0  0.13994  0.36336  0.91140  1.0000
  C   C573      1.0  0.12726  0.41568  0.79679  1.0000
  H   H1000     1.0  0.14049  0.41964  0.80108  1.0000
  C   C574      1.0  0.31960  0.29609  0.72942  1.0000
  H   H1001     1.0  0.27890  0.32919  0.79232  1.0000
  H   H1002     1.0  0.08458  0.45214  0.92893  1.0000
  C   C575      1.0  0.10749  0.43059  0.83255  1.0000
  H   H1003     1.0  0.26985  0.99936  0.77847  1.0000
  N   N31       1.0  0.01878  0.45524  0.93914  1.0000
  H   H1004     1.0  0.99382  0.42838  0.93083  1.0000
  C   C576      1.0  0.29026  0.04486  0.82100  1.0000
  H   H1005     1.0  0.18954  0.01038  0.84211  1.0000
  H   H1006     1.0  0.28555  0.07563  0.80925  1.0000
  H   H1007     1.0  0.07297  0.00755  0.95523  1.0000
  H   H1008     1.0  0.14662  0.40149  0.77739  1.0000
  C   C577      1.0  0.09582  0.45959  0.91990  1.0000
  H   H1009     1.0  0.13793  0.43663  0.96906  1.0000
  C   C578      1.0  0.30824  0.31101  0.78604  1.0000
  S   S125      1.0  0.18840  0.47545  0.83116  1.0000
  H   H1010     1.0  0.30135  0.29678  0.78985  1.0000
  C   C579      1.0  0.14720  0.18144  0.75023  1.0000
  S   S126      1.0  0.19624  0.31534  0.72771  1.0000
  H   H1011     1.0  0.29668  0.34303  0.77851  1.0000
  C   C580      1.0  0.04826  0.44195  0.95604  1.0000
  C   C581      1.0  0.19036  0.00754  0.81719  1.0000
  H   H1012     1.0  0.09975  0.34827  0.94669  1.0000
  C   C582      1.0  0.12122  0.42702  0.92170  1.0000
  H   H1013     1.0  0.11861  0.42566  0.90949  1.0000
  C   C583      1.0  0.25092  0.10758  0.78099  1.0000
  H   H1014     1.0  0.28415  0.32494  0.77175  1.0000
  C   C584      1.0  0.15837  0.19875  0.74010  1.0000
  H   H1015     1.0  0.18043  0.39613  0.90987  1.0000
  H   H1016     1.0  0.18570  0.41306  0.92240  1.0000
  H   H1017     1.0  0.26122  0.07761  0.79231  1.0000
  C   C585      1.0  0.13092  0.41475  0.95533  1.0000
  H   H1018     1.0  0.15851  0.44013  0.91214  1.0000
  S   S127      1.0  0.31796  0.25792  0.74739  1.0000
  H   H1019     1.0  0.14973  0.43553  0.93984  1.0000
  H   H1020     1.0  0.21445  0.14058  0.75607  1.0000
  H   H1021     1.0  0.12399  0.39343  0.90613  1.0000
  H   H1022     1.0  0.21911  0.14145  0.73460  1.0000
  H   H1023     1.0  0.22227  0.17799  0.73118  1.0000
  H   H1024     1.0  0.25143  0.23443  0.72461  1.0000
  H   H1025     1.0  0.31367  0.20500  0.74437  1.0000
  C   C586      1.0  0.00122  0.33164  0.86185  1.0000
  H   H1026     1.0  0.28227  0.46909  0.86955  1.0000
  H   H1027     1.0  0.04002  0.43086  0.96460  1.0000
  H   H1028     1.0  0.18448  0.42026  0.74005  1.0000
  H   H1029     1.0  0.11152  0.34102  0.96471  1.0000
  H   H1030     1.0  0.26927  0.40682  0.74952  1.0000
  H   H1031     1.0  0.26789  0.22284  0.74749  1.0000
  H   H1032     1.0  0.23862  0.14585  0.74509  1.0000
  H   H1033     1.0  0.16212  0.43919  0.74175  1.0000
  H   H1034     1.0  0.20658  0.00053  0.81660  1.0000
  H   H1035     1.0  0.21630  0.44523  0.73017  1.0000
  C   C587      1.0  0.17884  0.43688  0.73800  1.0000
  H   H1036     1.0  0.25847  0.16599  0.72113  1.0000
  C   C588      1.0  0.07812  0.99307  0.93365  1.0000
  H   H1037     1.0  0.18068  0.24031  0.72788  1.0000
  H   H1038     1.0  0.30880  0.05905  0.95263  1.0000
  S   S128      1.0  0.28113  0.34988  0.72523  1.0000
  N   N32       1.0  0.28262  0.21962  0.72344  1.0000
  H   H1039     1.0  0.30122  0.03053  0.82037  1.0000
  H   H1040     1.0  0.07188  0.46002  0.95735  1.0000
  Fe  Fe68      1.0  0.26828  0.10580  0.72684  1.0000
  H   H1041     1.0  0.02886  0.34568  0.95638  1.0000
  H   H1042     1.0  0.24548  0.03972  0.95563  1.0000
  H   H1043     1.0  0.18278  0.46472  0.74540  1.0000
  C   C589      1.0  0.22572  0.47592  0.77390  1.0000
  H   H1044     1.0  0.28952  0.04962  0.83289  1.0000
  H   H1045     1.0  0.07347  0.43555  0.96980  1.0000
  H   H1046     1.0  0.26737  0.19369  0.73473  1.0000
  C   C590      1.0  0.99405  0.30204  0.85131  1.0000
  C   C591      1.0  0.28339  0.04252  0.96207  1.0000
  H   H1047     1.0  0.27362  0.05266  0.95390  1.0000
  H   H1048     1.0  0.04380  0.31403  0.93330  1.0000
  H   H1049     1.0  0.17265  0.98498  0.80022  1.0000
  H   H1050     1.0  0.23934  0.46622  0.77826  1.0000
  C   C592      1.0  0.22874  0.47606  0.73739  1.0000
  H   H1051     1.0  0.29080  0.18703  0.72267  1.0000
  C   C593      1.0  0.26426  0.00452  0.96952  1.0000
  H   H1052     1.0  0.09723  0.30764  0.96899  1.0000
  H   H1053     1.0  0.21189  0.99698  0.77002  1.0000
  C   C594      1.0  0.00372  0.47396  0.93460  1.0000
  C   C595      1.0  0.21941  0.02667  0.96770  1.0000
  Fe  Fe69      1.0  0.22528  0.48034  0.86085  1.0000
  H   H1054     1.0  0.99761  0.16904  0.72374  1.0000
  H   H1055     1.0  0.03096  0.30979  0.97012  1.0000
  C   C596      1.0  0.27690  0.19876  0.72331  1.0000
  H   H1056     1.0  0.26930  0.26179  0.72996  1.0000
  H   H1057     1.0  0.24025  0.48397  0.74082  1.0000
  H   H1058     1.0  0.15232  0.13525  0.72600  1.0000
  C   C597      1.0  0.00788  0.17506  0.73006  1.0000
  C   C598      1.0  0.21216  0.48354  0.78849  1.0000
  H   H1059     1.0  0.99410  0.20941  0.76371  1.0000
  H   H1060     1.0  0.99245  0.42996  0.89758  1.0000
  C   C599      1.0  0.15613  0.32506  0.72152  1.0000
  H   H1061     1.0  0.18200  0.44249  0.72503  1.0000
  H   H1062     1.0  0.99232  0.01945  0.94945  1.0000
  C   C600      1.0  0.17202  0.29007  0.72067  1.0000
  C   C601      1.0  0.98871  0.43434  0.94236  1.0000
  H   H1063     1.0  0.98902  0.40361  0.95556  1.0000
  H   H1064     1.0  0.99721  0.48473  0.86421  1.0000
  H   H1065     1.0  0.32170  0.10545  0.75999  1.0000
  S   S129      1.0  0.13551  0.74471  0.19813  1.0000
  C   C602      1.0  0.25897  0.77712  0.20779  1.0000
  S   S130      1.0  0.07665  0.74871  0.19150  1.0000
  H   H1066     1.0  0.23146  0.92551  0.09783  1.0000
  H   H1067     1.0  0.24582  0.96052  0.06058  1.0000
  S   S131      1.0  0.02160  0.72446  0.10143  1.0000
  H   H1068     1.0  0.02022  0.82947  0.99429  1.0000
  H   H1069     1.0  0.04697  0.51932  0.09429  1.0000
  C   C603      1.0  0.02197  0.58246  0.06084  1.0000
  Fe  Fe70      1.0  0.02607  0.71247  0.12699  1.0000
  S   S132      1.0  0.05649  0.70511  0.13657  1.0000
  H   H1070     1.0  0.23594  0.66282  0.19958  1.0000
  C   C604      1.0  0.01218  0.60439  0.05595  1.0000
  S   S133      1.0  0.29930  0.95464  0.01422  1.0000
  Fe  Fe71      1.0  0.20108  0.96681  0.11624  1.0000
  H   H1071     1.0  0.28731  0.55078  0.03429  1.0000
  S   S134      1.0  0.21398  0.93808  0.13181  1.0000
  C   C605      1.0  0.24438  0.93881  0.00799  1.0000
  H   H1072     1.0  0.98987  0.76060  0.16715  1.0000
  Fe  Fe72      1.0  0.27234  0.55469  0.21884  1.0000
  H   H1073     1.0  0.24628  0.75174  0.20172  1.0000
  H   H1074     1.0  0.07734  0.51979  0.10701  1.0000
  S   S135      1.0  0.20191  0.96404  0.09018  1.0000
  S   S136      1.0  0.26267  0.58834  0.21948  1.0000
  H   H1075     1.0  0.25882  0.97764  0.98710  1.0000
  S   S137      1.0  0.22952  0.50093  0.11411  1.0000
  S   S138      1.0  0.24463  0.55038  0.20911  1.0000
  S   S139      1.0  0.25208  0.59069  0.18242  1.0000
  Fe  Fe73      1.0  0.99600  0.74629  0.11227  1.0000
  H   H1076     1.0  0.22778  0.50308  0.17864  1.0000
  S   S140      1.0  0.29088  0.55952  0.19454  1.0000
  Fe  Fe74      1.0  0.27891  0.59287  0.19444  1.0000
  S   S141      1.0  0.29618  0.61999  0.18556  1.0000
  Fe  Fe75      1.0  0.26262  0.55648  0.18460  1.0000
  S   S142      1.0  0.26939  0.53279  0.16685  1.0000
  H   H1077     1.0  0.23376  0.70699  0.21105  1.0000
  C   C606      1.0  0.02102  0.53631  0.07176  1.0000
  H   H1078     1.0  0.00486  0.55446  0.10766  1.0000
  H   H1079     1.0  0.08954  0.69628  0.15532  1.0000
  Fe  Fe76      1.0  0.04804  0.87340  0.05412  1.0000
  S   S143      1.0  0.07860  0.88219  0.04289  1.0000
  S   S144      1.0  0.04737  0.83883  0.05721  1.0000
  Fe  Fe77      1.0  0.02983  0.91866  0.05482  1.0000
  S   S145      1.0  0.05899  0.93031  0.04370  1.0000
  C   C607      1.0  0.03256  0.70262  0.19805  1.0000
  Fe  Fe78      1.0  0.06125  0.90689  0.02718  1.0000
  S   S146      1.0  0.07342  0.91352  0.00082  1.0000
  Fe  Fe79      1.0  0.07394  0.90472  0.06026  1.0000
  S   S147      1.0  0.09847  0.90537  0.07558  1.0000
  S   S148      1.0  0.03098  0.89693  0.03715  1.0000
  S   S149      1.0  0.04452  0.89427  0.07266  1.0000
  C   C608      1.0  0.06184  0.90580  0.98623  1.0000
  C   C609      1.0  0.04165  0.90211  0.98932  1.0000
  H   H1080     1.0  0.02729  0.97857  0.10241  1.0000
  H   H1081     1.0  0.03268  0.90443  0.00071  1.0000
  H   H1082     1.0  0.27819  0.92114  0.09447  1.0000
  C   C610      1.0  0.00255  0.91712  0.10493  1.0000
  C   C611      1.0  0.21679  0.95347  0.02883  1.0000
  C   C612      1.0  0.26309  0.93072  0.09403  1.0000
  C   C613      1.0  0.24089  0.50927  0.12889  1.0000
  C   C614      1.0  0.26068  0.50138  0.13206  1.0000
  C   C615      1.0  0.26901  0.50872  0.14371  1.0000
  C   C616      1.0  0.25784  0.52418  0.15231  1.0000
  C   C617      1.0  0.23805  0.53206  0.14914  1.0000
  C   C618      1.0  0.22971  0.52467  0.13751  1.0000
  H   H1083     1.0  0.28437  0.50259  0.14593  1.0000
  H   H1084     1.0  0.22922  0.54395  0.15556  1.0000
  H   H1085     1.0  0.21446  0.53107  0.13512  1.0000
  C   C619      1.0  0.13296  0.95824  0.07767  1.0000
  C   C620      1.0  0.11931  0.96036  0.06653  1.0000
  C   C621      1.0  0.10918  0.94409  0.06535  1.0000
  C   C622      1.0  0.11241  0.92558  0.07543  1.0000
  C   C623      1.0  0.12650  0.92326  0.08624  1.0000
  C   C624      1.0  0.13665  0.93954  0.08744  1.0000
  H   H1086     1.0  0.20780  0.79723  0.21615  1.0000
  H   H1087     1.0  0.09874  0.94590  0.05675  1.0000
  H   H1088     1.0  0.12925  0.90893  0.09400  1.0000
  H   H1089     1.0  0.14704  0.93771  0.09610  1.0000
  H   H1090     1.0  0.05121  0.97681  0.10875  1.0000
  Fe  Fe80      1.0  0.14409  0.71501  0.21388  1.0000
  H   H1091     1.0  0.01107  0.84756  0.08073  1.0000
  H   H1092     1.0  0.24312  0.81124  0.18954  1.0000
  H   H1093     1.0  0.23134  0.77980  0.18624  1.0000
  H   H1094     1.0  0.28446  0.74505  0.19521  1.0000
  H   H1095     1.0  0.26853  0.83408  0.17785  1.0000
  H   H1096     1.0  0.03063  0.67003  0.15407  1.0000
  H   H1097     1.0  0.01965  0.92633  0.12070  1.0000
  H   H1098     1.0  0.19335  0.94498  0.00742  1.0000
  C   C625      1.0  0.28758  0.53400  0.03557  1.0000
  H   H1099     1.0  0.05056  0.55692  0.07811  1.0000
  C   C626      1.0  0.21526  0.92978  0.18620  1.0000
  C   C627      1.0  0.20775  0.94887  0.17807  1.0000
  C   C628      1.0  0.20726  0.95169  0.16146  1.0000
  C   C629      1.0  0.21432  0.93539  0.15276  1.0000
  C   C630      1.0  0.22208  0.91637  0.16083  1.0000
  C   C631      1.0  0.22253  0.91354  0.17746  1.0000
  H   H1100     1.0  0.20209  0.96153  0.18470  1.0000
  H   H1101     1.0  0.20126  0.96641  0.15544  1.0000
  H   H1102     1.0  0.22759  0.90367  0.15423  1.0000
  H   H1103     1.0  0.22836  0.89879  0.18353  1.0000
  H   H1104     1.0  0.22071  0.49291  0.19920  1.0000
  C   C632      1.0  0.99916  0.50246  0.03878  1.0000
  C   C633      1.0  0.99502  0.96563  0.05674  1.0000
  S   S150      1.0  0.00573  0.68861  0.12872  1.0000
  S   S151      1.0  0.16870  0.98269  0.11893  1.0000
  H   H1105     1.0  0.22896  0.82421  0.20527  1.0000
  C   C634      1.0  0.25915  0.96752  0.13300  1.0000
  H   H1106     1.0  0.03799  0.95056  0.13302  1.0000
  H   H1107     1.0  0.27712  0.53066  0.02792  1.0000
  C   C635      1.0  0.30971  0.95255  0.11874  1.0000
  H   H1108     1.0  0.26970  0.48992  0.12532  1.0000
  H   H1109     1.0  0.99100  0.70625  0.21496  1.0000
  C   C636      1.0  0.01354  0.49152  0.02826  1.0000
  C   C637      1.0  0.22909  0.93380  0.02283  1.0000
  C   C638      1.0  0.03307  0.89533  0.97764  1.0000
  C   C639      1.0  0.00681  0.79675  0.09171  1.0000
  C   C640      1.0  0.02354  0.78867  0.08145  1.0000
  C   C641      1.0  0.03570  0.80179  0.07098  1.0000
  C   C642      1.0  0.03136  0.82312  0.07061  1.0000
  C   C643      1.0  0.01466  0.83121  0.08088  1.0000
  H   H1110     1.0  0.00303  0.73525  0.19945  1.0000
  H   H1111     1.0  0.02696  0.77233  0.08149  1.0000
  H   H1112     1.0  0.04863  0.79534  0.06315  1.0000
  H   H1113     1.0  0.10708  0.93004  0.12396  1.0000
  H   H1114     1.0  0.25575  0.93839  0.11782  1.0000
  C   C644      1.0  0.20692  0.49865  0.03798  1.0000
  H   H1115     1.0  0.27237  0.50167  0.01358  1.0000
  C   C645      1.0  0.31719  0.52960  0.01315  1.0000
  H   H1116     1.0  0.16598  0.94895  0.03978  1.0000
  H   H1117     1.0  0.19740  0.50686  0.02883  1.0000
  C   C646      1.0  0.20446  0.63863  0.19998  1.0000
  C   C647      1.0  0.19689  0.65961  0.19696  1.0000
  N   N33       1.0  0.27666  0.95874  0.10521  1.0000
  C   C648      1.0  0.30922  0.63075  0.19760  1.0000
  H   H1118     1.0  0.21743  0.63202  0.19227  1.0000
  H   H1119     1.0  0.20412  0.66902  0.18687  1.0000
  C   C649      1.0  0.06213  0.71734  0.15178  1.0000
  C   C650      1.0  0.04957  0.73467  0.15667  1.0000
  C   C651      1.0  0.05437  0.74409  0.16877  1.0000
  C   C652      1.0  0.07177  0.73632  0.17615  1.0000
  C   C653      1.0  0.08443  0.71902  0.17124  1.0000
  C   C654      1.0  0.07964  0.70963  0.15907  1.0000
  H   H1120     1.0  0.03623  0.74095  0.15106  1.0000
  H   H1121     1.0  0.04456  0.75753  0.17243  1.0000
  H   H1122     1.0  0.09791  0.71288  0.17680  1.0000
  N   N34       1.0  0.04444  0.83788  0.00466  1.0000
  C   C655      1.0  0.03377  0.83734  0.99062  1.0000
  C   C656      1.0  0.03077  0.85157  0.01559  1.0000
  C   C657      1.0  0.06346  0.84746  0.99826  1.0000
  C   C658      1.0  0.05055  0.81697  0.01373  1.0000
  C   C659      1.0  0.04150  0.53319  0.06038  1.0000
  H   H1123     1.0  0.02050  0.80607  0.01683  1.0000
  C   C660      1.0  0.07488  0.85297  0.01086  1.0000
  S   S152      1.0  0.17270  0.69538  0.20326  1.0000
  H   H1124     1.0  0.30238  0.95596  0.13077  1.0000
  C   C661      1.0  0.26400  0.67347  0.17573  1.0000
  S   S153      1.0  0.00083  0.93913  0.06337  1.0000
  C   C662      1.0  0.09627  0.85733  0.00360  1.0000
  H   H1125     1.0  0.02853  0.52816  0.04000  1.0000
  H   H1126     1.0  0.19690  0.49238  0.04863  1.0000
  H   H1127     1.0  0.03856  0.85337  0.02558  1.0000
  H   H1128     1.0  0.02726  0.86720  0.00899  1.0000
  H   H1129     1.0  0.05992  0.86167  0.98987  1.0000
  H   H1130     1.0  0.07464  0.83714  0.99105  1.0000
  H   H1131     1.0  0.06619  0.81023  0.00887  1.0000
  H   H1132     1.0  0.05163  0.81832  0.02634  1.0000
  H   H1133     1.0  0.02754  0.85314  0.98559  1.0000
  C   C663      1.0  0.02582  0.67253  0.17937  1.0000
  H   H1134     1.0  0.99631  0.60473  0.05376  1.0000
  S   S154      1.0  0.14460  0.97955  0.07898  1.0000
  H   H1135     1.0  0.07622  0.84049  0.02105  1.0000
  H   H1136     1.0  0.06653  0.86706  0.01545  1.0000
  H   H1137     1.0  0.03432  0.93364  0.08459  1.0000
  C   C664      1.0  0.19520  0.62625  0.21293  1.0000
  C   C665      1.0  0.05939  0.98118  0.05696  1.0000
  H   H1138     1.0  0.25102  0.85159  0.18940  1.0000
  H   H1139     1.0  0.18033  0.96919  0.01217  1.0000
  C   C666      1.0  0.07317  0.90322  0.97122  1.0000
  H   H1140     1.0  0.00549  0.86223  0.04344  1.0000
  H   H1141     1.0  0.02094  0.61114  0.04478  1.0000
  H   H1142     1.0  0.20522  0.75718  0.19760  1.0000
  C   C667      1.0  0.30919  0.52326  0.03103  1.0000
  N   N35       1.0  0.01907  0.55150  0.08336  1.0000
  H   H1143     1.0  0.10362  0.86224  0.01269  1.0000
  H   H1144     1.0  0.10577  0.84341  0.99954  1.0000
  H   H1145     1.0  0.09556  0.86979  0.99333  1.0000
  C   C668      1.0  0.31601  0.61947  0.21140  1.0000
  H   H1146     1.0  0.00848  0.54050  0.06429  1.0000
  H   H1147     1.0  0.02287  0.96818  0.04063  1.0000
  H   H1148     1.0  0.03508  0.96442  0.06787  1.0000
  S   S155      1.0  0.21517  0.92714  0.20721  1.0000
  H   H1149     1.0  0.09036  0.94729  0.10145  1.0000
  H   H1150     1.0  0.08448  0.91959  0.13365  1.0000
  H   H1151     1.0  0.07059  0.96666  0.08561  1.0000
  H   H1152     1.0  0.99424  0.87509  0.02596  1.0000
  H   H1153     1.0  0.21352  0.96473  0.01824  1.0000
  H   H1154     1.0  0.19757  0.77461  0.18059  1.0000
  C   C669      1.0  0.25512  0.98434  0.97500  1.0000
  H   H1155     1.0  0.04239  0.67259  0.17902  1.0000
  N   N36       1.0  0.19763  0.95066  0.04039  1.0000
  H   H1156     1.0  0.17991  0.94213  0.07431  1.0000
  H   H1157     1.0  0.31357  0.97253  0.08587  1.0000
  H   H1158     1.0  0.31898  0.55230  0.98278  1.0000
  H   H1159     1.0  0.04391  0.70735  0.18768  1.0000
  C   C670      1.0  0.22071  0.78644  0.21096  1.0000
  H   H1160     1.0  0.07342  0.54733  0.10385  1.0000
  H   H1161     1.0  0.03129  0.64601  0.16701  1.0000
  H   H1162     1.0  0.18617  0.77932  0.20038  1.0000
  H   H1163     1.0  0.27582  0.81111  0.20250  1.0000
  C   C671      1.0  0.03910  0.55289  0.08851  1.0000
  S   S156      1.0  0.00159  0.73516  0.13768  1.0000
  C   C672      1.0  0.28235  0.96862  0.02813  1.0000
  H   H1164     1.0  0.01787  0.80970  0.14975  1.0000
  H   H1165     1.0  0.03723  0.56570  0.09565  1.0000
  H   H1166     1.0  0.25207  0.69682  0.19011  1.0000
  H   H1167     1.0  0.00128  0.84170  0.01495  1.0000
  H   H1168     1.0  0.20195  0.97390  0.05369  1.0000
  H   H1169     1.0  0.03277  0.76988  0.02570  1.0000
  H   H1170     1.0  0.28197  0.52845  0.04820  1.0000
  H   H1171     1.0  0.27349  0.68326  0.16691  1.0000
  H   H1172     1.0  0.04078  0.53270  0.11129  1.0000
  H   H1173     1.0  0.26745  0.97853  0.08431  1.0000
  H   H1174     1.0  0.24760  0.90770  0.11022  1.0000
  H   H1175     1.0  0.02179  0.57392  0.05086  1.0000
  C   C673      1.0  0.23117  0.49003  0.18810  1.0000
  C   C674      1.0  0.05399  0.70716  0.21863  1.0000
  H   H1176     1.0  0.24707  0.48934  0.19035  1.0000
  H   H1177     1.0  0.15860  0.82942  0.21026  1.0000
  C   C675      1.0  0.02977  0.94037  0.09591  1.0000
  H   H1178     1.0  0.03397  0.90876  0.10797  1.0000
  H   H1179     1.0  0.25996  0.82885  0.21447  1.0000
  C   C676      1.0  0.00854  0.97625  0.04561  1.0000
  H   H1180     1.0  0.26807  0.95330  0.13834  1.0000
  C   C677      1.0  0.04216  0.78177  0.02623  1.0000
  H   H1181     1.0  0.24943  0.90567  0.08931  1.0000
  H   H1182     1.0  0.27188  0.77822  0.21410  1.0000
  S   S157      1.0  0.30246  0.49466  0.98654  1.0000
  C   C678      1.0  0.01426  0.79685  0.14461  1.0000
  C   C679      1.0  0.20054  0.77350  0.19308  1.0000
  H   H1183     1.0  0.99960  0.69481  0.17403  1.0000
  H   H1184     1.0  0.98952  0.82453  0.09914  1.0000
  H   H1185     1.0  0.24522  0.95742  0.10320  1.0000
  H   H1186     1.0  0.27540  0.68175  0.19540  1.0000
  H   H1187     1.0  0.27024  0.94184  0.04087  1.0000
  C   C680      1.0  0.99752  0.86019  0.03360  1.0000
  C   C681      1.0  0.24689  0.91655  0.09812  1.0000
  H   H1188     1.0  0.03413  0.73116  0.20680  1.0000
  C   C682      1.0  0.00994  0.57254  0.07630  1.0000
  H   H1189     1.0  0.30823  0.52299  0.00603  1.0000
  H   H1190     1.0  0.03617  0.50510  0.05327  1.0000
  C   C683      1.0  0.28173  0.48723  0.01671  1.0000
  H   H1191     1.0  0.28615  0.74145  0.21635  1.0000
  C   C684      1.0  0.00183  0.52098  0.98458  1.0000
  C   C685      1.0  0.24263  0.81277  0.20231  1.0000
  S   S158      1.0  0.20471  0.59989  0.21756  1.0000
  H   H1192     1.0  0.28969  0.93092  0.11910  1.0000
  H   H1193     1.0  0.01741  0.49839  0.01607  1.0000
  H   H1194     1.0  0.23791  0.92489  0.03222  1.0000
  C   C686      1.0  0.18017  0.95255  0.01499  1.0000
  H   H1195     1.0  0.16025  0.93135  0.01210  1.0000
  C   C687      1.0  0.07121  0.53354  0.09914  1.0000
  C   C688      1.0  0.26487  0.83992  0.18952  1.0000
  C   C689      1.0  0.20318  0.93423  0.05397  1.0000
  H   H1196     1.0  0.24928  0.67401  0.17132  1.0000
  H   H1197     1.0  0.14708  0.95597  0.01674  1.0000
  H   H1198     1.0  0.21856  0.77139  0.21801  1.0000
  C   C690      1.0  0.18548  0.92924  0.06744  1.0000
  H   H1199     1.0  0.06730  0.70773  0.20907  1.0000
  H   H1200     1.0  0.28147  0.98356  0.11691  1.0000
  H   H1201     1.0  0.31279  0.54644  0.01059  1.0000
  C   C691      1.0  0.19238  0.91082  0.07938  1.0000
  H   H1202     1.0  0.30855  0.50658  0.03346  1.0000
  H   H1203     1.0  0.03886  0.78601  0.03847  1.0000
  C   C692      1.0  0.22534  0.69416  0.21671  1.0000
  H   H1204     1.0  0.27386  0.72446  0.20829  1.0000
  H   H1205     1.0  0.21547  0.93828  0.05959  1.0000
  H   H1206     1.0  0.20941  0.91952  0.04943  1.0000
  H   H1207     1.0  0.00734  0.58322  0.08536  1.0000
  C   C693      1.0  0.05863  0.95815  0.08369  1.0000
  C   C694      1.0  0.01046  0.84435  0.02378  1.0000
  C   C695      1.0  0.18015  0.66853  0.20689  1.0000
  H   H1208     1.0  0.23637  0.94680  0.99789  1.0000
  C   C696      1.0  0.28148  0.96894  0.08825  1.0000
  C   C697      1.0  0.25679  0.98368  0.14403  1.0000
  H   H1209     1.0  0.98933  0.96360  0.02155  1.0000
  H   H1210     1.0  0.27774  0.84737  0.19117  1.0000
  H   H1211     1.0  0.01747  0.89239  0.98014  1.0000
  H   H1212     1.0  0.02303  0.70377  0.16790  1.0000
  H   H1213     1.0  0.04622  0.54779  0.05421  1.0000
  H   H1214     1.0  0.01352  0.83017  0.03228  1.0000
  H   H1215     1.0  0.21232  0.80192  0.18792  1.0000
  S   S159      1.0  0.99081  0.78101  0.10513  1.0000
  H   H1216     1.0  0.30845  0.65960  0.18216  1.0000
  H   H1217     1.0  0.19730  0.89696  0.07342  1.0000
  H   H1218     1.0  0.20509  0.91381  0.08499  1.0000
  H   H1219     1.0  0.17950  0.90787  0.08896  1.0000
  C   C698      1.0  0.01440  0.69475  0.17806  1.0000
  H   H1220     1.0  0.26476  0.78083  0.19486  1.0000
  C   C699      1.0  0.25569  0.96869  0.05142  1.0000
  H   H1221     1.0  0.99038  0.93058  0.10482  1.0000
  N   N37       1.0  0.06627  0.78433  0.11748  1.0000
  C   C700      1.0  0.08730  0.78064  0.12229  1.0000
  C   C701      1.0  0.06479  0.80265  0.10465  1.0000
  C   C702      1.0  0.05088  0.78787  0.13202  1.0000
  C   C703      1.0  0.06204  0.76616  0.11097  1.0000
  C   C704      1.0  0.07863  0.75772  0.09787  1.0000
  C   C705      1.0  0.09202  0.76137  0.13464  1.0000
  C   C706      1.0  0.02838  0.79378  0.12906  1.0000
  C   C707      1.0  0.06639  0.82341  0.10971  1.0000
  C   C708      1.0  0.06386  0.84086  0.09594  1.0000
  C   C709      1.0  0.07225  0.74002  0.09175  1.0000
  C   C710      1.0  0.11440  0.75760  0.13702  1.0000
  C   C711      1.0  0.03889  0.96774  0.10858  1.0000
  H   H1222     1.0  0.08977  0.79368  0.12784  1.0000
  H   H1223     1.0  0.09915  0.78003  0.11160  1.0000
  H   H1224     1.0  0.07702  0.80037  0.09441  1.0000
  H   H1225     1.0  0.05036  0.80440  0.09954  1.0000
  H   H1226     1.0  0.05482  0.79957  0.13829  1.0000
  H   H1227     1.0  0.05134  0.77382  0.14087  1.0000
  H   H1228     1.0  0.05931  0.75331  0.12073  1.0000
  H   H1229     1.0  0.04762  0.77004  0.10568  1.0000
  H   H1230     1.0  0.09321  0.75187  0.10259  1.0000
  H   H1231     1.0  0.08135  0.76968  0.08751  1.0000
  H   H1232     1.0  0.08294  0.76349  0.14640  1.0000
  H   H1233     1.0  0.08862  0.74740  0.13098  1.0000
  H   H1234     1.0  0.02344  0.78148  0.12414  1.0000
  H   H1235     1.0  0.02613  0.80816  0.12065  1.0000
  H   H1236     1.0  0.05443  0.82722  0.11975  1.0000
  H   H1237     1.0  0.08150  0.82314  0.11332  1.0000
  H   H1238     1.0  0.07504  0.83773  0.08524  1.0000
  H   H1239     1.0  0.04824  0.84306  0.09276  1.0000
  H   H1240     1.0  0.06632  0.85530  0.09952  1.0000
  H   H1241     1.0  0.08459  0.73385  0.08276  1.0000
  H   H1242     1.0  0.06932  0.72751  0.10170  1.0000
  H   H1243     1.0  0.05832  0.74530  0.08598  1.0000
  H   H1244     1.0  0.11850  0.77094  0.14122  1.0000
  H   H1245     1.0  0.11711  0.74404  0.14621  1.0000
  H   H1246     1.0  0.12435  0.75457  0.12573  1.0000
  C   C712      1.0  0.26038  0.68110  0.19193  1.0000
  H   H1247     1.0  0.02025  0.66326  0.19068  1.0000
  H   H1248     1.0  0.09801  0.91129  0.11524  1.0000
  H   H1249     1.0  0.99738  0.90483  0.11428  1.0000
  H   H1250     1.0  0.27198  0.65755  0.17661  1.0000
  H   H1251     1.0  0.26226  0.93836  0.08162  1.0000
  C   C713      1.0  0.26916  0.97506  0.11587  1.0000
  C   C714      1.0  0.99765  0.69502  0.20662  1.0000
  H   H1252     1.0  0.18295  0.92748  0.03384  1.0000
  H   H1253     1.0  0.07993  0.53325  0.08697  1.0000
  Fe  Fe81      1.0  0.23625  0.58477  0.20764  1.0000
  H   H1254     1.0  0.30376  0.93703  0.10009  1.0000
  H   H1255     1.0  0.00624  0.68219  0.21395  1.0000
  C   C715      1.0  0.25595  0.75433  0.21025  1.0000
  C   C716      1.0  0.25939  0.94685  0.10565  1.0000
  N   N38       1.0  0.01175  0.70472  0.19296  1.0000
  H   H1256     1.0  0.28629  0.95745  0.07990  1.0000
  H   H1257     1.0  0.01640  0.95224  0.09367  1.0000
  H   H1258     1.0  0.19210  0.72538  0.21667  1.0000
  C   C717      1.0  0.21723  0.78609  0.19358  1.0000
  H   H1259     1.0  0.23230  0.48882  0.02109  1.0000
  C   C718      1.0  0.00425  0.72723  0.18892  1.0000
  H   H1260     1.0  0.01575  0.78272  0.15340  1.0000
  H   H1261     1.0  0.01037  0.52890  0.10333  1.0000
  C   C719      1.0  0.26175  0.82243  0.20315  1.0000
  H   H1262     1.0  0.99779  0.55404  0.98428  1.0000
  H   H1263     1.0  0.00715  0.66190  0.16483  1.0000
  C   C720      1.0  0.24853  0.66673  0.20483  1.0000
  C   C721      1.0  0.00490  0.54487  0.09821  1.0000
  C   C722      1.0  0.04862  0.53343  0.09878  1.0000
  N   N39       1.0  0.04701  0.95000  0.09944  1.0000
  H   H1264     1.0  0.99192  0.51767  0.03471  1.0000
  C   C723      1.0  0.19008  0.97021  0.04741  1.0000
  H   H1265     1.0  0.01206  0.61390  0.06540  1.0000
  H   H1266     1.0  0.17243  0.92571  0.06255  1.0000
  H   H1267     1.0  0.01546  0.73433  0.17960  1.0000
  C   C724      1.0  0.31371  0.65076  0.19281  1.0000
  H   H1268     1.0  0.31457  0.96679  0.11191  1.0000
  C   C725      1.0  0.03690  0.80042  0.01396  1.0000
  H   H1269     1.0  0.26429  0.69221  0.21999  1.0000
  C   C726      1.0  0.02347  0.66202  0.16546  1.0000
  H   H1270     1.0  0.05507  0.51791  0.03992  1.0000
  C   C727      1.0  0.08033  0.94177  0.11233  1.0000
  H   H1271     1.0  0.01359  0.95758  0.12579  1.0000
  Fe  Fe82      1.0  0.10309  0.73948  0.20609  1.0000
  C   C728      1.0  0.02232  0.92264  0.10838  1.0000
  H   H1272     1.0  0.24364  0.96428  0.13264  1.0000
  H   H1273     1.0  0.01089  0.53937  0.00016  1.0000
  H   H1274     1.0  0.99468  0.57227  0.07312  1.0000
  H   H1275     1.0  0.03790  0.58299  0.06228  1.0000
  C   C729      1.0  0.26949  0.95817  0.04021  1.0000
  H   H1276     1.0  0.31275  0.60403  0.21506  1.0000
  C   C730      1.0  0.27637  0.74053  0.20733  1.0000
  H   H1277     1.0  0.00496  0.91146  0.09323  1.0000
  C   C731      1.0  0.04015  0.52030  0.04763  1.0000
  H   H1278     1.0  0.11645  0.97474  0.05886  1.0000
  H   H1279     1.0  0.03817  0.68632  0.20214  1.0000
  C   C732      1.0  0.00247  0.81809  0.09132  1.0000
  C   C733      1.0  0.06173  0.93412  0.10803  1.0000
  H   H1280     1.0  0.03921  0.79519  0.00211  1.0000
  H   H1281     1.0  0.99823  0.80045  0.14219  1.0000
  H   H1282     1.0  0.21511  0.50972  0.04166  1.0000
  H   H1283     1.0  0.21894  0.92394  0.01997  1.0000
  H   H1284     1.0  0.17665  0.96842  0.05656  1.0000
  H   H1285     1.0  0.24872  0.48725  0.97114  1.0000
  H   H1286     1.0  0.05848  0.77524  0.02376  1.0000
  C   C734      1.0  0.99469  0.49397  0.05474  1.0000
  S   S160      1.0  0.99473  0.68515  0.08411  1.0000
  C   C735      1.0  0.09320  0.92457  0.12189  1.0000
  C   C736      1.0  0.31388  0.81305  0.21892  1.0000
  C   C737      1.0  0.02842  0.96256  0.12590  1.0000
  C   C738      1.0  0.29478  0.94402  0.11046  1.0000
  H   H1287     1.0  0.16063  0.95351  0.99704  1.0000
  S   S161      1.0  0.14405  0.79083  0.21681  1.0000
  H   H1288     1.0  0.05689  0.81333  0.98073  1.0000
  C   C739      1.0  0.16084  0.94804  0.00996  1.0000
  Fe  Fe83      1.0  0.99851  0.70255  0.10431  1.0000
  C   C740      1.0  0.18124  0.94444  0.03291  1.0000
  H   H1289     1.0  0.01412  0.50821  0.98734  1.0000
  H   H1290     1.0  0.05388  0.52505  0.06714  1.0000
  Fe  Fe84      1.0  0.17038  0.98208  0.09259  1.0000
  H   H1291     1.0  0.01877  0.52083  0.07820  1.0000
  N   N40       1.0  0.24072  0.79248  0.21272  1.0000
  H   H1292     1.0  0.06764  0.92157  0.10068  1.0000
  H   H1293     1.0  0.06675  0.94521  0.07737  1.0000
  C   C741      1.0  0.00895  0.54034  0.98742  1.0000
  H   H1294     1.0  0.31909  0.52699  0.03892  1.0000
  C   C742      1.0  0.04580  0.97269  0.07181  1.0000
  H   H1295     1.0  0.02380  0.54221  0.97993  1.0000
  H   H1296     1.0  0.05408  0.92657  0.11936  1.0000
  H   H1297     1.0  0.22734  0.96028  0.03440  1.0000
  H   H1298     1.0  0.25359  0.92448  0.00442  1.0000
  H   H1299     1.0  0.25493  0.94855  0.01049  1.0000
  H   H1300     1.0  0.24891  0.97795  0.15596  1.0000
  C   C743      1.0  0.03414  0.71472  0.21160  1.0000
  H   H1301     1.0  0.06833  0.96865  0.05070  1.0000
  H   H1302     1.0  0.26004  0.48764  0.98860  1.0000
  H   H1303     1.0  0.25906  0.65215  0.20666  1.0000
  C   C744      1.0  0.04721  0.82766  0.97649  1.0000
  H   H1304     1.0  0.07548  0.95432  0.11969  1.0000
  H   H1305     1.0  0.00017  0.52244  0.97177  1.0000
  H   H1306     1.0  0.21569  0.69224  0.20783  1.0000
  H   H1307     1.0  0.01599  0.97741  0.14676  1.0000
  C   C745      1.0  0.02394  0.98137  0.13450  1.0000
  C   C746      1.0  0.17070  0.65613  0.21973  1.0000
  C   C747      1.0  0.29866  0.98234  0.08490  1.0000
  H   H1308     1.0  0.23417  0.63168  0.22014  1.0000
  Fe  Fe85      1.0  0.13316  0.75965  0.22010  1.0000
  H   H1309     1.0  0.02439  0.81157  0.97078  1.0000
  H   H1310     1.0  0.30217  0.98326  0.05901  1.0000
  S   S162      1.0  0.11161  0.70880  0.22037  1.0000
  N   N41       1.0  0.24003  0.67478  0.22038  1.0000
  Fe  Fe86      1.0  0.00976  0.75471  0.33297  1.0000
  S   S163      1.0  0.03030  0.76795  0.31119  1.0000
  Fe  Fe87      1.0  0.02098  0.88602  0.45763  1.0000
  H   H1311     1.0  0.04860  0.72513  0.31503  1.0000
  H   H1312     1.0  0.05420  0.69123  0.22478  1.0000
  S   S164      1.0  0.01557  0.74849  0.35864  1.0000
  H   H1313     1.0  0.04280  0.74972  0.23925  1.0000
  C   C748      1.0  0.08809  0.54043  0.46889  1.0000
  Fe  Fe88      1.0  0.11033  0.72663  0.24073  1.0000
  H   H1314     1.0  0.00942  0.68259  0.31163  1.0000
  S   S165      1.0  0.09481  0.71513  0.26547  1.0000
  H   H1315     1.0  0.30905  0.97217  0.31383  1.0000
  C   C749      1.0  0.30603  0.93035  0.31807  1.0000
  C   C750      1.0  0.09902  0.80487  0.24515  1.0000
  S   S166      1.0  0.14363  0.73039  0.23539  1.0000
  Fe  Fe89      1.0  0.01131  0.85161  0.44075  1.0000
  S   S167      1.0  0.02416  0.82690  0.42479  1.0000
  S   S168      1.0  0.00361  0.61574  0.45478  1.0000
  H   H1316     1.0  0.30617  0.50283  0.26100  1.0000
  H   H1317     1.0  0.21018  0.92625  0.46373  1.0000
  H   H1318     1.0  0.00147  0.64298  0.42327  1.0000
  H   H1319     1.0  0.02207  0.73095  0.43485  1.0000
  H   H1320     1.0  0.31754  0.56347  0.22659  1.0000
  S   S169      1.0  0.01208  0.88529  0.43354  1.0000
  H   H1321     1.0  0.31059  0.49979  0.41181  1.0000
  S   S170      1.0  0.02945  0.55989  0.44602  1.0000
  C   C751      1.0  0.24210  0.48749  0.29673  1.0000
  H   H1322     1.0  0.23208  0.98178  0.24791  1.0000
  S   S171      1.0  0.20555  0.89238  0.24845  1.0000
  Fe  Fe90      1.0  0.25963  0.86546  0.23463  1.0000
  S   S172      1.0  0.24235  0.85702  0.25881  1.0000
  H   H1323     1.0  0.13319  0.78755  0.25943  1.0000
  Fe  Fe91      1.0  0.21555  0.85916  0.24560  1.0000
  S   S173      1.0  0.19783  0.83199  0.25350  1.0000
  Fe  Fe92      1.0  0.23382  0.89094  0.25984  1.0000
  S   S174      1.0  0.23129  0.90340  0.28385  1.0000
  C   C752      1.0  0.29053  0.52425  0.39141  1.0000
  S   S175      1.0  0.25331  0.89924  0.23643  1.0000
  C   C753      1.0  0.14327  0.92667  0.45148  1.0000
  C   C754      1.0  0.20057  0.72391  0.22697  1.0000
  S   S176      1.0  0.28789  0.53062  0.23678  1.0000
  C   C755      1.0  0.29203  0.88577  0.29045  1.0000
  C   C756      1.0  0.23652  0.63645  0.23139  1.0000
  C   C757      1.0  0.27309  0.66267  0.23337  1.0000
  S   S177      1.0  0.26815  0.96731  0.35863  1.0000
  H   H1324     1.0  0.25375  0.80180  0.23126  1.0000
  S   S178      1.0  0.27466  0.52543  0.31226  1.0000
  C   C758      1.0  0.99405  0.65428  0.41477  1.0000
  H   H1325     1.0  0.09272  0.90575  0.44113  1.0000
  S   S179      1.0  0.27654  0.50370  0.35568  1.0000
  H   H1326     1.0  0.31908  0.92471  0.30937  1.0000
  H   H1327     1.0  0.19799  0.69233  0.23466  1.0000
  C   C759      1.0  0.99201  0.79940  0.45937  1.0000
  C   C760      1.0  0.01120  0.75492  0.25079  1.0000
  H   H1328     1.0  0.31001  0.55329  0.36909  1.0000
  H   H1329     1.0  0.17002  0.95690  0.40739  1.0000
  C   C761      1.0  0.28675  0.81053  0.24110  1.0000
  C   C762      1.0  0.28284  0.52881  0.25779  1.0000
  C   C763      1.0  0.29460  0.51338  0.26695  1.0000
  C   C764      1.0  0.29179  0.51178  0.28371  1.0000
  C   C765      1.0  0.27736  0.52579  0.29141  1.0000
  C   C766      1.0  0.26561  0.54127  0.28226  1.0000
  C   C767      1.0  0.26823  0.54271  0.26550  1.0000
  H   H1330     1.0  0.01279  0.72986  0.29779  1.0000
  H   H1331     1.0  0.30120  0.50016  0.29069  1.0000
  H   H1332     1.0  0.25445  0.55223  0.28816  1.0000
  H   H1333     1.0  0.25911  0.55469  0.25856  1.0000
  C   C768      1.0  0.99095  0.94706  0.44397  1.0000
  H   H1334     1.0  0.09672  0.82482  0.29163  1.0000
  S   S180      1.0  0.13942  0.48519  0.45452  1.0000
  H   H1335     1.0  0.00276  0.77191  0.28459  1.0000
  C   C769      1.0  0.15617  0.96773  0.40481  1.0000
  H   H1336     1.0  0.02212  0.66146  0.40045  1.0000
  C   C770      1.0  0.23998  0.79581  0.22978  1.0000
  H   H1337     1.0  0.25296  0.63265  0.23214  1.0000
  C   C771      1.0  0.23887  0.92434  0.29073  1.0000
  C   C772      1.0  0.23132  0.92840  0.30640  1.0000
  C   C773      1.0  0.23770  0.94397  0.31279  1.0000
  C   C774      1.0  0.25208  0.95555  0.30366  1.0000
  C   C775      1.0  0.25945  0.95169  0.28793  1.0000
  C   C776      1.0  0.25283  0.93632  0.28146  1.0000
  H   H1338     1.0  0.22051  0.91930  0.31371  1.0000
  H   H1339     1.0  0.23175  0.94673  0.32487  1.0000
  H   H1340     1.0  0.27062  0.96044  0.28074  1.0000
  H   H1341     1.0  0.25887  0.93342  0.26942  1.0000
  H   H1342     1.0  0.99139  0.71666  0.30082  1.0000
  H   H1343     1.0  0.28282  0.92661  0.34838  1.0000
  H   H1344     1.0  0.07012  0.82024  0.23770  1.0000
  C   C777      1.0  0.99159  0.67494  0.45804  1.0000
  H   H1345     1.0  0.27424  0.81771  0.24889  1.0000
  C   C778      1.0  0.05163  0.55230  0.45533  1.0000
  C   C779      1.0  0.06575  0.53563  0.45071  1.0000
  H   H1346     1.0  0.29127  0.49698  0.42856  1.0000
  C   C780      1.0  0.12612  0.96929  0.43560  1.0000
  H   H1347     1.0  0.30472  0.88103  0.33537  1.0000
  C   C781      1.0  0.09492  0.91033  0.42798  1.0000
  H   H1348     1.0  0.08550  0.80417  0.22405  1.0000
  H   H1349     1.0  0.24721  0.50176  0.29003  1.0000
  Fe  Fe93      1.0  0.22557  0.89918  0.22483  1.0000
  H   H1350     1.0  0.16134  0.96326  0.37977  1.0000
  H   H1351     1.0  0.30618  0.91139  0.29196  1.0000
  H   H1352     1.0  0.00193  0.94589  0.43286  1.0000
  C   C782      1.0  0.20803  0.97602  0.40824  1.0000
  H   H1353     1.0  0.29557  0.94140  0.31085  1.0000
  C   C783      1.0  0.14809  0.93641  0.43384  1.0000
  H   H1354     1.0  0.18357  0.96005  0.44535  1.0000
  C   C784      1.0  0.18435  0.82018  0.24233  1.0000
  C   C785      1.0  0.18027  0.80015  0.24797  1.0000
  C   C786      1.0  0.16878  0.79054  0.23993  1.0000
  H   H1355     1.0  0.21768  0.51861  0.42074  1.0000
  C   C787      1.0  0.28384  0.53520  0.41848  1.0000
  H   H1356     1.0  0.18587  0.79207  0.25874  1.0000
  H   H1357     1.0  0.16587  0.77512  0.24435  1.0000
  C   C788      1.0  0.00998  0.81561  0.41371  1.0000
  C   C789      1.0  0.02037  0.80361  0.40205  1.0000
  C   C790      1.0  0.00964  0.79466  0.39288  1.0000
  H   H1358     1.0  0.27903  0.89090  0.32033  1.0000
  H   H1359     1.0  0.25614  0.91597  0.36964  1.0000
  H   H1360     1.0  0.09634  0.89639  0.42227  1.0000
  H   H1361     1.0  0.03683  0.80148  0.39991  1.0000
  H   H1362     1.0  0.01786  0.78579  0.38376  1.0000
  H   H1363     1.0  0.11233  0.80181  0.29802  1.0000
  C   C791      1.0  0.04760  0.75288  0.29840  1.0000
  C   C792      1.0  0.05517  0.76198  0.28309  1.0000
  C   C793      1.0  0.06926  0.75052  0.27269  1.0000
  C   C794      1.0  0.07626  0.72997  0.27768  1.0000
  C   C795      1.0  0.06849  0.72086  0.29292  1.0000
  C   C796      1.0  0.05416  0.73222  0.30322  1.0000
  H   H1364     1.0  0.05003  0.77793  0.27924  1.0000
  H   H1365     1.0  0.07492  0.75761  0.26091  1.0000
  H   H1366     1.0  0.07380  0.70496  0.29686  1.0000
  S   S181      1.0  0.01131  0.69123  0.37408  1.0000
  C   C797      1.0  0.29225  0.78918  0.24336  1.0000
  H   H1367     1.0  0.23967  0.48878  0.30966  1.0000
  C   C798      1.0  0.20176  0.96278  0.42201  1.0000
  C   C799      1.0  0.10067  0.80839  0.29003  1.0000
  H   H1368     1.0  0.08385  0.79359  0.26797  1.0000
  C   C800      1.0  0.29093  0.58977  0.26664  1.0000
  N   N42       1.0  0.29510  0.91300  0.32685  1.0000
  H   H1369     1.0  0.14598  0.74908  0.28355  1.0000
  H   H1370     1.0  0.23610  0.90455  0.36467  1.0000
  H   H1371     1.0  0.14951  0.84966  0.25511  1.0000
  H   H1372     1.0  0.20669  0.94651  0.42249  1.0000
  C   C801      1.0  0.11989  0.82466  0.26581  1.0000
  C   C802      1.0  0.29522  0.55027  0.36658  1.0000
  H   H1373     1.0  0.13125  0.86197  0.26984  1.0000
  C   C803      1.0  0.08043  0.80554  0.23688  1.0000
  C   C804      1.0  0.03326  0.79586  0.47010  1.0000
  H   H1374     1.0  0.02172  0.75772  0.42739  1.0000
  H   H1375     1.0  0.31734  0.56841  0.28389  1.0000
  H   H1376     1.0  0.22959  0.95534  0.45711  1.0000
  C   C805      1.0  0.02088  0.75010  0.45321  1.0000
  H   H1377     1.0  0.10916  0.79030  0.24350  1.0000
  C   C806      1.0  0.26183  0.90682  0.34584  1.0000
  H   H1378     1.0  0.10607  0.76493  0.26969  1.0000
  C   C807      1.0  0.11744  0.76672  0.27709  1.0000
  C   C808      1.0  0.27357  0.60395  0.25935  1.0000
  H   H1379     1.0  0.11087  0.76505  0.28986  1.0000
  H   H1380     1.0  0.28399  0.77998  0.25298  1.0000
  H   H1381     1.0  0.11865  0.96517  0.44801  1.0000
  H   H1382     1.0  0.03459  0.70476  0.28289  1.0000
  C   C809      1.0  0.02776  0.74501  0.43623  1.0000
  H   H1383     1.0  0.20855  0.62670  0.24491  1.0000
  H   H1384     1.0  0.25225  0.90541  0.33682  1.0000
  C   C810      1.0  0.09254  0.80643  0.26316  1.0000
  C   C811      1.0  0.29396  0.49931  0.41525  1.0000
  H   H1385     1.0  0.09455  0.51665  0.45399  1.0000
  C   C812      1.0  0.25973  0.51602  0.41035  1.0000
  C   C813      1.0  0.07586  0.79933  0.31505  1.0000
  C   C814      1.0  0.08081  0.79920  0.29704  1.0000
  H   H1386     1.0  0.18964  0.72871  0.23733  1.0000
  C   C815      1.0  0.11419  0.92028  0.42276  1.0000
  H   H1387     1.0  0.26297  0.61128  0.26883  1.0000
  H   H1388     1.0  0.03980  0.56890  0.37724  1.0000
  C   C816      1.0  0.03068  0.76828  0.45577  1.0000
  H   H1389     1.0  0.29720  0.56931  0.24948  1.0000
  H   H1390     1.0  0.01414  0.56954  0.38753  1.0000
  H   H1391     1.0  0.10697  0.81770  0.23885  1.0000
  H   H1392     1.0  0.31247  0.54535  0.40576  1.0000
  C   C817      1.0  0.16049  0.80119  0.22649  1.0000
  H   H1393     1.0  0.27986  0.65358  0.22362  1.0000
  H   H1394     1.0  0.15820  0.90666  0.46999  1.0000
  H   H1395     1.0  0.31588  0.52581  0.42266  1.0000
  C   C818      1.0  0.00459  0.72084  0.29190  1.0000
  H   H1396     1.0  0.02608  0.59917  0.42463  1.0000
  H   H1397     1.0  0.29816  0.59874  0.27318  1.0000
  H   H1398     1.0  0.31543  0.91285  0.35358  1.0000
  H   H1399     1.0  0.27934  0.55752  0.38906  1.0000
  H   H1400     1.0  0.25745  0.50813  0.40046  1.0000
  H   H1401     1.0  0.19232  0.48879  0.39194  1.0000
  H   H1402     1.0  0.12884  0.73436  0.27806  1.0000
  H   H1403     1.0  0.02913  0.78039  0.44524  1.0000
  C   C819      1.0  0.03074  0.76267  0.24204  1.0000
  Fe  Fe94      1.0  0.24013  0.98470  0.37122  1.0000
  H   H1404     1.0  0.14112  0.94268  0.40332  1.0000
  C   C820      1.0  0.99472  0.60120  0.40768  1.0000
  H   H1405     1.0  0.28405  0.57799  0.27557  1.0000
  H   H1406     1.0  0.14298  0.75042  0.26285  1.0000
  H   H1407     1.0  0.15007  0.81665  0.27381  1.0000
  H   H1408     1.0  0.16124  0.94458  0.43328  1.0000
  H   H1409     1.0  0.21818  0.70103  0.24169  1.0000
  C   C821      1.0  0.28138  0.54461  0.38217  1.0000
  H   H1410     1.0  0.99989  0.76848  0.25325  1.0000
  C   C822      1.0  0.99618  0.67949  0.39073  1.0000
  H   H1411     1.0  0.99557  0.58441  0.41074  1.0000
  H   H1412     1.0  0.02729  0.64708  0.46161  1.0000
  H   H1413     1.0  0.00404  0.75341  0.45493  1.0000
  H   H1414     1.0  0.01688  0.69080  0.44472  1.0000
  C   C823      1.0  0.31245  0.89761  0.35219  1.0000
  C   C824      1.0  0.05573  0.56295  0.46684  1.0000
  H   H1415     1.0  0.13107  0.82906  0.28781  1.0000
  H   H1416     1.0  0.11681  0.92281  0.40951  1.0000
  H   H1417     1.0  0.12776  0.82319  0.25349  1.0000
  H   H1418     1.0  0.04728  0.76271  0.45491  1.0000
  H   H1419     1.0  0.27464  0.55004  0.41474  1.0000
  C   C825      1.0  0.18866  0.97039  0.43497  1.0000
  H   H1420     1.0  0.28444  0.68001  0.24855  1.0000
  H   H1421     1.0  0.15651  0.85117  0.27415  1.0000
  H   H1422     1.0  0.04455  0.66265  0.44901  1.0000
  H   H1423     1.0  0.05554  0.71703  0.22740  1.0000
  S   S182      1.0  0.26197  0.97444  0.31136  1.0000
  H   H1424     1.0  0.99874  0.71108  0.26110  1.0000
  H   H1425     1.0  0.31083  0.79982  0.27489  1.0000
  N   N43       1.0  0.03383  0.59818  0.39929  1.0000
  C   C826      1.0  0.04944  0.60469  0.38546  1.0000
  C   C827      1.0  0.03621  0.57516  0.40208  1.0000
  H   H1426     1.0  0.09962  0.95117  0.42362  1.0000
  C   C828      1.0  0.03676  0.60538  0.41437  1.0000
  C   C829      1.0  0.05833  0.59919  0.41942  1.0000
  C   C830      1.0  0.05121  0.62783  0.38220  1.0000
  H   H1427     1.0  0.03678  0.63708  0.37900  1.0000
  C   C831      1.0  0.03044  0.56489  0.38889  1.0000
  C   C832      1.0  0.13658  0.82868  0.27494  1.0000
  C   C833      1.0  0.05960  0.60791  0.43451  1.0000
  C   C834      1.0  0.06789  0.63241  0.36828  1.0000
  H   H1428     1.0  0.25570  0.97726  0.46329  1.0000
  H   H1429     1.0  0.04598  0.60076  0.37421  1.0000
  H   H1430     1.0  0.06480  0.59599  0.38698  1.0000
  H   H1431     1.0  0.05224  0.56856  0.40351  1.0000
  H   H1432     1.0  0.02715  0.56967  0.41354  1.0000
  H   H1433     1.0  0.03524  0.67458  0.30300  1.0000
  C   C835      1.0  0.17689  0.83045  0.22845  1.0000
  C   C836      1.0  0.25654  0.68028  0.22808  1.0000
  S   S183      1.0  0.22243  0.96563  0.39148  1.0000
  H   H1434     1.0  0.07019  0.60490  0.40999  1.0000
  H   H1435     1.0  0.06209  0.58234  0.42207  1.0000
  C   C837      1.0  0.01536  0.74046  0.26626  1.0000
  H   H1436     1.0  0.05504  0.63319  0.39272  1.0000
  C   C838      1.0  0.24321  0.53517  0.41125  1.0000
  C   C839      1.0  0.29750  0.82257  0.22882  1.0000
  H   H1437     1.0  0.28796  0.87137  0.29772  1.0000
  H   H1438     1.0  0.29852  0.89447  0.36054  1.0000
  H   H1439     1.0  0.99850  0.95231  0.45278  1.0000
  H   H1440     1.0  0.00014  0.89335  0.39996  1.0000
  H   H1441     1.0  0.30408  0.94745  0.33844  1.0000
  C   C840      1.0  0.22826  0.65950  0.23147  1.0000
  H   H1442     1.0  0.08128  0.92094  0.42452  1.0000
  H   H1443     1.0  0.04844  0.60210  0.44454  1.0000
  H   H1444     1.0  0.06868  0.64906  0.36612  1.0000
  H   H1445     1.0  0.08293  0.62413  0.37103  1.0000
  H   H1446     1.0  0.06453  0.62794  0.35720  1.0000
  H   H1447     1.0  0.22836  0.62652  0.25686  1.0000
  C   C841      1.0  0.02360  0.68806  0.30519  1.0000
  C   C842      1.0  0.01967  0.70098  0.28928  1.0000
  C   C843      1.0  0.17814  0.63508  0.22266  1.0000
  H   H1448     1.0  0.99220  0.71747  0.44782  1.0000
  H   H1449     1.0  0.22219  0.52387  0.39915  1.0000
  H   H1450     1.0  0.02938  0.69701  0.31279  1.0000
  H   H1451     1.0  0.02769  0.77239  0.23064  1.0000
  H   H1452     1.0  0.27411  0.91581  0.30975  1.0000
  H   H1453     1.0  0.30723  0.52403  0.39029  1.0000
  C   C844      1.0  0.30613  0.83242  0.27290  1.0000
  H   H1454     1.0  0.22096  0.79213  0.26210  1.0000
  C   C845      1.0  0.23599  0.78272  0.25947  1.0000
  H   H1455     1.0  0.05659  0.62485  0.43247  1.0000
  H   H1456     1.0  0.21258  0.66103  0.22835  1.0000
  N   N44       1.0  0.28176  0.51915  0.40869  1.0000
  H   H1457     1.0  0.06491  0.78438  0.46038  1.0000
  H   H1458     1.0  0.23930  0.93037  0.35603  1.0000
  H   H1459     1.0  0.17836  0.98360  0.32221  1.0000
  H   H1460     1.0  0.06268  0.52729  0.44184  1.0000
  H   H1461     1.0  0.00208  0.88343  0.38130  1.0000
  C   C846      1.0  0.03394  0.54164  0.39308  1.0000
  H   H1462     1.0  0.10840  0.83874  0.26476  1.0000
  C   C847      1.0  0.24751  0.91497  0.35990  1.0000
  C   C848      1.0  0.12515  0.78752  0.27182  1.0000
  C   C849      1.0  0.14382  0.84913  0.26806  1.0000
  C   C850      1.0  0.28639  0.90446  0.31464  1.0000
  H   H1463     1.0  0.03646  0.77194  0.24945  1.0000
  H   H1464     1.0  0.01385  0.69133  0.28228  1.0000
  H   H1465     1.0  0.99230  0.69385  0.42731  1.0000
  H   H1466     1.0  0.27810  0.89502  0.28625  1.0000
  S   S184      1.0  0.29125  0.84949  0.22581  1.0000
  C   C851      1.0  0.13722  0.95655  0.40936  1.0000
  H   H1467     1.0  0.07194  0.79271  0.24232  1.0000
  H   H1468     1.0  0.24800  0.79155  0.26072  1.0000
  C   C852      1.0  0.30164  0.89776  0.30015  1.0000
  C   C853      1.0  0.06107  0.91332  0.46738  1.0000
  H   H1469     1.0  0.26886  0.93547  0.33247  1.0000
  H   H1470     1.0  0.27962  0.61605  0.25026  1.0000
  C   C854      1.0  0.27748  0.92144  0.33842  1.0000
  H   H1471     1.0  0.06127  0.94480  0.45709  1.0000
  H   H1472     1.0  0.99300  0.75768  0.30325  1.0000
  H   H1473     1.0  0.04464  0.74232  0.43357  1.0000
  H   H1474     1.0  0.31548  0.88802  0.30404  1.0000
  H   H1475     1.0  0.29270  0.83253  0.28237  1.0000
  H   H1476     1.0  0.06136  0.79317  0.31957  1.0000
  H   H1477     1.0  0.26640  0.65265  0.24383  1.0000
  H   H1478     1.0  0.28783  0.56424  0.35967  1.0000
  H   H1479     1.0  0.08807  0.78955  0.32125  1.0000
  H   H1480     1.0  0.13714  0.78764  0.27926  1.0000
  C   C855      1.0  0.21045  0.70181  0.23114  1.0000
  H   H1481     1.0  0.26494  0.59513  0.25369  1.0000
  H   H1482     1.0  0.07505  0.60302  0.43799  1.0000
  C   C856      1.0  0.13494  0.74911  0.27526  1.0000
  H   H1483     1.0  0.02619  0.72718  0.26231  1.0000
  C   C857      1.0  0.23880  0.77683  0.24269  1.0000
  H   H1484     1.0  0.31435  0.84513  0.27366  1.0000
  H   H1485     1.0  0.05104  0.98345  0.44854  1.0000
  Fe  Fe95      1.0  0.28363  0.49759  0.33017  1.0000
  Fe  Fe96      1.0  0.00375  0.58200  0.45692  1.0000
  H   H1486     1.0  0.03270  0.62225  0.41355  1.0000
  H   H1487     1.0  0.02415  0.74789  0.27291  1.0000
  H   H1488     1.0  0.22700  0.80780  0.23296  1.0000
  H   H1489     1.0  0.02524  0.65423  0.44053  1.0000
  H   H1490     1.0  0.24854  0.74923  0.22241  1.0000
  H   H1491     1.0  0.30056  0.83506  0.26114  1.0000
  H   H1492     1.0  0.08174  0.78330  0.29485  1.0000
  H   H1493     1.0  0.15406  0.92398  0.42645  1.0000
  H   H1494     1.0  0.07406  0.81513  0.31793  1.0000
  H   H1495     1.0  0.99554  0.73054  0.41799  1.0000
  H   H1496     1.0  0.26247  0.98126  0.43378  1.0000
  N   N45       1.0  0.10940  0.80631  0.27280  1.0000
  H   H1497     1.0  0.06772  0.80841  0.29154  1.0000
  H   H1498     1.0  0.99431  0.60773  0.41881  1.0000
  H   H1499     1.0  0.05023  0.53598  0.39411  1.0000
  H   H1500     1.0  0.01096  0.60400  0.38339  1.0000
  H   H1501     1.0  0.29830  0.68041  0.22855  1.0000
  H   H1502     1.0  0.30941  0.59130  0.24319  1.0000
  S   S185      1.0  0.31458  0.75274  0.23694  1.0000
  H   H1503     1.0  0.23021  0.60700  0.24434  1.0000
  H   H1504     1.0  0.09753  0.98345  0.42623  1.0000
  H   H1505     1.0  0.00579  0.74659  0.24258  1.0000
  H   H1506     1.0  0.06267  0.82183  0.45841  1.0000
  H   H1507     1.0  0.99033  0.66279  0.46854  1.0000
  C   C858      1.0  0.01411  0.67875  0.45499  1.0000
  N   N46       1.0  0.99712  0.73337  0.27711  1.0000
  H   H1508     1.0  0.27749  0.53070  0.43119  1.0000
  C   C859      1.0  0.22221  0.53004  0.41040  1.0000
  H   H1509     1.0  0.21072  0.54401  0.41075  1.0000
  H   H1510     1.0  0.28888  0.51221  0.38453  1.0000
  H   H1511     1.0  0.13823  0.93861  0.45938  1.0000
  H   H1512     1.0  0.01839  0.68329  0.46569  1.0000
  C   C860      1.0  0.22522  0.62345  0.24526  1.0000
  H   H1513     1.0  0.25329  0.76613  0.24132  1.0000
  H   H1514     1.0  0.24230  0.54092  0.42281  1.0000
  H   H1515     1.0  0.12433  0.96593  0.40369  1.0000
  S   S186      1.0  0.04071  0.91094  0.45729  1.0000
  H   H1516     1.0  0.17080  0.62561  0.23266  1.0000
  H   H1517     1.0  0.22631  0.66282  0.24398  1.0000
  C   C861      1.0  0.29035  0.67082  0.23869  1.0000
  H   H1518     1.0  0.29671  0.57058  0.42408  1.0000
  S   S187      1.0  0.98843  0.89177  0.46956  1.0000
  H   H1519     1.0  0.24637  0.54773  0.40156  1.0000
  H   H1520     1.0  0.99815  0.81396  0.45803  1.0000
  H   H1521     1.0  0.01111  0.62430  0.39393  1.0000
  H   H1522     1.0  0.21226  0.73426  0.22402  1.0000
  H   H1523     1.0  0.13117  0.91690  0.45300  1.0000
  H   H1524     1.0  0.26649  0.54294  0.37898  1.0000
  C   C862      1.0  0.31927  0.79164  0.22111  1.0000
  H   H1525     1.0  0.99453  0.52196  0.46233  1.0000
  C   C863      1.0  0.00080  0.87935  0.39447  1.0000
  H   H1526     1.0  0.23677  0.76873  0.26842  1.0000
  H   H1527     1.0  0.26956  0.89136  0.35002  1.0000
  H   H1528     1.0  0.16740  0.90054  0.45013  1.0000
  C   C864      1.0  0.00569  0.66475  0.40185  1.0000
  C   C865      1.0  0.30616  0.57945  0.25360  1.0000
  H   H1529     1.0  0.08133  0.82061  0.26416  1.0000
  N   N47       1.0  0.13085  0.95077  0.42701  1.0000
  H   H1530     1.0  0.02128  0.71327  0.22143  1.0000
  H   H1531     1.0  0.12696  0.90915  0.42705  1.0000
  H   H1532     1.0  0.17455  0.92243  0.45650  1.0000
  H   H1533     1.0  0.01463  0.86862  0.39739  1.0000
  H   H1534     1.0  0.29819  0.53775  0.35913  1.0000
  H   H1535     1.0  0.02960  0.53455  0.38358  1.0000
  H   H1536     1.0  0.02452  0.53680  0.40456  1.0000
  H   H1537     1.0  0.22590  0.76889  0.24206  1.0000
  C   C866      1.0  0.32007  0.81193  0.27513  1.0000
  H   H1538     1.0  0.10563  0.93832  0.44224  1.0000
  S   S188      1.0  0.02327  0.85160  0.46389  1.0000
  C   C867      1.0  0.30846  0.77964  0.23338  1.0000
  C   C868      1.0  0.11190  0.94083  0.42938  1.0000
  H   H1539     1.0  0.30162  0.65784  0.24303  1.0000
  H   H1540     1.0  0.03100  0.80642  0.45887  1.0000
  C   C869      1.0  0.01293  0.60739  0.39525  1.0000
  Fe  Fe97      1.0  0.99901  0.72154  0.36036  1.0000
  H   H1541     1.0  0.24990  0.68739  0.23893  1.0000
  C   C870      1.0  0.16208  0.91326  0.45730  1.0000
  H   H1542     1.0  0.25565  0.50568  0.42161  1.0000
  H   H1543     1.0  0.30936  0.54826  0.27688  1.0000
  H   H1544     1.0  0.14193  0.49094  0.40816  1.0000
  S   S189      1.0  0.09987  0.75680  0.22693  1.0000
  C   C871      1.0  0.06828  0.93224  0.46493  1.0000
  S   S190      1.0  0.99594  0.72620  0.33412  1.0000
  H   H1545     1.0  0.99599  0.79312  0.44791  1.0000
  H   H1546     1.0  0.30295  0.88192  0.27981  1.0000
  H   H1547     1.0  0.15779  0.66277  0.22747  1.0000
  C   C872      1.0  0.21830  0.95455  0.46809  1.0000
  H   H1548     1.0  0.17341  0.98323  0.38415  1.0000
  C   C873      1.0  0.31516  0.94246  0.32831  1.0000
  C   C874      1.0  0.30964  0.89619  0.33482  1.0000
  C   C875      1.0  0.02861  0.65945  0.45131  1.0000
  H   H1549     1.0  0.25286  0.98217  0.25854  1.0000
  H   H1550     1.0  0.17981  0.84587  0.22398  1.0000
  H   H1551     1.0  0.14034  0.97475  0.43701  1.0000
  H   H1552     1.0  0.20017  0.98145  0.33250  1.0000
  C   C876      1.0  0.08381  0.52955  0.45759  1.0000
  H   H1553     1.0  0.02590  0.73635  0.46153  1.0000
  H   H1554     1.0  0.21923  0.98359  0.27599  1.0000
  C   C877      1.0  0.15939  0.97589  0.38701  1.0000
  H   H1555     1.0  0.15495  0.98079  0.41146  1.0000
  H   H1556     1.0  0.20331  0.96280  0.46541  1.0000
  H   H1557     1.0  0.31290  0.75090  0.27194  1.0000
  C   C878      1.0  0.30581  0.53966  0.41808  1.0000
  H   H1558     1.0  0.18086  0.49030  0.42088  1.0000
  C   C879      1.0  0.98923  0.76564  0.29150  1.0000
  C   C880      1.0  0.06496  0.81183  0.46986  1.0000
  H   H1559     1.0  0.22735  0.48591  0.29323  1.0000
  C   C881      1.0  0.30600  0.55602  0.42847  1.0000
  C   C882      1.0  0.98870  0.81802  0.41642  1.0000
  H   H1560     1.0  0.98877  0.66781  0.44793  1.0000
  S   S191      1.0  0.23338  0.86610  0.22125  1.0000
  H   H1561     1.0  0.32160  0.52513  0.30087  1.0000
  H   H1562     1.0  0.29998  0.55093  0.44109  1.0000
  C   C883      1.0  0.16483  0.82107  0.22071  1.0000
  H   H1563     1.0  0.25888  0.66629  0.60871  1.0000
  H   H1564     1.0  0.23103  0.92279  0.47513  1.0000
  H   H1565     1.0  0.01182  0.72124  0.51225  1.0000
  S   S192      1.0  0.01740  0.71140  0.55186  1.0000
  H   H1566     1.0  0.23308  0.70461  0.72027  1.0000
  S   S193      1.0  0.00727  0.73887  0.58149  1.0000
  Fe  Fe98      1.0  0.00609  0.74408  0.55506  1.0000
  S   S194      1.0  0.02213  0.76789  0.53822  1.0000
  Fe  Fe99      1.0  0.01661  0.70579  0.57863  1.0000
  S   S195      1.0  0.04362  0.68408  0.58800  1.0000
  H   H1567     1.0  0.26037  0.58984  0.60069  1.0000
  C   C884      1.0  0.00038  0.78404  0.47316  1.0000
  S   S196      1.0  0.18812  0.95579  0.52111  1.0000
  Fe  Fe100     1.0  0.12928  0.94967  0.49166  1.0000
  S   S197      1.0  0.11581  0.92084  0.49089  1.0000
  C   C885      1.0  0.00795  0.61079  0.57812  1.0000
  S   S198      1.0  0.16253  0.95282  0.48416  1.0000
  S   S199      1.0  0.12880  0.96056  0.51518  1.0000
  Fe  Fe101     1.0  0.13583  0.68812  0.63828  1.0000
  S   S200      1.0  0.14826  0.65498  0.64502  1.0000
  S   S201      1.0  0.10349  0.70199  0.63322  1.0000
  Fe  Fe102     1.0  0.17580  0.70255  0.64244  1.0000
  S   S202      1.0  0.19110  0.67062  0.64915  1.0000
  S   S203      1.0  0.18998  0.73172  0.63962  1.0000
  Fe  Fe103     1.0  0.17707  0.66246  0.62948  1.0000
  S   S204      1.0  0.19714  0.64277  0.61221  1.0000
  Fe  Fe104     1.0  0.16130  0.66557  0.66426  1.0000
  S   S205      1.0  0.16187  0.64594  0.68851  1.0000
  S   S206      1.0  0.16399  0.69495  0.62138  1.0000
  S   S207      1.0  0.14666  0.69817  0.65893  1.0000
  H   H1568     1.0  0.17317  0.57767  0.69343  1.0000
  S   S208      1.0  0.20493  0.49939  0.59904  1.0000
  Fe  Fe105     1.0  0.25709  0.51961  0.59526  1.0000
  S   S209      1.0  0.23118  0.53734  0.58291  1.0000
  S   S210      1.0  0.28760  0.52918  0.59697  1.0000
  Fe  Fe106     1.0  0.21146  0.52837  0.60598  1.0000
  S   S211      1.0  0.18573  0.54996  0.61752  1.0000
  Fe  Fe107     1.0  0.22652  0.50713  0.57680  1.0000
  S   S212      1.0  0.22294  0.50410  0.55126  1.0000
  S   S213      1.0  0.23749  0.51263  0.61895  1.0000
  H   H1569     1.0  0.29910  0.75730  0.70162  1.0000
  Fe  Fe108     1.0  0.29376  0.95963  0.60226  1.0000
  S   S214      1.0  0.31099  0.92865  0.61172  1.0000
  C   C886      1.0  0.22398  0.98195  0.55296  1.0000
  Fe  Fe109     1.0  0.28963  0.76912  0.65962  1.0000
  S   S215      1.0  0.28665  0.79464  0.67431  1.0000
  S   S216      1.0  0.26961  0.74375  0.66638  1.0000
  Fe  Fe110     1.0  0.29649  0.81408  0.65106  1.0000
  S   S217      1.0  0.27846  0.84554  0.64435  1.0000
  S   S218      1.0  0.29709  0.78909  0.63631  1.0000
  C   C887      1.0  0.28772  0.86867  0.63569  1.0000
  C   C888      1.0  0.30816  0.87087  0.63478  1.0000
  H   H1570     1.0  0.03382  0.62191  0.55428  1.0000
  C   C889      1.0  0.30135  0.90603  0.62130  1.0000
  C   C890      1.0  0.28085  0.90392  0.62245  1.0000
  C   C891      1.0  0.27409  0.88534  0.62963  1.0000
  H   H1571     1.0  0.28560  0.57830  0.59515  1.0000
  H   H1572     1.0  0.16376  0.67956  0.58472  1.0000
  H   H1573     1.0  0.27024  0.91654  0.61768  1.0000
  H   H1574     1.0  0.25821  0.88383  0.63037  1.0000
  H   H1575     1.0  0.29724  0.80293  0.70881  1.0000
  H   H1576     1.0  0.10709  0.77275  0.61638  1.0000
  H   H1577     1.0  0.12813  0.76084  0.62689  1.0000
  C   C892      1.0  0.00233  0.60360  0.54475  1.0000
  H   H1578     1.0  0.10675  0.60728  0.50309  1.0000
  H   H1579     1.0  0.26570  0.97653  0.48870  1.0000
  H   H1580     1.0  0.28993  0.88457  0.66605  1.0000
  H   H1581     1.0  0.21781  0.50010  0.51955  1.0000
  C   C893      1.0  0.07401  0.55717  0.47345  1.0000
  C   C894      1.0  0.21266  0.73447  0.64661  1.0000
  C   C895      1.0  0.21972  0.75349  0.64309  1.0000
  C   C896      1.0  0.23741  0.75649  0.64867  1.0000
  C   C897      1.0  0.24816  0.74049  0.65797  1.0000
  C   C898      1.0  0.24107  0.72148  0.66153  1.0000
  C   C899      1.0  0.22348  0.71844  0.65584  1.0000
  H   H1582     1.0  0.21144  0.76601  0.63599  1.0000
  H   H1583     1.0  0.24258  0.77123  0.64592  1.0000
  H   H1584     1.0  0.24927  0.70901  0.66871  1.0000
  H   H1585     1.0  0.21825  0.70373  0.65866  1.0000
  C   C900      1.0  0.16421  0.65835  0.70455  1.0000
  C   C901      1.0  0.16200  0.67962  0.70285  1.0000
  S   S219      1.0  0.25411  0.49012  0.58745  1.0000
  H   H1586     1.0  0.03063  0.58477  0.59970  1.0000
  H   H1587     1.0  0.15903  0.68862  0.69158  1.0000
  C   C902      1.0  0.01757  0.61619  0.59177  1.0000
  H   H1588     1.0  0.26338  0.82626  0.69667  1.0000
  C   C903      1.0  0.19329  0.61727  0.61305  1.0000
  C   C904      1.0  0.17483  0.61072  0.62005  1.0000
  C   C905      1.0  0.17253  0.59008  0.62113  1.0000
  C   C906      1.0  0.18869  0.57589  0.61523  1.0000
  C   C907      1.0  0.20703  0.58252  0.60796  1.0000
  C   C908      1.0  0.20920  0.60318  0.60673  1.0000
  H   H1589     1.0  0.16229  0.62157  0.62457  1.0000
  H   H1590     1.0  0.15822  0.58507  0.62658  1.0000
  H   H1591     1.0  0.21954  0.57173  0.60334  1.0000
  H   H1592     1.0  0.22330  0.60820  0.60096  1.0000
  C   C909      1.0  0.20139  0.96642  0.53346  1.0000
  C   C910      1.0  0.99443  0.64776  0.50709  1.0000
  C   C911      1.0  0.27059  0.59756  0.56506  1.0000
  H   H1593     1.0  0.20523  0.92999  0.48442  1.0000
  C   C912      1.0  0.02335  0.73089  0.50591  1.0000
  H   H1594     1.0  0.06036  0.78211  0.48183  1.0000
  C   C913      1.0  0.05995  0.68915  0.60080  1.0000
  C   C914      1.0  0.07802  0.67557  0.60299  1.0000
  C   C915      1.0  0.09146  0.67909  0.61293  1.0000
  C   C916      1.0  0.08688  0.69618  0.62097  1.0000
  C   C917      1.0  0.06869  0.70961  0.61892  1.0000
  C   C918      1.0  0.05540  0.70624  0.60883  1.0000
  H   H1595     1.0  0.08170  0.66225  0.59691  1.0000
  H   H1596     1.0  0.10531  0.66855  0.61441  1.0000
  H   H1597     1.0  0.06491  0.72284  0.62511  1.0000
  H   H1598     1.0  0.04155  0.71679  0.60737  1.0000
  H   H1599     1.0  0.24555  0.64430  0.59328  1.0000
  H   H1600     1.0  0.14000  0.52251  0.54922  1.0000
  C   C919      1.0  0.10989  0.74256  0.59685  1.0000
  H   H1601     1.0  0.21145  0.54778  0.66667  1.0000
  H   H1602     1.0  0.31333  0.86935  0.57927  1.0000
  H   H1603     1.0  0.31595  0.88928  0.66183  1.0000
  H   H1604     1.0  0.24997  0.76981  0.71546  1.0000
  C   C920      1.0  0.21752  0.95393  0.54054  1.0000
  C   C921      1.0  0.20379  0.49440  0.54401  1.0000
  Fe  Fe111     1.0  0.32006  0.78542  0.67537  1.0000
  H   H1605     1.0  0.08108  0.60397  0.51189  1.0000
  H   H1606     1.0  0.21423  0.92720  0.60218  1.0000
  C   C922      1.0  0.25898  0.84197  0.69059  1.0000
  H   H1607     1.0  0.28677  0.54469  0.56296  1.0000
  H   H1608     1.0  0.28505  0.59795  0.55671  1.0000
  C   C923      1.0  0.00806  0.81871  0.50702  1.0000
  C   C924      1.0  0.01862  0.80262  0.51653  1.0000
  C   C925      1.0  0.00822  0.78790  0.52662  1.0000
  H   H1609     1.0  0.14833  0.54923  0.56311  1.0000
  C   C926      1.0  0.06689  0.73630  0.56491  1.0000
  H   H1610     1.0  0.01615  0.83017  0.49947  1.0000
  H   H1611     1.0  0.03488  0.80168  0.51618  1.0000
  C   C927      1.0  0.16898  0.54910  0.50194  1.0000
  C   C928      1.0  0.02968  0.65283  0.56006  1.0000
  H   H1612     1.0  0.13489  0.50438  0.53189  1.0000
  C   C929      1.0  0.25341  0.60035  0.55492  1.0000
  C   C930      1.0  0.15072  0.53291  0.54270  1.0000
  H   H1613     1.0  0.17552  0.55057  0.51267  1.0000
  H   H1614     1.0  0.00837  0.58993  0.55268  1.0000
  C   C931      1.0  0.08712  0.89968  0.48450  1.0000
  H   H1615     1.0  0.99636  0.93192  0.50086  1.0000
  H   H1616     1.0  0.18050  0.53715  0.47950  1.0000
  H   H1617     1.0  0.06531  0.94971  0.53494  1.0000
  H   H1618     1.0  0.02331  0.65584  0.50941  1.0000
  C   C932      1.0  0.04467  0.98314  0.48183  1.0000
  H   H1619     1.0  0.19144  0.52268  0.49660  1.0000
  H   H1620     1.0  0.16773  0.52714  0.56279  1.0000
  H   H1621     1.0  0.09452  0.88691  0.49196  1.0000
  C   C933      1.0  0.02898  0.76229  0.48546  1.0000
  H   H1622     1.0  0.03282  0.62052  0.58712  1.0000
  H   H1623     1.0  0.11771  0.68643  0.58317  1.0000
  S   S220      1.0  0.26016  0.97122  0.60711  1.0000
  H   H1624     1.0  0.09096  0.75435  0.56183  1.0000
  H   H1625     1.0  0.03084  0.77075  0.49516  1.0000
  C   C934      1.0  0.21607  0.93202  0.47320  1.0000
  H   H1626     1.0  0.13469  0.57744  0.50609  1.0000
  H   H1627     1.0  0.27091  0.58224  0.57229  1.0000
  C   C935      1.0  0.10510  0.67022  0.71141  1.0000
  H   H1628     1.0  0.29228  0.92031  0.65482  1.0000
  C   C936      1.0  0.20691  0.57441  0.70806  1.0000
  H   H1629     1.0  0.26868  0.82509  0.59591  1.0000
  H   H1630     1.0  0.14694  0.71443  0.58895  1.0000
  H   H1631     1.0  0.29564  0.59368  0.61836  1.0000
  C   C937      1.0  0.22868  0.96157  0.55025  1.0000
  H   H1632     1.0  0.31872  0.85827  0.63962  1.0000
  C   C938      1.0  0.08371  0.74364  0.57148  1.0000
  H   H1633     1.0  0.09885  0.73440  0.60563  1.0000
  H   H1634     1.0  0.20576  0.55540  0.69072  1.0000
  C   C939      1.0  0.29408  0.91502  0.66756  1.0000
  H   H1635     1.0  0.28008  0.56871  0.63930  1.0000
  C   C940      1.0  0.14722  0.75164  0.54195  1.0000
  H   H1636     1.0  0.15018  0.72240  0.55631  1.0000
  H   H1637     1.0  0.13550  0.76502  0.53918  1.0000
  H   H1638     1.0  0.17190  0.55012  0.54942  1.0000
  H   H1639     1.0  0.28755  0.85361  0.59480  1.0000
  H   H1640     1.0  0.09048  0.67793  0.70740  1.0000
  N   N48       1.0  0.18330  0.58486  0.66815  1.0000
  C   C941      1.0  0.20111  0.59205  0.65676  1.0000
  C   C942      1.0  0.18003  0.56419  0.66498  1.0000
  C   C943      1.0  0.16454  0.59998  0.66496  1.0000
  C   C944      1.0  0.18583  0.58430  0.68538  1.0000
  C   C945      1.0  0.20518  0.61388  0.65749  1.0000
  C   C946      1.0  0.14396  0.59437  0.67425  1.0000
  C   C947      1.0  0.19919  0.54926  0.65928  1.0000
  C   C948      1.0  0.19399  0.52792  0.65948  1.0000
  C   C949      1.0  0.22546  0.61796  0.64752  1.0000
  C   C950      1.0  0.12625  0.61058  0.66959  1.0000
  H   H1641     1.0  0.19888  0.59162  0.64427  1.0000
  H   H1642     1.0  0.21543  0.58153  0.65839  1.0000
  H   H1643     1.0  0.17141  0.55616  0.67570  1.0000
  H   H1644     1.0  0.17033  0.56610  0.65531  1.0000
  H   H1645     1.0  0.16317  0.60239  0.65204  1.0000
  H   H1646     1.0  0.16576  0.61520  0.66789  1.0000
  H   H1647     1.0  0.18446  0.60010  0.68829  1.0000
  H   H1648     1.0  0.21937  0.57695  0.68337  1.0000
  H   H1649     1.0  0.19310  0.62536  0.65248  1.0000
  H   H1650     1.0  0.20567  0.61630  0.66987  1.0000
  H   H1651     1.0  0.14369  0.59350  0.68730  1.0000
  H   H1652     1.0  0.14104  0.57954  0.67173  1.0000
  H   H1653     1.0  0.20540  0.55484  0.64678  1.0000
  H   H1654     1.0  0.20771  0.51792  0.65457  1.0000
  H   H1655     1.0  0.18879  0.52106  0.67186  1.0000
  H   H1656     1.0  0.18190  0.52859  0.65196  1.0000
  H   H1657     1.0  0.22760  0.63395  0.64768  1.0000
  H   H1658     1.0  0.23832  0.60753  0.65243  1.0000
  H   H1659     1.0  0.22557  0.61582  0.63496  1.0000
  H   H1660     1.0  0.12786  0.62555  0.67280  1.0000
  H   H1661     1.0  0.12566  0.61225  0.65657  1.0000
  H   H1662     1.0  0.00788  0.62871  0.59761  1.0000
  H   H1663     1.0  0.23100  0.67738  0.69524  1.0000
  S   S221      1.0  0.16139  0.49782  0.48187  1.0000
  C   C951      1.0  0.01468  0.96758  0.49660  1.0000
  C   C952      1.0  0.27809  0.56925  0.62664  1.0000
  H   H1664     1.0  0.05543  0.66943  0.55370  1.0000
  C   C953      1.0  0.29525  0.84976  0.68703  1.0000
  C   C954      1.0  0.01986  0.94906  0.48722  1.0000
  C   C955      1.0  0.05015  0.65627  0.55013  1.0000
  H   H1665     1.0  0.25452  0.77251  0.69384  1.0000
  H   H1666     1.0  0.01897  0.66720  0.55798  1.0000
  H   H1667     1.0  0.23859  0.59908  0.56266  1.0000
  H   H1668     1.0  0.12557  0.55691  0.54060  1.0000
  H   H1669     1.0  0.27056  0.85627  0.70685  1.0000
  H   H1670     1.0  0.24289  0.84730  0.69523  1.0000
  Fe  Fe112     1.0  0.12973  0.50263  0.47539  1.0000
  H   H1671     1.0  0.16080  0.70581  0.71455  1.0000
  H   H1672     1.0  0.00724  0.96189  0.50872  1.0000
  C   C956      1.0  0.04608  0.96349  0.50841  1.0000
  H   H1673     1.0  0.05406  0.95045  0.50218  1.0000
  C   C957      1.0  0.23136  0.70278  0.70803  1.0000
  H   H1674     1.0  0.12113  0.56361  0.49651  1.0000
  H   H1675     1.0  0.30511  0.62241  0.57150  1.0000
  H   H1676     1.0  0.30621  0.59550  0.57406  1.0000
  H   H1677     1.0  0.03204  0.93753  0.49201  1.0000
  H   H1678     1.0  0.29037  0.88929  0.69539  1.0000
  C   C958      1.0  0.00124  0.93845  0.48831  1.0000
  H   H1679     1.0  0.21523  0.95981  0.49260  1.0000
  H   H1680     1.0  0.03626  0.72098  0.49988  1.0000
  H   H1681     1.0  0.28209  0.64322  0.58854  1.0000
  H   H1682     1.0  0.09148  0.56726  0.51933  1.0000
  H   H1683     1.0  0.99560  0.79109  0.48434  1.0000
  H   H1684     1.0  0.19901  0.54699  0.48788  1.0000
  C   C959      1.0  0.02126  0.63502  0.55515  1.0000
  H   H1685     1.0  0.03699  0.95637  0.51931  1.0000
  N   N49       1.0  0.13279  0.54630  0.51756  1.0000
  H   H1686     1.0  0.09378  0.50143  0.52196  1.0000
  C   C960      1.0  0.13117  0.71134  0.58910  1.0000
  C   C961      1.0  0.29642  0.83812  0.59417  1.0000
  H   H1687     1.0  0.14852  0.56355  0.52944  1.0000
  C   C962      1.0  0.22563  0.96330  0.48132  1.0000
  H   H1688     1.0  0.29892  0.83320  0.69128  1.0000
  C   C963      1.0  0.11618  0.75791  0.62041  1.0000
  H   H1689     1.0  0.09257  0.59229  0.49448  1.0000
  H   H1690     1.0  0.08619  0.96403  0.52934  1.0000
  H   H1691     1.0  0.11166  0.60608  0.67611  1.0000
  H   H1692     1.0  0.02498  0.95396  0.47440  1.0000
  C   C964      1.0  0.21530  0.94300  0.59611  1.0000
  C   C965      1.0  0.14837  0.67488  0.58708  1.0000
  C   C966      1.0  0.13911  0.55096  0.53247  1.0000
  C   C967      1.0  0.13791  0.73549  0.55442  1.0000
  C   C968      1.0  0.30450  0.54186  0.58209  1.0000
  H   H1693     1.0  0.19377  0.98162  0.63047  1.0000
  H   H1694     1.0  0.00835  0.73986  0.48514  1.0000
  H   H1695     1.0  0.31595  0.91064  0.58163  1.0000
  C   C969      1.0  0.00700  0.65861  0.51294  1.0000
  C   C970      1.0  0.31492  0.88945  0.62759  1.0000
  C   C971      1.0  0.23210  0.68002  0.70749  1.0000
  H   H1696     1.0  0.31032  0.84149  0.61430  1.0000
  H   H1697     1.0  0.01918  0.59866  0.57288  1.0000
  C   C972      1.0  0.13256  0.69222  0.58074  1.0000
  C   C973      1.0  0.09557  0.59636  0.50583  1.0000
  H   H1698     1.0  0.04864  0.65976  0.53722  1.0000
  H   H1699     1.0  0.01846  0.64050  0.54263  1.0000
  C   C974      1.0  0.27263  0.85639  0.69377  1.0000
  H   H1700     1.0  0.02891  0.73785  0.51493  1.0000
  H   H1701     1.0  0.00516  0.92575  0.48103  1.0000
  H   H1702     1.0  0.29672  0.86196  0.71596  1.0000
  H   H1703     1.0  0.24099  0.95172  0.55555  1.0000
  H   H1704     1.0  0.30532  0.92342  0.67076  1.0000
  C   C975      1.0  0.19112  0.48566  0.52120  1.0000
  C   C976      1.0  0.31424  0.55847  0.55512  1.0000
  H   H1705     1.0  0.26277  0.56540  0.62630  1.0000
  C   C977      1.0  0.15067  0.53702  0.50662  1.0000
  H   H1706     1.0  0.20230  0.98193  0.58590  1.0000
  H   H1707     1.0  0.15338  0.74507  0.53077  1.0000
  C   C978      1.0  0.99868  0.67269  0.52359  1.0000
  H   H1708     1.0  0.15988  0.75678  0.54630  1.0000
  H   H1709     1.0  0.11718  0.67043  0.70087  1.0000
  H   H1710     1.0  0.13647  0.75702  0.59845  1.0000
  C   C979      1.0  0.12618  0.74703  0.60618  1.0000
  N   N50       1.0  0.11776  0.73065  0.58303  1.0000
  H   H1711     1.0  0.22465  0.50637  0.71124  1.0000
  C   C980      1.0  0.30449  0.88400  0.68749  1.0000
  H   H1712     1.0  0.00852  0.68079  0.52817  1.0000
  C   C981      1.0  0.09427  0.91863  0.48211  1.0000
  C   C982      1.0  0.07535  0.95666  0.52462  1.0000
  H   H1713     1.0  0.10610  0.53631  0.53266  1.0000
  H   H1714     1.0  0.27911  0.91868  0.67495  1.0000
  Fe  Fe113     1.0  0.16108  0.96658  0.50679  1.0000
  H   H1715     1.0  0.16533  0.98207  0.61724  1.0000
  H   H1716     1.0  0.12565  0.70609  0.60183  1.0000
  H   H1717     1.0  0.03171  0.65024  0.57279  1.0000
  H   H1718     1.0  0.14430  0.67040  0.60014  1.0000
  H   H1719     1.0  0.04410  0.75306  0.48236  1.0000
  H   H1720     1.0  0.13554  0.73281  0.61096  1.0000
  C   C983      1.0  0.30052  0.54792  0.56639  1.0000
  N   N51       1.0  0.20659  0.73745  0.70513  1.0000
  C   C984      1.0  0.22592  0.74673  0.70309  1.0000
  C   C985      1.0  0.21142  0.71523  0.70264  1.0000
  C   C986      1.0  0.19432  0.74887  0.69229  1.0000
  H   H1721     1.0  0.24473  0.70787  0.69984  1.0000
  H   H1722     1.0  0.22108  0.56518  0.71185  1.0000
  C   C987      1.0  0.22318  0.76988  0.70429  1.0000
  C   C988      1.0  0.17506  0.74005  0.69055  1.0000
  H   H1723     1.0  0.23158  0.94516  0.59388  1.0000
  H   H1724     1.0  0.26942  0.62927  0.56787  1.0000
  H   H1725     1.0  0.31634  0.89217  0.69009  1.0000
  C   C989      1.0  0.24359  0.77683  0.70436  1.0000
  C   C990      1.0  0.16382  0.75331  0.67752  1.0000
  H   H1726     1.0  0.23485  0.74451  0.69121  1.0000
  H   H1727     1.0  0.19859  0.70695  0.70851  1.0000
  H   H1728     1.0  0.31092  0.56334  0.54304  1.0000
  H   H1729     1.0  0.21288  0.71385  0.68974  1.0000
  H   H1730     1.0  0.20411  0.74965  0.68040  1.0000
  H   H1731     1.0  0.18898  0.76496  0.69436  1.0000
  C   C991      1.0  0.29356  0.74463  0.71041  1.0000
  H   H1732     1.0  0.18600  0.48692  0.56684  1.0000
  C   C992      1.0  0.12385  0.56619  0.50846  1.0000
  H   H1733     1.0  0.24061  0.95397  0.48306  1.0000
  H   H1734     1.0  0.21659  0.77898  0.69383  1.0000
  C   C993      1.0  0.07052  0.89706  0.47730  1.0000
  H   H1735     1.0  0.16423  0.73959  0.70177  1.0000
  H   H1736     1.0  0.17908  0.72441  0.68725  1.0000
  C   C994      1.0  0.20272  0.95834  0.60656  1.0000
  H   H1737     1.0  0.31656  0.61617  0.60048  1.0000
  H   H1738     1.0  0.13013  0.50446  0.51197  1.0000
  H   H1739     1.0  0.00258  0.97868  0.49116  1.0000
  H   H1740     1.0  0.29630  0.85071  0.67384  1.0000
  C   C995      1.0  0.28227  0.82274  0.60214  1.0000
  H   H1741     1.0  0.10384  0.65403  0.71632  1.0000
  C   C996      1.0  0.30274  0.60885  0.58068  1.0000
  H   H1742     1.0  0.08412  0.94449  0.51780  1.0000
  H   H1743     1.0  0.05732  0.82000  0.47999  1.0000
  H   H1744     1.0  0.24149  0.79369  0.70379  1.0000
  H   H1745     1.0  0.15091  0.74602  0.67574  1.0000
  H   H1746     1.0  0.15774  0.76868  0.68092  1.0000
  H   H1747     1.0  0.17414  0.75506  0.66603  1.0000
  C   C997      1.0  0.10354  0.57719  0.51664  1.0000
  H   H1748     1.0  0.12573  0.73071  0.54930  1.0000
  H   H1749     1.0  0.10420  0.71611  0.56738  1.0000
  H   H1750     1.0  0.06526  0.88238  0.47925  1.0000
  H   H1751     1.0  0.10613  0.74824  0.62885  1.0000
  H   H1752     1.0  0.25921  0.64590  0.62547  1.0000
  H   H1753     1.0  0.09848  0.50123  0.54221  1.0000
  H   H1754     1.0  0.05873  0.72589  0.57426  1.0000
  H   H1755     1.0  0.30072  0.83612  0.58142  1.0000
  Fe  Fe114     1.0  0.98987  0.61244  0.48063  1.0000
  H   H1756     1.0  0.28986  0.55758  0.62134  1.0000
  C   C998      1.0  0.27656  0.59200  0.60000  1.0000
  C   C999      1.0  0.25189  0.65267  0.61474  1.0000
  H   H1757     1.0  0.07328  0.72821  0.55450  1.0000
  H   H1758     1.0  0.12070  0.75930  0.56763  1.0000
  H   H1759     1.0  0.10130  0.75769  0.59275  1.0000
  H   H1760     1.0  0.14892  0.66131  0.58109  1.0000
  H   H1761     1.0  0.09128  0.71549  0.58699  1.0000
  H   H1762     1.0  0.07720  0.56564  0.48218  1.0000
  H   H1763     1.0  0.22140  0.93816  0.53854  1.0000
  H   H1764     1.0  0.05255  0.96902  0.47709  1.0000
  C   C1000     1.0  0.20561  0.57189  0.69089  1.0000
  H   H1765     1.0  0.16325  0.52414  0.53543  1.0000
  S   S222      1.0  0.99223  0.57818  0.48306  1.0000
  C   C1001     1.0  0.09954  0.72540  0.57726  1.0000
  H   H1766     1.0  0.06175  0.64258  0.55220  1.0000
  H   H1767     1.0  0.24670  0.67148  0.71098  1.0000
  S   S223      1.0  0.11117  0.53400  0.47709  1.0000
  H   H1768     1.0  0.15699  0.52145  0.51185  1.0000
  H   H1769     1.0  0.27701  0.82490  0.61480  1.0000
  C   C1002     1.0  0.16017  0.54042  0.55525  1.0000
  N   N52       1.0  0.31052  0.86124  0.69133  1.0000
  H   H1770     1.0  0.23614  0.73876  0.71177  1.0000
  C   C1003     1.0  0.12977  0.74397  0.57033  1.0000
  H   H1771     1.0  0.07619  0.75205  0.58148  1.0000
  H   H1772     1.0  0.05567  0.74960  0.56099  1.0000
  H   H1773     1.0  0.14340  0.74698  0.57479  1.0000
  H   H1774     1.0  0.13662  0.69549  0.56766  1.0000
  C   C1004     1.0  0.11642  0.53260  0.52164  1.0000
  C   C1005     1.0  0.31956  0.60546  0.59158  1.0000
  H   H1775     1.0  0.23549  0.65773  0.61869  1.0000
  H   H1776     1.0  0.14545  0.53496  0.49541  1.0000
  H   H1777     1.0  0.02785  0.60196  0.61422  1.0000
  H   H1778     1.0  0.26702  0.87198  0.68811  1.0000
  C   C1006     1.0  0.10545  0.49758  0.53017  1.0000
  C   C1007     1.0  0.02058  0.59779  0.60474  1.0000
  H   H1779     1.0  0.26006  0.84164  0.67759  1.0000
  H   H1780     1.0  0.00029  0.75612  0.50033  1.0000
  C   C1008     1.0  0.16785  0.64688  0.71935  1.0000
  H   H1781     1.0  0.10573  0.58197  0.52793  1.0000
  S   S224      1.0  0.00587  0.62917  0.49473  1.0000
  H   H1782     1.0  0.10656  0.53540  0.51200  1.0000
  H   H1783     1.0  0.25250  0.61546  0.54727  1.0000
  C   C1009     1.0  0.12338  0.50923  0.52372  1.0000
  H   H1784     1.0  0.21937  0.67401  0.71593  1.0000
  C   C1010     1.0  0.31133  0.85595  0.70903  1.0000
  H   H1785     1.0  0.29014  0.80688  0.60155  1.0000
  S   S225      1.0  0.11804  0.98046  0.47900  1.0000
  C   C1011     1.0  0.30139  0.89203  0.66990  1.0000
  H   H1786     1.0  0.28542  0.62815  0.60706  1.0000
  H   H1787     1.0  0.20955  0.94488  0.58446  1.0000
  S   S226      1.0  0.29633  0.97175  0.57580  1.0000
  C   C1012     1.0  0.26746  0.61461  0.57583  1.0000
  C   C1013     1.0  0.27669  0.63004  0.59692  1.0000
  C   C1014     1.0  0.31554  0.83578  0.60264  1.0000
  C   C1015     1.0  0.25404  0.63699  0.60331  1.0000
  H   H1788     1.0  0.02608  0.80468  0.47996  1.0000
  N   N53       1.0  0.03239  0.97794  0.49791  1.0000
  H   H1789     1.0  0.20724  0.59067  0.70897  1.0000
  C   C1016     1.0  0.28030  0.59053  0.61754  1.0000
  H   H1790     1.0  0.32069  0.81924  0.60595  1.0000
  H   H1791     1.0  0.30408  0.73036  0.70837  1.0000
  H   H1792     1.0  0.31302  0.83915  0.71263  1.0000
  H   H1793     1.0  0.31385  0.87506  0.59862  1.0000
  C   C1017     1.0  0.18755  0.48655  0.55415  1.0000
  N   N54       1.0  0.28092  0.61115  0.58878  1.0000
  H   H1794     1.0  0.01525  0.60919  0.53633  1.0000
  H   H1795     1.0  0.27818  0.74302  0.70821  1.0000
  H   H1796     1.0  0.24664  0.62387  0.60967  1.0000
  C   C1018     1.0  0.01377  0.74748  0.49375  1.0000
  C   C1019     1.0  0.20534  0.49406  0.52751  1.0000
  H   H1797     1.0  0.25115  0.61616  0.58116  1.0000
  H   H1798     1.0  0.26901  0.60162  0.62386  1.0000
  C   C1020     1.0  0.98871  0.64593  0.57202  1.0000
  H   H1799     1.0  0.16450  0.56455  0.49555  1.0000
  H   H1800     1.0  0.18675  0.95541  0.60850  1.0000
  H   H1801     1.0  0.25637  0.58823  0.54710  1.0000
  C   C1021     1.0  0.18597  0.53825  0.49081  1.0000
  C   C1022     1.0  0.08457  0.93499  0.47242  1.0000
  C   C1023     1.0  0.30634  0.79902  0.71842  1.0000
  Fe  Fe115     1.0  0.15113  0.98455  0.47326  1.0000
  H   H1802     1.0  0.99189  0.77093  0.47479  1.0000
  H   H1803     1.0  0.13485  0.97902  0.60412  1.0000
  H   H1804     1.0  0.21319  0.77361  0.71537  1.0000
  C   C1024     1.0  0.06297  0.97272  0.51383  1.0000
  N   N55       1.0  0.00229  0.62813  0.56526  1.0000
  H   H1805     1.0  0.99659  0.65283  0.57968  1.0000
  C   C1025     1.0  0.16315  0.68935  0.71584  1.0000
  H   H1806     1.0  0.19283  0.48508  0.50851  1.0000
  H   H1807     1.0  0.25001  0.96248  0.50440  1.0000
  H   H1808     1.0  0.07364  0.97848  0.50343  1.0000
  C   C1026     1.0  0.99045  0.62054  0.55450  1.0000
  H   H1809     1.0  0.99319  0.70484  0.47545  1.0000
  H   H1810     1.0  0.00571  0.59299  0.61027  1.0000
  H   H1811     1.0  0.99753  0.58515  0.52755  1.0000
  H   H1812     1.0  0.19370  0.56913  0.71631  1.0000
  N   N56       1.0  0.02310  0.77719  0.47107  1.0000
  Fe  Fe116     1.0  0.99009  0.85755  0.47394  1.0000
  H   H1813     1.0  0.99461  0.60306  0.58355  1.0000
  H   H1814     1.0  0.27380  0.97733  0.51591  1.0000
  C   C1027     1.0  0.25317  0.97798  0.49881  1.0000
  H   H1815     1.0  0.11304  0.69688  0.71807  1.0000
  H   H1816     1.0  0.20855  0.95521  0.61822  1.0000
  H   H1817     1.0  0.16940  0.97766  0.58818  1.0000
  H   H1818     1.0  0.98845  0.94929  0.48373  1.0000
  H   H1819     1.0  0.32093  0.58955  0.59790  1.0000
  H   H1820     1.0  0.22090  0.98210  0.59796  1.0000
  C   C1028     1.0  0.20470  0.98053  0.59858  1.0000
  H   H1821     1.0  0.02151  0.98439  0.53044  1.0000
  C   C1029     1.0  0.98854  0.59667  0.53488  1.0000
  H   H1822     1.0  0.08991  0.94962  0.47043  1.0000
  H   H1823     1.0  0.20250  0.52182  0.72020  1.0000
  H   H1824     1.0  0.08154  0.80854  0.47056  1.0000
  C   C1030     1.0  0.05661  0.79187  0.47064  1.0000
  H   H1825     1.0  0.04494  0.57579  0.47052  1.0000
  H   H1826     1.0  0.23049  0.48946  0.76583  1.0000
  S   S227      1.0  0.24020  0.48651  0.88162  1.0000
  C   C1031     1.0  0.04458  0.89218  0.96280  1.0000
  H   H1827     1.0  0.17609  0.73215  0.75272  1.0000
  H   H1828     1.0  0.29454  0.93242  0.92002  1.0000
  Fe  Fe117     1.0  0.20695  0.95698  0.86570  1.0000
  S   S228      1.0  0.21863  0.96282  0.83957  1.0000
  S   S229      1.0  0.17240  0.95883  0.87097  1.0000
  Fe  Fe118     1.0  0.24982  0.95371  0.87484  1.0000
  S   S230      1.0  0.26441  0.95890  0.84911  1.0000
  S   S231      1.0  0.26955  0.94432  0.89501  1.0000
  H   H1829     1.0  0.07756  0.73839  0.83056  1.0000
  Fe  Fe119     1.0  0.24403  0.93756  0.84489  1.0000
  S   S232      1.0  0.25156  0.91560  0.82663  1.0000
  H   H1830     1.0  0.08362  0.76285  0.83046  1.0000
  S   S233      1.0  0.23127  0.93028  0.87068  1.0000
  Fe  Fe120     1.0  0.04615  0.91463  0.89206  1.0000
  S   S234      1.0  0.06920  0.89359  0.87798  1.0000
  S   S235      1.0  0.03367  0.94584  0.87991  1.0000
  Fe  Fe121     1.0  0.04787  0.88507  0.92280  1.0000
  S   S236      1.0  0.07073  0.86137  0.91110  1.0000
  S   S237      1.0  0.03368  0.88237  0.94889  1.0000
  Fe  Fe122     1.0  0.08644  0.88821  0.89890  1.0000
  S   S238      1.0  0.12085  0.88603  0.89789  1.0000
  Fe  Fe123     1.0  0.05164  0.86845  0.89101  1.0000
  S   S239      1.0  0.04423  0.84794  0.87446  1.0000
  S   S240      1.0  0.06475  0.91113  0.91195  1.0000
  S   S241      1.0  0.02746  0.89021  0.90368  1.0000
  Fe  Fe124     1.0  0.20182  0.50322  0.83327  1.0000
  S   S242      1.0  0.19162  0.53098  0.81563  1.0000
  Fe  Fe125     1.0  0.17359  0.67953  0.77175  1.0000
  S   S243      1.0  0.16139  0.70404  0.78726  1.0000
  H   H1831     1.0  0.04223  0.74809  0.83922  1.0000
  Fe  Fe126     1.0  0.19183  0.65099  0.79897  1.0000
  S   S244      1.0  0.18139  0.67403  0.81605  1.0000
  S   S245      1.0  0.21041  0.62183  0.80975  1.0000
  Fe  Fe127     1.0  0.15179  0.67895  0.80608  1.0000
  S   S246      1.0  0.12327  0.67884  0.82447  1.0000
  Fe  Fe128     1.0  0.19203  0.69719  0.79572  1.0000
  S   S247      1.0  0.20618  0.72571  0.79551  1.0000
  S   S248      1.0  0.16155  0.65459  0.79009  1.0000
  S   S249      1.0  0.20477  0.67401  0.77923  1.0000
  H   H1832     1.0  0.28891  0.76570  0.75492  1.0000
  H   H1833     1.0  0.05361  0.76218  0.81100  1.0000
  H   H1834     1.0  0.02581  0.97066  0.93034  1.0000
  Fe  Fe129     1.0  0.00864  0.72670  0.83667  1.0000
  S   S250      1.0  0.03334  0.72190  0.81543  1.0000
  S   S251      1.0  0.01207  0.71430  0.86228  1.0000
  Fe  Fe130     1.0  0.30347  0.76194  0.81336  1.0000
  S   S252      1.0  0.28666  0.79340  0.80738  1.0000
  S   S253      1.0  0.28958  0.73245  0.81870  1.0000
  C   C1032     1.0  0.22004  0.87472  0.88510  1.0000
  S   S254      1.0  0.29436  0.82394  0.84182  1.0000
  H   H1835     1.0  0.11997  0.64579  0.74612  1.0000
  C   C1033     1.0  0.09850  0.69115  0.82160  1.0000
  C   C1034     1.0  0.09461  0.70427  0.80765  1.0000
  C   C1035     1.0  0.07457  0.71372  0.80592  1.0000
  C   C1036     1.0  0.05835  0.71021  0.81816  1.0000
  C   C1037     1.0  0.06230  0.69716  0.83211  1.0000
  C   C1038     1.0  0.08229  0.68772  0.83384  1.0000
  H   H1836     1.0  0.10706  0.70720  0.79829  1.0000
  H   H1837     1.0  0.07160  0.72390  0.79512  1.0000
  H   H1838     1.0  0.04990  0.69413  0.84151  1.0000
  H   H1839     1.0  0.08515  0.67755  0.84466  1.0000
  C   C1039     1.0  0.22910  0.72716  0.80252  1.0000
  C   C1040     1.0  0.24061  0.71002  0.81006  1.0000
  C   C1041     1.0  0.25901  0.71190  0.81511  1.0000
  C   C1042     1.0  0.26606  0.73087  0.81266  1.0000
  C   C1043     1.0  0.25445  0.74801  0.80523  1.0000
  C   C1044     1.0  0.23605  0.74615  0.80025  1.0000
  H   H1840     1.0  0.23536  0.69535  0.81197  1.0000
  H   H1841     1.0  0.26787  0.69858  0.82089  1.0000
  H   H1842     1.0  0.25962  0.76271  0.80338  1.0000
  H   H1843     1.0  0.22713  0.75953  0.79460  1.0000
  C   C1045     1.0  0.19616  0.55635  0.81470  1.0000
  C   C1046     1.0  0.20810  0.56151  0.82481  1.0000
  C   C1047     1.0  0.21203  0.58173  0.82332  1.0000
  C   C1048     1.0  0.20395  0.59697  0.81178  1.0000
  C   C1049     1.0  0.19160  0.59192  0.80190  1.0000
  C   C1050     1.0  0.18781  0.57166  0.80332  1.0000
  H   H1844     1.0  0.21448  0.54975  0.83354  1.0000
  H   H1845     1.0  0.22147  0.58564  0.83104  1.0000
  H   H1846     1.0  0.18535  0.60349  0.79293  1.0000
  H   H1847     1.0  0.17853  0.56776  0.79545  1.0000
  C   C1051     1.0  0.10999  0.92635  0.93206  1.0000
  C   C1052     1.0  0.26414  0.96854  0.96384  1.0000
  H   H1848     1.0  0.21420  0.88958  0.88950  1.0000
  C   C1053     1.0  0.03467  0.82421  0.87779  1.0000
  C   C1054     1.0  0.02828  0.81758  0.86495  1.0000
  C   C1055     1.0  0.02139  0.79851  0.86672  1.0000
  C   C1056     1.0  0.02126  0.78557  0.88129  1.0000
  C   C1057     1.0  0.02774  0.79213  0.89411  1.0000
  C   C1058     1.0  0.03421  0.81141  0.89245  1.0000
  H   H1849     1.0  0.00935  0.93988  0.91123  1.0000
  C   C1059     1.0  0.99003  0.57509  0.92408  1.0000
  H   H1850     1.0  0.20695  0.97389  0.80440  1.0000
  H   H1851     1.0  0.03919  0.81620  0.90240  1.0000
  C   C1060     1.0  0.26342  0.89016  0.83106  1.0000
  C   C1061     1.0  0.26535  0.88123  0.84674  1.0000
  C   C1062     1.0  0.27476  0.86086  0.84987  1.0000
  C   C1063     1.0  0.28241  0.84935  0.83734  1.0000
  C   C1064     1.0  0.28039  0.85828  0.82166  1.0000
  C   C1065     1.0  0.27085  0.87859  0.81855  1.0000
  H   H1852     1.0  0.25948  0.88999  0.85642  1.0000
  H   H1853     1.0  0.27606  0.85389  0.86202  1.0000
  H   H1854     1.0  0.28619  0.84952  0.81194  1.0000
  H   H1855     1.0  0.26935  0.88540  0.80638  1.0000
  C   C1066     1.0  0.15829  0.93852  0.87892  1.0000
  C   C1067     1.0  0.13745  0.94123  0.87752  1.0000
  C   C1068     1.0  0.12569  0.92544  0.88351  1.0000
  C   C1069     1.0  0.13467  0.90677  0.89102  1.0000
  C   C1070     1.0  0.15541  0.90420  0.89274  1.0000
  C   C1071     1.0  0.16718  0.91999  0.88672  1.0000
  H   H1856     1.0  0.13039  0.95557  0.87162  1.0000
  H   H1857     1.0  0.10975  0.92762  0.88212  1.0000
  H   H1858     1.0  0.16240  0.88989  0.89872  1.0000
  H   H1859     1.0  0.18305  0.91792  0.88825  1.0000
  H   H1860     1.0  0.11677  0.74697  0.74898  1.0000
  H   H1861     1.0  0.12386  0.70447  0.73995  1.0000
  C   C1072     1.0  0.27801  0.75533  0.76134  1.0000
  S   S255      1.0  0.01409  0.76076  0.88386  1.0000
  H   H1862     1.0  0.07368  0.89371  0.94825  1.0000
  H   H1863     1.0  0.10589  0.72734  0.86454  1.0000
  H   H1864     1.0  0.28482  0.76475  0.72820  1.0000
  H   H1865     1.0  0.28968  0.71799  0.73665  1.0000
  C   C1073     1.0  0.27926  0.95909  0.90669  1.0000
  C   C1074     1.0  0.29140  0.94891  0.91833  1.0000
  C   C1075     1.0  0.29954  0.95987  0.92785  1.0000
  H   H1866     1.0  0.15022  0.96552  0.77068  1.0000
  H   H1867     1.0  0.11523  0.74993  0.83049  1.0000
  H   H1868     1.0  0.15075  0.73663  0.83375  1.0000
  H   H1869     1.0  0.12518  0.70492  0.76944  1.0000
  C   C1076     1.0  0.01286  0.96112  0.88958  1.0000
  H   H1870     1.0  0.18919  0.75401  0.75096  1.0000
  H   H1871     1.0  0.27063  0.72138  0.78040  1.0000
  H   H1872     1.0  0.13990  0.61312  0.80357  1.0000
  H   H1873     1.0  0.28064  0.49941  0.82244  1.0000
  H   H1874     1.0  0.30606  0.88152  0.89917  1.0000
  C   C1077     1.0  0.11073  0.68121  0.72390  1.0000
  C   C1078     1.0  0.07443  0.94693  0.93497  1.0000
  H   H1875     1.0  0.08775  0.66765  0.74115  1.0000
  H   H1876     1.0  0.03208  0.77826  0.82008  1.0000
  H   H1877     1.0  0.10374  0.91180  0.93329  1.0000
  H   H1878     1.0  0.14751  0.59032  0.81675  1.0000
  C   C1079     1.0  0.11855  0.74337  0.84266  1.0000
  H   H1879     1.0  0.99917  0.95320  0.95000  1.0000
  H   H1880     1.0  0.09902  0.71893  0.74200  1.0000
  C   C1080     1.0  0.27644  0.69707  0.76545  1.0000
  H   H1881     1.0  0.09722  0.78157  0.84455  1.0000
  H   H1882     1.0  0.18749  0.75593  0.72191  1.0000
  H   H1883     1.0  0.11241  0.92905  0.94398  1.0000
  N   N57       1.0  0.08001  0.74480  0.85398  1.0000
  H   H1884     1.0  0.29269  0.69116  0.76628  1.0000
  C   C1081     1.0  0.06225  0.97039  0.91150  1.0000
  C   C1082     1.0  0.26372  0.68393  0.77818  1.0000
  H   H1885     1.0  0.25284  0.78654  0.77579  1.0000
  H   H1886     1.0  0.27317  0.69489  0.75364  1.0000
  H   H1887     1.0  0.19872  0.72987  0.76179  1.0000
  C   C1083     1.0  0.14018  0.65130  0.86882  1.0000
  H   H1888     1.0  0.26031  0.97415  0.95161  1.0000
  H   H1889     1.0  0.03708  0.94554  0.92696  1.0000
  C   C1084     1.0  0.27816  0.88833  0.88859  1.0000
  C   C1085     1.0  0.04849  0.77238  0.82030  1.0000
  H   H1890     1.0  0.31781  0.52307  0.88884  1.0000
  C   C1086     1.0  0.15346  0.97121  0.78129  1.0000
  H   H1891     1.0  0.07699  0.94751  0.94738  1.0000
  Fe  Fe131     1.0  0.31271  0.79723  0.78747  1.0000
  C   C1087     1.0  0.21118  0.97510  0.79133  1.0000
  H   H1892     1.0  0.06122  0.95704  0.90563  1.0000
  H   H1893     1.0  0.08879  0.90608  0.96873  1.0000
  H   H1894     1.0  0.19879  0.53895  0.87749  1.0000
  C   C1088     1.0  0.16948  0.65667  0.73230  1.0000
  C   C1089     1.0  0.13007  0.67351  0.86565  1.0000
  C   C1090     1.0  0.05277  0.70871  0.88859  1.0000
  H   H1895     1.0  0.21889  0.52622  0.88856  1.0000
  H   H1896     1.0  0.08103  0.69390  0.73481  1.0000
  C   C1091     1.0  0.08346  0.78317  0.85353  1.0000
  C   C1092     1.0  0.07423  0.75153  0.83745  1.0000
  H   H1897     1.0  0.02557  0.49478  0.92239  1.0000
  H   H1898     1.0  0.24457  0.75677  0.76561  1.0000
  H   H1899     1.0  0.99211  0.60706  0.91980  1.0000
  C   C1093     1.0  0.28282  0.73329  0.73992  1.0000
  C   C1094     1.0  0.30659  0.72752  0.75955  1.0000
  H   H1900     1.0  0.31373  0.85984  0.74037  1.0000
  H   H1901     1.0  0.12139  0.75559  0.84889  1.0000
  C   C1095     1.0  0.29317  0.74915  0.72736  1.0000
  H   H1902     1.0  0.16180  0.95831  0.78865  1.0000
  H   H1903     1.0  0.31586  0.73959  0.75356  1.0000
  C   C1096     1.0  0.07885  0.76239  0.86323  1.0000
  S   S256      1.0  0.30188  0.81136  0.76371  1.0000
  C   C1097     1.0  0.28970  0.49441  0.83247  1.0000
  C   C1098     1.0  0.05879  0.98262  0.93795  1.0000
  H   H1904     1.0  0.12495  0.92475  0.92428  1.0000
  C   C1099     1.0  0.05160  0.76064  0.83678  1.0000
  H   H1905     1.0  0.13997  0.68241  0.85641  1.0000
  N   N58       1.0  0.28457  0.73403  0.75710  1.0000
  H   H1906     1.0  0.04319  0.93876  0.95684  1.0000
  C   C1100     1.0  0.29919  0.80618  0.73314  1.0000
  H   H1907     1.0  0.30914  0.74903  0.72906  1.0000
  H   H1908     1.0  0.02882  0.96358  0.95875  1.0000
  N   N59       1.0  0.26750  0.54202  0.85441  1.0000
  C   C1101     1.0  0.28664  0.54564  0.85982  1.0000
  C   C1102     1.0  0.26146  0.55919  0.84154  1.0000
  C   C1103     1.0  0.25073  0.54294  0.86852  1.0000
  C   C1104     1.0  0.26958  0.52155  0.84865  1.0000
  C   C1105     1.0  0.29096  0.51255  0.84074  1.0000
  C   C1106     1.0  0.29255  0.53177  0.87521  1.0000
  C   C1107     1.0  0.22898  0.54234  0.86504  1.0000
  C   C1108     1.0  0.27704  0.56225  0.82624  1.0000
  C   C1109     1.0  0.26956  0.58117  0.81494  1.0000
  S   S257      1.0  0.32095  0.77157  0.83036  1.0000
  C   C1110     1.0  0.03149  0.95062  0.95178  1.0000
  H   H1909     1.0  0.28474  0.81607  0.73467  1.0000
  H   H1910     1.0  0.28506  0.56172  0.86215  1.0000
  H   H1911     1.0  0.29989  0.54400  0.85033  1.0000
  H   H1912     1.0  0.24756  0.55671  0.83722  1.0000
  H   H1913     1.0  0.25755  0.57392  0.84651  1.0000
  H   H1914     1.0  0.25012  0.55700  0.87401  1.0000
  H   H1915     1.0  0.25392  0.52983  0.87804  1.0000
  H   H1916     1.0  0.26528  0.50964  0.85869  1.0000
  H   H1917     1.0  0.25846  0.52210  0.84026  1.0000
  H   H1918     1.0  0.30120  0.50698  0.84993  1.0000
  H   H1919     1.0  0.29828  0.52385  0.83177  1.0000
  H   H1920     1.0  0.28260  0.53703  0.88588  1.0000
  H   H1921     1.0  0.29069  0.51578  0.87502  1.0000
  H   H1922     1.0  0.22883  0.52931  0.85863  1.0000
  H   H1923     1.0  0.22321  0.55679  0.85777  1.0000
  H   H1924     1.0  0.29201  0.56434  0.82895  1.0000
  H   H1925     1.0  0.27893  0.54903  0.81964  1.0000
  H   H1926     1.0  0.28114  0.58329  0.80420  1.0000
  H   H1927     1.0  0.25517  0.57939  0.81094  1.0000
  H   H1928     1.0  0.26697  0.59510  0.82086  1.0000
  H   H1929     1.0  0.31710  0.54813  0.87734  1.0000
  H   H1930     1.0  0.23591  0.79398  0.76095  1.0000
  H   H1931     1.0  0.26650  0.66795  0.77559  1.0000
  C   C1111     1.0  0.13838  0.72844  0.84070  1.0000
  H   H1932     1.0  0.02465  0.83727  0.96018  1.0000
  C   C1112     1.0  0.28339  0.48923  0.90932  1.0000
  S   S258      1.0  0.19420  0.49932  0.85992  1.0000
  C   C1113     1.0  0.01166  0.94160  0.95430  1.0000
  H   H1933     1.0  0.25500  0.72449  0.76541  1.0000
  H   H1934     1.0  0.12753  0.68054  0.87678  1.0000
  H   H1935     1.0  0.21249  0.55372  0.88667  1.0000
  H   H1936     1.0  0.20676  0.71397  0.73753  1.0000
  N   N60       1.0  0.10042  0.68742  0.75333  1.0000
  H   H1937     1.0  0.00151  0.52661  0.92183  1.0000
  H   H1938     1.0  0.02860  0.82732  0.85356  1.0000
  H   H1939     1.0  0.13859  0.63410  0.82513  1.0000
  H   H1940     1.0  0.16996  0.58502  0.89745  1.0000
  C   C1114     1.0  0.26480  0.49047  0.90334  1.0000
  H   H1941     1.0  0.14469  0.63600  0.76553  1.0000
  H   H1942     1.0  0.06333  0.76580  0.87004  1.0000
  H   H1943     1.0  0.07249  0.73113  0.88714  1.0000
  H   H1944     1.0  0.22605  0.51845  0.72832  1.0000
  H   H1945     1.0  0.23466  0.94862  0.79332  1.0000
  C   C1115     1.0  0.07015  0.71994  0.87970  1.0000
  H   H1946     1.0  0.29443  0.90713  0.89771  1.0000
  H   H1947     1.0  0.12543  0.67318  0.72743  1.0000
  H   H1948     1.0  0.11514  0.67436  0.86151  1.0000
  H   H1949     1.0  0.04967  0.73925  0.86492  1.0000
  C   C1116     1.0  0.30263  0.90805  0.86180  1.0000
  H   H1950     1.0  0.25437  0.76678  0.74561  1.0000
  H   H1951     1.0  0.05002  0.69714  0.88164  1.0000
  H   H1952     1.0  0.04588  0.77102  0.84583  1.0000
  H   H1953     1.0  0.24333  0.97235  0.79350  1.0000
  S   S259      1.0  0.99752  0.75928  0.84094  1.0000
  H   H1954     1.0  0.28097  0.96531  0.96329  1.0000
  C   C1117     1.0  0.25162  0.78703  0.76297  1.0000
  H   H1955     1.0  0.30505  0.73646  0.78336  1.0000
  H   H1956     1.0  0.28024  0.87565  0.88149  1.0000
  C   C1118     1.0  0.19123  0.73719  0.75125  1.0000
  H   H1957     1.0  0.02772  0.78226  0.90544  1.0000
  H   H1958     1.0  0.23848  0.96593  0.77496  1.0000
  C   C1119     1.0  0.06538  0.73071  0.86300  1.0000
  C   C1120     1.0  0.10957  0.70699  0.74847  1.0000
  C   C1121     1.0  0.09391  0.68231  0.73863  1.0000
  H   H1959     1.0  0.01631  0.79382  0.85678  1.0000
  H   H1960     1.0  0.04435  0.81697  0.95457  1.0000
  H   H1961     1.0  0.31982  0.93077  0.84659  1.0000
  C   C1122     1.0  0.19388  0.73966  0.72116  1.0000
  H   H1962     1.0  0.20131  0.49739  0.74500  1.0000
  H   H1963     1.0  0.12275  0.60530  0.82115  1.0000
  H   H1964     1.0  0.29374  0.89693  0.85913  1.0000
  H   H1965     1.0  0.17060  0.56045  0.89142  1.0000
  H   H1966     1.0  0.18032  0.73177  0.72264  1.0000
  H   H1967     1.0  0.06445  0.71861  0.85585  1.0000
  H   H1968     1.0  0.18065  0.98255  0.76874  1.0000
  H   H1969     1.0  0.08912  0.75803  0.87255  1.0000
  C   C1123     1.0  0.21393  0.54021  0.88043  1.0000
  Fe  Fe132     1.0  0.99988  0.74674  0.86657  1.0000
  H   H1970     1.0  0.08774  0.81318  0.85755  1.0000
  C   C1124     1.0  0.16713  0.67799  0.73052  1.0000
  H   H1971     1.0  0.03855  0.71964  0.89070  1.0000
  H   H1972     1.0  0.00682  0.57088  0.92319  1.0000
  H   H1973     1.0  0.30932  0.85749  0.87455  1.0000
  H   H1974     1.0  0.30884  0.95179  0.93672  1.0000
  C   C1125     1.0  0.06463  0.89628  0.95959  1.0000
  H   H1975     1.0  0.27858  0.75536  0.77421  1.0000
  C   C1126     1.0  0.09561  0.94409  0.92449  1.0000
  H   H1976     1.0  0.12990  0.64320  0.87832  1.0000
  H   H1977     1.0  0.29107  0.92139  0.86479  1.0000
  H   H1978     1.0  0.13664  0.71607  0.83412  1.0000
  C   C1127     1.0  0.01150  0.49495  0.93104  1.0000
  H   H1979     1.0  0.15015  0.65162  0.84338  1.0000
  C   C1128     1.0  0.26585  0.88199  0.90476  1.0000
  H   H1980     1.0  0.26887  0.90172  0.88247  1.0000
  H   H1981     1.0  0.10296  0.95799  0.92260  1.0000
  H   H1982     1.0  0.26277  0.89469  0.91206  1.0000
  H   H1983     1.0  0.27415  0.86828  0.91132  1.0000
  H   H1984     1.0  0.29053  0.92686  0.83287  1.0000
  H   H1985     1.0  0.15451  0.65122  0.87352  1.0000
  H   H1986     1.0  0.01360  0.92821  0.94783  1.0000
  C   C1129     1.0  0.20443  0.73090  0.73608  1.0000
  C   C1130     1.0  0.99563  0.51176  0.92419  1.0000
  H   H1987     1.0  0.22087  0.49159  0.79474  1.0000
  N   N61       1.0  0.19223  0.88390  0.84738  1.0000
  C   C1131     1.0  0.20467  0.88722  0.85955  1.0000
  C   C1132     1.0  0.19439  0.90056  0.83334  1.0000
  C   C1133     1.0  0.17034  0.88438  0.85507  1.0000
  C   C1134     1.0  0.19958  0.86353  0.84157  1.0000
  C   C1135     1.0  0.22273  0.85905  0.83550  1.0000
  C   C1136     1.0  0.20615  0.87026  0.87416  1.0000
  C   C1137     1.0  0.15477  0.88344  0.84386  1.0000
  C   C1138     1.0  0.18481  0.92249  0.83657  1.0000
  C   C1139     1.0  0.18751  0.93778  0.82136  1.0000
  C   C1140     1.0  0.22841  0.83802  0.83005  1.0000
  C   C1141     1.0  0.13310  0.88527  0.85285  1.0000
  H   H1988     1.0  0.19821  0.90164  0.86444  1.0000
  H   H1989     1.0  0.22036  0.88955  0.85383  1.0000
  H   H1990     1.0  0.21078  0.90124  0.82882  1.0000
  H   H1991     1.0  0.18800  0.89710  0.82311  1.0000
  H   H1992     1.0  0.16513  0.89818  0.86107  1.0000
  H   H1993     1.0  0.16879  0.87130  0.86479  1.0000
  H   H1994     1.0  0.19550  0.85081  0.85103  1.0000
  H   H1995     1.0  0.19161  0.86223  0.83150  1.0000
  H   H1996     1.0  0.23197  0.85918  0.84501  1.0000
  H   H1997     1.0  0.22725  0.87050  0.82521  1.0000
  H   H1998     1.0  0.19097  0.86929  0.88134  1.0000
  H   H1999     1.0  0.21242  0.85510  0.87051  1.0000
  H   H2000     1.0  0.15800  0.86869  0.83906  1.0000
  H   H2001     1.0  0.15508  0.89602  0.83370  1.0000
  H   H2002     1.0  0.16826  0.92361  0.84087  1.0000
  H   H2003     1.0  0.19222  0.92740  0.84561  1.0000
  H   H2004     1.0  0.20396  0.93753  0.81670  1.0000
  H   H2005     1.0  0.17955  0.93412  0.81210  1.0000
  H   H2006     1.0  0.18098  0.95338  0.82407  1.0000
  H   H2007     1.0  0.22018  0.83711  0.82005  1.0000
  H   H2008     1.0  0.24503  0.83522  0.82583  1.0000
  H   H2009     1.0  0.22480  0.82585  0.84009  1.0000
  H   H2010     1.0  0.12873  0.90024  0.85733  1.0000
  H   H2011     1.0  0.12221  0.88409  0.84476  1.0000
  H   H2012     1.0  0.13176  0.87287  0.86315  1.0000
  C   C1142     1.0  0.08183  0.69165  0.76551  1.0000
  C   C1143     1.0  0.11603  0.67093  0.76043  1.0000
  C   C1144     1.0  0.11483  0.64851  0.75866  1.0000
  C   C1145     1.0  0.06919  0.67403  0.77175  1.0000
  C   C1146     1.0  0.04978  0.68122  0.78262  1.0000
  C   C1147     1.0  0.12860  0.63341  0.76903  1.0000
  H   H2013     1.0  0.08620  0.69557  0.77642  1.0000
  H   H2014     1.0  0.07143  0.70522  0.76067  1.0000
  H   H2015     1.0  0.11554  0.67187  0.77334  1.0000
  H   H2016     1.0  0.21921  0.73631  0.73543  1.0000
  H   H2017     1.0  0.09923  0.64468  0.76199  1.0000
  H   H2018     1.0  0.10148  0.72231  0.76997  1.0000
  H   H2019     1.0  0.06448  0.66796  0.76192  1.0000
  H   H2020     1.0  0.07807  0.66157  0.77906  1.0000
  H   H2021     1.0  0.05356  0.68652  0.79321  1.0000
  H   H2022     1.0  0.04006  0.69386  0.77612  1.0000
  H   H2023     1.0  0.04091  0.66838  0.78691  1.0000
  H   H2024     1.0  0.12761  0.61755  0.76744  1.0000
  C   C1148     1.0  0.00544  0.98031  0.88165  1.0000
  H   H2025     1.0  0.14662  0.57665  0.89497  1.0000
  H   H2026     1.0  0.25103  0.87831  0.90300  1.0000
  Fe  Fe133     1.0  0.23779  0.98368  0.84569  1.0000
  H   H2027     1.0  0.28357  0.49495  0.92035  1.0000
  H   H2028     1.0  0.13172  0.67347  0.75498  1.0000
  H   H2029     1.0  0.21991  0.61495  0.85022  1.0000
  H   H2030     1.0  0.05671  0.70084  0.90035  1.0000
  H   H2031     1.0  0.26805  0.68389  0.79012  1.0000
  H   H2032     1.0  0.13109  0.74059  0.76558  1.0000
  H   H2033     1.0  0.99136  0.65393  0.86819  1.0000
  C   C1149     1.0  0.03796  0.95804  0.93380  1.0000
  H   H2034     1.0  0.22049  0.63771  0.85863  1.0000
  H   H2035     1.0  0.08397  0.70831  0.87855  1.0000
  C   C1150     1.0  0.10107  0.73249  0.85257  1.0000
  H   H2036     1.0  0.30310  0.90151  0.82971  1.0000
  C   C1151     1.0  0.08652  0.79782  0.86449  1.0000
  H   H2037     1.0  0.31573  0.86986  0.85437  1.0000
  C   C1152     1.0  0.27106  0.71996  0.76763  1.0000
  H   H2038     1.0  0.12378  0.63509  0.78182  1.0000
  H   H2039     1.0  0.14069  0.72994  0.74741  1.0000
  H   H2040     1.0  0.07047  0.79054  0.84713  1.0000
  H   H2041     1.0  0.22062  0.86254  0.89556  1.0000
  H   H2042     1.0  0.26241  0.79686  0.75569  1.0000
  H   H2043     1.0  0.24721  0.68976  0.77842  1.0000
  C   C1153     1.0  0.31075  0.80085  0.74584  1.0000
  H   H2044     1.0  0.13874  0.97672  0.78835  1.0000
  C   C1154     1.0  0.12665  0.73458  0.75556  1.0000
  Fe  Fe134     1.0  0.30622  0.80368  0.82242  1.0000
  N   N62       1.0  0.05874  0.96472  0.92945  1.0000
  C   C1155     1.0  0.23327  0.96497  0.78800  1.0000
  C   C1156     1.0  0.11531  0.71641  0.76214  1.0000
  H   H2045     1.0  0.99213  0.61636  0.87072  1.0000
  C   C1157     1.0  0.00386  0.95472  0.90508  1.0000
  C   C1158     1.0  0.30546  0.91691  0.83149  1.0000
  H   H2046     1.0  0.14295  0.72162  0.85252  1.0000
  S   S260      1.0  0.16837  0.69149  0.74619  1.0000
  H   H2047     1.0  0.05718  0.97776  0.95109  1.0000
  H   H2048     1.0  0.06866  0.93218  0.93593  1.0000
  H   H2049     1.0  0.25789  0.95406  0.96828  1.0000
  C   C1159     1.0  0.29878  0.89405  0.89079  1.0000
  H   H2050     1.0  0.21409  0.63990  0.83882  1.0000
  H   H2051     1.0  0.26656  0.73508  0.73817  1.0000
  C   C1160     1.0  0.25623  0.76553  0.75834  1.0000
  H   H2052     1.0  0.10091  0.71834  0.84738  1.0000
  H   H2053     1.0  0.17252  0.64778  0.74359  1.0000
  H   H2054     1.0  0.23572  0.87507  0.87866  1.0000
  H   H2055     1.0  0.10065  0.79222  0.86994  1.0000
  H   H2056     1.0  0.05702  0.78560  0.81752  1.0000
  H   H2057     1.0  0.07341  0.79938  0.87414  1.0000
  H   H2058     1.0  0.00733  0.93641  0.96721  1.0000
  N   N63       1.0  0.15657  0.61997  0.85394  1.0000
  C   C1161     1.0  0.15399  0.60817  0.87055  1.0000
  C   C1162     1.0  0.14369  0.64087  0.85352  1.0000
  C   C1163     1.0  0.14905  0.60824  0.84306  1.0000
  C   C1164     1.0  0.17856  0.62187  0.84772  1.0000
  C   C1165     1.0  0.19001  0.63162  0.85797  1.0000
  C   C1166     1.0  0.16564  0.58606  0.87265  1.0000
  C   C1167     1.0  0.14808  0.61886  0.82563  1.0000
  H   H2059     1.0  0.01463  0.49933  0.94223  1.0000
  C   C1168     1.0  0.21249  0.63094  0.85096  1.0000
  C   C1169     1.0  0.16301  0.57655  0.89020  1.0000
  C   C1170     1.0  0.13898  0.60606  0.81626  1.0000
  H   H2060     1.0  0.13752  0.60724  0.87463  1.0000
  H   H2061     1.0  0.15871  0.61623  0.87927  1.0000
  H   H2062     1.0  0.09409  0.94047  0.91261  1.0000
  H   H2063     1.0  0.12805  0.64020  0.85112  1.0000
  H   H2064     1.0  0.13354  0.60458  0.84818  1.0000
  H   H2065     1.0  0.15905  0.59335  0.84200  1.0000
  H   H2066     1.0  0.18737  0.60675  0.84556  1.0000
  H   H2067     1.0  0.17976  0.63143  0.83582  1.0000
  H   H2068     1.0  0.18935  0.62355  0.87036  1.0000
  H   H2069     1.0  0.18358  0.64794  0.85806  1.0000
  H   H2070     1.0  0.15970  0.57613  0.86594  1.0000
  H   H2071     1.0  0.18218  0.58577  0.86853  1.0000
  H   H2072     1.0  0.16352  0.62081  0.81937  1.0000
  H   H2073     1.0  0.19983  0.48539  0.72789  1.0000
  H   H2074     1.0  0.20173  0.96592  0.78684  1.0000
  H   H2075     1.0  0.30332  0.70999  0.78389  1.0000
  C   C1171     1.0  0.31075  0.72297  0.77715  1.0000
  H   H2076     1.0  0.25081  0.49711  0.90993  1.0000
  H   H2077     1.0  0.31371  0.92999  0.88053  1.0000
  H   H2078     1.0  0.31338  0.71381  0.75373  1.0000
  H   H2079     1.0  0.99224  0.50838  0.91274  1.0000
  C   C1172     1.0  0.03428  0.82308  0.96485  1.0000
  S   S261      1.0  0.22432  0.97994  0.87177  1.0000
  C   C1173     1.0  0.31454  0.53224  0.87728  1.0000
  N   N64       1.0  0.31368  0.89930  0.87592  1.0000
  C   C1174     1.0  0.27532  0.98044  0.90473  1.0000
  H   H2080     1.0  0.05479  0.98078  0.88015  1.0000
  C   C1175     1.0  0.21626  0.51078  0.72273  1.0000
  H   H2081     1.0  0.07785  0.97406  0.90726  1.0000
  H   H2082     1.0  0.19871  0.49435  0.78493  1.0000
  H   H2083     1.0  0.05738  0.83850  0.96967  1.0000
  C   C1176     1.0  0.20994  0.49201  0.73394  1.0000
  C   C1177     1.0  0.29558  0.98123  0.92591  1.0000
  H   H2084     1.0  0.31495  0.92349  0.82065  1.0000
  C   C1178     1.0  0.31617  0.91538  0.84609  1.0000
  H   H2085     1.0  0.98897  0.59606  0.94047  1.0000
  H   H2086     1.0  0.99627  0.93565  0.86982  1.0000
  H   H2087     1.0  0.09140  0.98242  0.93762  1.0000
  C   C1179     1.0  0.32149  0.86394  0.86590  1.0000
  S   S262      1.0  0.23371  0.48645  0.83398  1.0000
  H   H2088     1.0  0.30524  0.48757  0.82763  1.0000
  H   H2089     1.0  0.16953  0.63039  0.72075  1.0000
  C   C1180     1.0  0.57318  0.13357  0.97660  1.0000
  S   S263      1.0  0.46553  0.08696  0.98891  1.0000
  S   S264      1.0  0.45477  0.14677  0.99731  1.0000
  Fe  Fe135     1.0  0.52061  0.21503  0.08117  1.0000
  S   S265      1.0  0.49121  0.20268  0.08193  1.0000
  S   S266      1.0  0.53677  0.20586  0.10327  1.0000
  Fe  Fe136     1.0  0.51885  0.23693  0.04730  1.0000
  S   S267      1.0  0.48986  0.22616  0.04523  1.0000
  S   S268      1.0  0.53658  0.25371  0.02587  1.0000
  Fe  Fe137     1.0  0.47929  0.23387  0.07021  1.0000
  S   S269      1.0  0.44649  0.25014  0.07397  1.0000
  Fe  Fe138     1.0  0.50353  0.19585  0.05704  1.0000
  S   S270      1.0  0.50301  0.16484  0.04991  1.0000
  S   S271      1.0  0.50760  0.24711  0.07136  1.0000
  S   S272      1.0  0.53368  0.20581  0.05723  1.0000
  H   H2090     1.0  0.53561  0.12608  0.02237  1.0000
  H   H2091     1.0  0.58470  0.46862  0.98816  1.0000
  S   S273      1.0  0.38306  0.25527  0.13778  1.0000
  C   C1181     1.0  0.40068  0.39748  0.99643  1.0000
  H   H2092     1.0  0.53626  0.12152  0.98698  1.0000
  C   C1182     1.0  0.41263  0.05635  0.97913  1.0000
  H   H2093     1.0  0.50610  0.38859  0.01589  1.0000
  H   H2094     1.0  0.53070  0.30916  0.98121  1.0000
  H   H2095     1.0  0.54072  0.08864  0.02593  1.0000
  Fe  Fe139     1.0  0.64856  0.20056  0.13005  1.0000
  C   C1183     1.0  0.45425  0.01359  0.99198  1.0000
  S   S274      1.0  0.62928  0.20962  0.10965  1.0000
  H   H2096     1.0  0.52341  0.35321  0.02094  1.0000
  Fe  Fe140     1.0  0.49854  0.08291  0.97786  1.0000
  Fe  Fe141     1.0  0.63638  0.45026  0.98601  1.0000
  S   S275      1.0  0.61187  0.42906  0.99148  1.0000
  C   C1184     1.0  0.61976  0.14888  0.12404  1.0000
  H   H2097     1.0  0.44303  0.39589  0.00395  1.0000
  C   C1185     1.0  0.60038  0.34207  0.01078  1.0000
  C   C1186     1.0  0.63441  0.14120  0.08946  1.0000
  H   H2098     1.0  0.61362  0.15907  0.06398  1.0000
  H   H2099     1.0  0.37897  0.31214  0.09753  1.0000
  H   H2100     1.0  0.60382  0.12898  0.14295  1.0000
  C   C1187     1.0  0.57876  0.35277  0.00797  1.0000
  C   C1188     1.0  0.38398  0.40429  0.00965  1.0000
  C   C1189     1.0  0.40885  0.14099  0.04966  1.0000
  C   C1190     1.0  0.56270  0.20646  0.10468  1.0000
  C   C1191     1.0  0.56994  0.19932  0.11939  1.0000
  C   C1192     1.0  0.59020  0.20026  0.12122  1.0000
  C   C1193     1.0  0.60347  0.20833  0.10831  1.0000
  C   C1194     1.0  0.59624  0.21533  0.09359  1.0000
  C   C1195     1.0  0.57600  0.21442  0.09177  1.0000
  H   H2101     1.0  0.55978  0.19317  0.12947  1.0000
  H   H2102     1.0  0.59552  0.19484  0.13261  1.0000
  H   H2103     1.0  0.60639  0.22153  0.08352  1.0000
  H   H2104     1.0  0.57067  0.21999  0.08039  1.0000
  C   C1196     1.0  0.42866  0.25014  0.09169  1.0000
  C   C1197     1.0  0.40880  0.26063  0.09093  1.0000
  C   C1198     1.0  0.39443  0.26183  0.10484  1.0000
  C   C1199     1.0  0.39991  0.25282  0.11972  1.0000
  C   C1200     1.0  0.41968  0.24206  0.12043  1.0000
  C   C1201     1.0  0.43388  0.24044  0.10647  1.0000
  H   H2105     1.0  0.40455  0.26806  0.07952  1.0000
  H   H2106     1.0  0.37925  0.27004  0.10410  1.0000
  H   H2107     1.0  0.42398  0.23495  0.13188  1.0000
  H   H2108     1.0  0.44897  0.23205  0.10714  1.0000
  H   H2109     1.0  0.38291  0.22054  0.09774  1.0000
  H   H2110     1.0  0.47327  0.41337  0.99357  1.0000
  H   H2111     1.0  0.52355  0.39358  0.99784  1.0000
  H   H2112     1.0  0.62540  0.16364  0.12305  1.0000
  S   S276      1.0  0.63403  0.47379  0.00255  1.0000
  C   C1202     1.0  0.46826  0.15171  0.01191  1.0000
  C   C1203     1.0  0.48027  0.13596  0.02042  1.0000
  C   C1204     1.0  0.49056  0.14022  0.03218  1.0000
  C   C1205     1.0  0.48918  0.16027  0.03541  1.0000
  C   C1206     1.0  0.47720  0.17607  0.02688  1.0000
  C   C1207     1.0  0.46661  0.17176  0.01529  1.0000
  H   H2113     1.0  0.48145  0.12044  0.01804  1.0000
  H   H2114     1.0  0.49970  0.12790  0.03879  1.0000
  H   H2115     1.0  0.47614  0.19156  0.02924  1.0000
  H   H2116     1.0  0.45730  0.18401  0.00876  1.0000
  H   H2117     1.0  0.32224  0.45539  0.00104  1.0000
  C   C1208     1.0  0.58218  0.41110  0.98291  1.0000
  H   H2118     1.0  0.57425  0.41303  0.99472  1.0000
  C   C1209     1.0  0.50716  0.31462  0.00092  1.0000
  C   C1210     1.0  0.49883  0.30690  0.01639  1.0000
  C   C1211     1.0  0.50742  0.28797  0.02402  1.0000
  C   C1212     1.0  0.52468  0.27688  0.01632  1.0000
  C   C1213     1.0  0.53313  0.28471  0.00092  1.0000
  C   C1214     1.0  0.52427  0.30343  0.99316  1.0000
  H   H2119     1.0  0.48573  0.31559  0.02253  1.0000
  H   H2120     1.0  0.50091  0.28210  0.03594  1.0000
  H   H2121     1.0  0.54649  0.27617  0.99493  1.0000
  H   H2122     1.0  0.33933  0.37557  0.09407  1.0000
  N   N65       1.0  0.42879  0.36739  0.98935  1.0000
  C   C1215     1.0  0.44116  0.34877  0.99732  1.0000
  C   C1216     1.0  0.56399  0.29211  0.03750  1.0000
  C   C1217     1.0  0.41237  0.37601  0.00173  1.0000
  C   C1218     1.0  0.41871  0.36210  0.97644  1.0000
  H   H2123     1.0  0.54357  0.45402  0.97590  1.0000
  C   C1219     1.0  0.42984  0.33017  0.00381  1.0000
  H   H2124     1.0  0.53122  0.19299  0.02450  1.0000
  H   H2125     1.0  0.60796  0.33324  0.00108  1.0000
  H   H2126     1.0  0.39062  0.40532  0.02045  1.0000
  C   C1220     1.0  0.32312  0.35901  0.15030  1.0000
  C   C1221     1.0  0.44388  0.31248  0.01182  1.0000
  H   H2127     1.0  0.40485  0.20988  0.10766  1.0000
  H   H2128     1.0  0.44724  0.35259  0.00757  1.0000
  H   H2129     1.0  0.45488  0.34363  0.98903  1.0000
  H   H2130     1.0  0.64231  0.13615  0.07799  1.0000
  C   C1222     1.0  0.61402  0.35776  0.01166  1.0000
  H   H2131     1.0  0.41865  0.37665  0.01281  1.0000
  H   H2132     1.0  0.40069  0.36563  0.00557  1.0000
  H   H2133     1.0  0.40644  0.35277  0.98173  1.0000
  H   H2134     1.0  0.42328  0.23271  0.05377  1.0000
  H   H2135     1.0  0.35487  0.27015  0.21960  1.0000
  C   C1223     1.0  0.45487  0.03042  0.00179  1.0000
  H   H2136     1.0  0.41654  0.33421  0.01281  1.0000
  H   H2137     1.0  0.42446  0.32451  0.99406  1.0000
  C   C1224     1.0  0.52684  0.20012  0.01269  1.0000
  H   H2138     1.0  0.36444  0.46295  0.02526  1.0000
  N   N66       1.0  0.64852  0.13639  0.10203  1.0000
  H   H2139     1.0  0.46558  0.37856  0.99823  1.0000
  C   C1225     1.0  0.42978  0.98789  0.97768  1.0000
  H   H2140     1.0  0.37664  0.40937  0.11977  1.0000
  H   H2141     1.0  0.33811  0.27349  0.19532  1.0000
  H   H2142     1.0  0.36194  0.37010  0.13069  1.0000
  H   H2143     1.0  0.38171  0.19884  0.11317  1.0000
  C   C1226     1.0  0.43905  0.23263  0.03000  1.0000
  H   H2144     1.0  0.44874  0.31692  0.02234  1.0000
  H   H2145     1.0  0.43571  0.29911  0.01595  1.0000
  H   H2146     1.0  0.45760  0.30788  0.00330  1.0000
  C   C1227     1.0  0.34445  0.34509  0.12022  1.0000
  H   H2147     1.0  0.58043  0.36613  0.99849  1.0000
  H   H2148     1.0  0.45523  0.37597  0.97317  1.0000
  C   C1228     1.0  0.54141  0.11849  0.01162  1.0000
  H   H2149     1.0  0.45279  0.42217  0.98183  1.0000
  N   N67       1.0  0.33584  0.36744  0.11991  1.0000
  H   H2150     1.0  0.44299  0.99397  0.01316  1.0000
  H   H2151     1.0  0.54111  0.08858  0.00490  1.0000
  H   H2152     1.0  0.61904  0.17149  0.09573  1.0000
  N   N68       1.0  0.53973  0.15166  0.99103  1.0000
  H   H2153     1.0  0.39283  0.38506  0.11817  1.0000
  C   C1229     1.0  0.56263  0.14955  0.98767  1.0000
  H   H2154     1.0  0.53886  0.15847  0.01497  1.0000
  H   H2155     1.0  0.36090  0.46211  0.00497  1.0000
  H   H2156     1.0  0.58709  0.31695  0.99314  1.0000
  H   H2157     1.0  0.39161  0.04456  0.99896  1.0000
  H   H2158     1.0  0.47467  0.40489  0.97452  1.0000
  H   H2159     1.0  0.34431  0.39279  0.12883  1.0000
  C   C1230     1.0  0.63684  0.13189  0.11852  1.0000
  C   C1231     1.0  0.35163  0.37960  0.12251  1.0000
  C   C1232     1.0  0.57077  0.30373  0.02113  1.0000
  H   H2160     1.0  0.51653  0.48060  0.98041  1.0000
  H   H2161     1.0  0.53139  0.21561  0.00991  1.0000
  Fe  Fe142     1.0  0.46751  0.12068  0.98293  1.0000
  H   H2162     1.0  0.35116  0.33900  0.13137  1.0000
  C   C1233     1.0  0.53227  0.16512  0.00385  1.0000
  C   C1234     1.0  0.44285  0.38269  0.98191  1.0000
  H   H2163     1.0  0.56907  0.29439  0.01201  1.0000
  H   H2164     1.0  0.46047  0.02383  0.01329  1.0000
  H   H2165     1.0  0.55827  0.11630  0.00999  1.0000
  C   C1235     1.0  0.60811  0.16612  0.07504  1.0000
  H   H2166     1.0  0.54042  0.37148  0.01963  1.0000
  H   H2167     1.0  0.40651  0.13155  0.06155  1.0000
  H   H2168     1.0  0.43459  0.39592  0.97479  1.0000
  C   C1236     1.0  0.53278  0.13115  0.99674  1.0000
  C   C1237     1.0  0.36501  0.38887  0.10742  1.0000
  C   C1238     1.0  0.57651  0.02556  0.98155  1.0000
  Fe  Fe143     1.0  0.35298  0.99637  0.97871  1.0000
  H   H2169     1.0  0.38542  0.18742  0.08699  1.0000
  H   H2170     1.0  0.37588  0.41960  0.00543  1.0000
  H   H2171     1.0  0.64761  0.12789  0.12753  1.0000
  H   H2172     1.0  0.39664  0.17924  0.05847  1.0000
  C   C1239     1.0  0.53488  0.09730  0.01502  1.0000
  H   H2173     1.0  0.51801  0.09850  0.01694  1.0000
  H   H2174     1.0  0.41490  0.99777  0.98007  1.0000
  C   C1240     1.0  0.45373  0.39075  0.99365  1.0000
  H   H2175     1.0  0.38606  0.46158  0.00972  1.0000
  H   H2176     1.0  0.39328  0.39741  0.98584  1.0000
  N   N69       1.0  0.42370  0.18849  0.06370  1.0000
  C   C1241     1.0  0.41171  0.17206  0.06206  1.0000
  C   C1242     1.0  0.41201  0.20196  0.07570  1.0000
  C   C1243     1.0  0.42643  0.20160  0.04757  1.0000
  C   C1244     1.0  0.44458  0.17965  0.06804  1.0000
  C   C1245     1.0  0.44534  0.16427  0.08360  1.0000
  C   C1246     1.0  0.42207  0.15723  0.04998  1.0000
  C   C1247     1.0  0.43458  0.22197  0.04710  1.0000
  C   C1248     1.0  0.39910  0.19163  0.09057  1.0000
  C   C1249     1.0  0.43919  0.99889  0.00080  1.0000
  C   C1250     1.0  0.46671  0.15237  0.08446  1.0000
  C   C1251     1.0  0.57452  0.46688  0.01331  1.0000
  S   S277      1.0  0.52032  0.05842  0.99056  1.0000
  H   H2177     1.0  0.37270  0.39346  0.01278  1.0000
  H   H2178     1.0  0.40796  0.16243  0.07362  1.0000
  H   H2179     1.0  0.42255  0.21043  0.07985  1.0000
  H   H2180     1.0  0.56086  0.46411  0.02210  1.0000
  H   H2181     1.0  0.62934  0.34981  0.01398  1.0000
  H   H2182     1.0  0.43710  0.19304  0.03882  1.0000
  H   H2183     1.0  0.45412  0.17231  0.05809  1.0000
  H   H2184     1.0  0.45297  0.19194  0.06949  1.0000
  H   H2185     1.0  0.43503  0.15281  0.08466  1.0000
  H   H2186     1.0  0.44126  0.17269  0.09405  1.0000
  H   H2187     1.0  0.42457  0.16545  0.03765  1.0000
  H   H2188     1.0  0.43694  0.14914  0.05321  1.0000
  H   H2189     1.0  0.44878  0.21932  0.05244  1.0000
  C   C1252     1.0  0.61066  0.14322  0.14144  1.0000
  H   H2190     1.0  0.54222  0.32141  0.01748  1.0000
  H   H2191     1.0  0.40758  0.17761  0.09644  1.0000
  H   H2192     1.0  0.46541  0.04090  0.99504  1.0000
  H   H2193     1.0  0.33192  0.33616  0.12032  1.0000
  H   H2194     1.0  0.37197  0.30895  0.11886  1.0000
  H   H2195     1.0  0.47133  0.14304  0.07454  1.0000
  H   H2196     1.0  0.47795  0.16289  0.08371  1.0000
  H   H2197     1.0  0.46694  0.14196  0.09594  1.0000
  H   H2198     1.0  0.60715  0.15090  0.11682  1.0000
  H   H2199     1.0  0.63708  0.17280  0.07809  1.0000
  H   H2200     1.0  0.37560  0.34490  0.10774  1.0000
  H   H2201     1.0  0.61583  0.36824  0.00019  1.0000
  C   C1253     1.0  0.59620  0.13348  0.97343  1.0000
  C   C1254     1.0  0.57058  0.46626  0.99638  1.0000
  H   H2202     1.0  0.50616  0.37537  0.99932  1.0000
  S   S278      1.0  0.64858  0.21582  0.15148  1.0000
  H   H2203     1.0  0.44471  0.24718  0.03017  1.0000
  H   H2204     1.0  0.41099  0.40922  0.99345  1.0000
  H   H2205     1.0  0.40126  0.99020  0.01412  1.0000
  H   H2206     1.0  0.33666  0.36424  0.15321  1.0000
  C   C1255     1.0  0.55707  0.03325  0.98894  1.0000
  H   H2207     1.0  0.51005  0.20176  0.01337  1.0000
  H   H2208     1.0  0.57271  0.27644  0.03871  1.0000
  H   H2209     1.0  0.55403  0.18709  0.99897  1.0000
  C   C1256     1.0  0.46425  0.40889  0.98535  1.0000
  H   H2210     1.0  0.62153  0.13221  0.09309  1.0000
  H   H2211     1.0  0.53256  0.19497  0.98826  1.0000
  H   H2212     1.0  0.57223  0.35957  0.01898  1.0000
  H   H2213     1.0  0.56742  0.16442  0.98192  1.0000
  C   C1257     1.0  0.54480  0.04954  0.98098  1.0000
  H   H2214     1.0  0.50389  0.18185  0.98397  1.0000
  H   H2215     1.0  0.53636  0.34569  0.99381  1.0000
  H   H2216     1.0  0.51796  0.01385  0.98199  1.0000
  S   S279      1.0  0.33438  0.29802  0.14447  1.0000
  H   H2217     1.0  0.62248  0.14106  0.14942  1.0000
  H   H2218     1.0  0.58711  0.30474  0.02029  1.0000
  H   H2219     1.0  0.55555  0.33213  0.02947  1.0000
  H   H2220     1.0  0.41655  0.13080  0.04080  1.0000
  C   C1258     1.0  0.39704  0.04479  0.98635  1.0000
  Fe  Fe144     1.0  0.34868  0.26596  0.14067  1.0000
  H   H2221     1.0  0.51556  0.16581  0.00734  1.0000
  C   C1259     1.0  0.62526  0.16398  0.08510  1.0000
  H   H2222     1.0  0.59516  0.15880  0.08199  1.0000
  N   N70       1.0  0.56454  0.33982  0.00399  1.0000
  H   H2223     1.0  0.32594  0.34212  0.15110  1.0000
  H   H2224     1.0  0.65057  0.16789  0.10384  1.0000
  H   H2225     1.0  0.54755  0.29076  0.03893  1.0000
  C   C1260     1.0  0.36664  0.31603  0.10734  1.0000
  H   H2226     1.0  0.44958  0.02111  0.98036  1.0000
  S   S280      1.0  0.32766  0.26329  0.12363  1.0000
  H   H2227     1.0  0.60278  0.12957  0.98479  1.0000
  C   C1261     1.0  0.32718  0.37509  0.10449  1.0000
  H   H2228     1.0  0.43953  0.03942  0.00423  1.0000
  C   C1262     1.0  0.54591  0.35402  0.99912  1.0000
  H   H2229     1.0  0.41171  0.20563  0.04265  1.0000
  S   S281      1.0  0.49605  0.33848  0.99182  1.0000
  H   H2230     1.0  0.59854  0.15570  0.14506  1.0000
  H   H2231     1.0  0.41896  0.06504  0.98612  1.0000
  C   C1263     1.0  0.33139  0.28241  0.20479  1.0000
  C   C1264     1.0  0.53114  0.16070  0.97577  1.0000
  C   C1265     1.0  0.36979  0.46809  0.01250  1.0000
  H   H2232     1.0  0.49908  0.15640  0.98426  1.0000
  H   H2233     1.0  0.56676  0.29999  0.04716  1.0000
  C   C1266     1.0  0.53739  0.18723  0.99975  1.0000
  H   H2234     1.0  0.45095  0.22291  0.02286  1.0000
  H   H2235     1.0  0.55036  0.36636  0.98954  1.0000
  H   H2236     1.0  0.56936  0.14588  0.99900  1.0000
  N   N71       1.0  0.49566  0.25200  0.13480  1.0000
  C   C1267     1.0  0.48971  0.26617  0.14725  1.0000
  C   C1268     1.0  0.49101  0.26376  0.11891  1.0000
  C   C1269     1.0  0.48386  0.23424  0.13976  1.0000
  C   C1270     1.0  0.51813  0.24386  0.13320  1.0000
  C   C1271     1.0  0.53269  0.25997  0.13139  1.0000
  C   C1272     1.0  0.49483  0.25701  0.16421  1.0000
  C   C1273     1.0  0.48637  0.21912  0.12750  1.0000
  C   C1274     1.0  0.46816  0.27119  0.11754  1.0000
  C   C1275     1.0  0.46527  0.28120  0.10057  1.0000
  C   C1276     1.0  0.55495  0.25024  0.12823  1.0000
  C   C1277     1.0  0.49050  0.27339  0.17524  1.0000
  C   C1278     1.0  0.47246  0.20284  0.13316  1.0000
  H   H2237     1.0  0.47298  0.27130  0.14874  1.0000
  H   H2238     1.0  0.49663  0.28041  0.14326  1.0000
  H   H2239     1.0  0.49855  0.27766  0.11602  1.0000
  H   H2240     1.0  0.49767  0.25468  0.10904  1.0000
  H   H2241     1.0  0.46734  0.23969  0.14298  1.0000
  H   H2242     1.0  0.48864  0.22488  0.15085  1.0000
  H   H2243     1.0  0.52175  0.23196  0.14343  1.0000
  H   H2244     1.0  0.52263  0.23579  0.12258  1.0000
  H   H2245     1.0  0.53079  0.26711  0.14240  1.0000
  H   H2246     1.0  0.52988  0.27220  0.12128  1.0000
  H   H2247     1.0  0.48532  0.24498  0.16963  1.0000
  H   H2248     1.0  0.51104  0.25018  0.16402  1.0000
  H   H2249     1.0  0.50221  0.21110  0.12607  1.0000
  H   H2250     1.0  0.48276  0.22691  0.11567  1.0000
  H   H2251     1.0  0.45919  0.25841  0.12055  1.0000
  H   H2252     1.0  0.46162  0.28267  0.12563  1.0000
  H   H2253     1.0  0.47106  0.27011  0.09201  1.0000
  H   H2254     1.0  0.44880  0.28623  0.09989  1.0000
  H   H2255     1.0  0.47336  0.29469  0.09702  1.0000
  H   H2256     1.0  0.56508  0.26175  0.12794  1.0000
  H   H2257     1.0  0.55862  0.23734  0.13774  1.0000
  H   H2258     1.0  0.55814  0.24457  0.11650  1.0000
  H   H2259     1.0  0.47422  0.28036  0.17623  1.0000
  H   H2260     1.0  0.49393  0.26640  0.18735  1.0000
  H   H2261     1.0  0.50021  0.28550  0.17069  1.0000
  H   H2262     1.0  0.45624  0.20995  0.13465  1.0000
  H   H2263     1.0  0.47467  0.19226  0.12413  1.0000
  H   H2264     1.0  0.47615  0.19383  0.14466  1.0000
  C   C1279     1.0  0.36148  0.33924  0.10655  1.0000
  H   H2265     1.0  0.42399  0.00854  0.00200  1.0000
  H   H2266     1.0  0.35311  0.30935  0.10599  1.0000
  H   H2267     1.0  0.58737  0.45483  0.01632  1.0000
  S   S282      1.0  0.36872  0.01940  0.98727  1.0000
  H   H2268     1.0  0.54894  0.99456  0.98298  1.0000
  H   H2269     1.0  0.55155  0.02659  0.00090  1.0000
  C   C1280     1.0  0.53177  0.36451  0.01264  1.0000
  C   C1281     1.0  0.38255  0.39744  0.11193  1.0000
  H   H2270     1.0  0.39385  0.14821  0.04611  1.0000
  H   H2271     1.0  0.39154  0.40443  0.10096  1.0000
  C   C1282     1.0  0.55755  0.32500  0.01838  1.0000
  C   C1283     1.0  0.39172  0.20616  0.10299  1.0000
  C   C1284     1.0  0.34082  0.28052  0.21855  1.0000
  C   C1285     1.0  0.60111  0.41807  0.97791  1.0000
  H   H2272     1.0  0.58589  0.01315  0.98785  1.0000
  H   H2273     1.0  0.40080  0.21394  0.06995  1.0000
  H   H2274     1.0  0.35580  0.40164  0.10062  1.0000
  H   H2275     1.0  0.42502  0.23614  0.02424  1.0000
  C   C1286     1.0  0.64843  0.24127  0.18545  1.0000
  H   H2276     1.0  0.51598  0.13301  0.99983  1.0000
  H   H2277     1.0  0.60248  0.18255  0.07159  1.0000
  H   H2278     1.0  0.35697  0.34528  0.09463  1.0000
  C   C1287     1.0  0.51597  0.38153  0.00595  1.0000
  H   H2279     1.0  0.37159  0.37758  0.09925  1.0000
  S   S283      1.0  0.64203  0.17783  0.18951  1.0000
  H   H2280     1.0  0.56742  0.45066  0.99605  1.0000
  H   H2281     1.0  0.32425  0.40723  0.07875  1.0000
  S   S284      1.0  0.32931  0.25158  0.16231  1.0000
  C   C1288     1.0  0.57395  0.32852  0.99013  1.0000
  H   H2282     1.0  0.47000  0.00546  0.98985  1.0000
  C   C1289     1.0  0.58154  0.34192  0.97448  1.0000
  H   H2283     1.0  0.60749  0.36693  0.02144  1.0000
  H   H2284     1.0  0.63625  0.23216  0.18508  1.0000
  H   H2285     1.0  0.59960  0.33183  0.02234  1.0000
  H   H2286     1.0  0.64225  0.25287  0.19353  1.0000
  H   H2287     1.0  0.65286  0.24907  0.17320  1.0000
  C   C1290     1.0  0.38826  0.03376  0.97739  1.0000
  H   H2288     1.0  0.57054  0.11790  0.98207  1.0000
  H   H2289     1.0  0.62904  0.11837  0.11942  1.0000
  H   H2290     1.0  0.56279  0.31961  0.98732  1.0000
  H   H2291     1.0  0.55859  0.39703  0.97655  1.0000
  H   H2292     1.0  0.57874  0.48185  0.01422  1.0000
  C   C1291     1.0  0.55216  0.48220  0.99189  1.0000
  H   H2293     1.0  0.50904  0.98582  0.97185  1.0000
  H   H2294     1.0  0.59254  0.35150  0.97642  1.0000
  C   C1292     1.0  0.65454  0.09739  0.10027  1.0000
  H   H2295     1.0  0.64061  0.09988  0.09447  1.0000
  C   C1293     1.0  0.50785  0.16836  0.97754  1.0000
  H   H2296     1.0  0.53883  0.47700  0.00014  1.0000
  C   C1294     1.0  0.57338  0.40170  0.97275  1.0000
  H   H2297     1.0  0.65069  0.09114  0.11304  1.0000
  S   S285      1.0  0.50085  0.11637  0.97364  1.0000
  Fe  Fe145     1.0  0.40949  0.05825  0.42141  1.0000
  S   S286      1.0  0.43711  0.07241  0.40994  1.0000
  S   S287      1.0  0.40157  0.05078  0.44835  1.0000
  Fe  Fe146     1.0  0.39552  0.05640  0.38927  1.0000
  S   S288      1.0  0.42263  0.07040  0.37562  1.0000
  S   S289      1.0  0.37341  0.05150  0.37301  1.0000
  Fe  Fe147     1.0  0.44074  0.04930  0.39307  1.0000
  S   S290      1.0  0.47263  0.03356  0.38570  1.0000
  Fe  Fe148     1.0  0.41672  0.09229  0.39352  1.0000
  S   S291      1.0  0.41352  0.12696  0.38713  1.0000
  S   S292      1.0  0.41432  0.03366  0.40550  1.0000
  S   S293      1.0  0.38843  0.07975  0.40623  1.0000
  C   C1295     1.0  0.56119  0.47587  0.44533  1.0000
  H   H2298     1.0  0.41028  0.20645  0.41844  1.0000
  H   H2299     1.0  0.48395  0.47381  0.41897  1.0000
  N   N72       1.0  0.55669  0.45432  0.45078  1.0000
  S   S294      1.0  0.34316  0.26978  0.32562  1.0000
  H   H2300     1.0  0.43878  0.03811  0.33015  1.0000
  Fe  Fe149     1.0  0.53833  0.42164  0.38418  1.0000
  S   S295      1.0  0.52038  0.39686  0.39641  1.0000
  S   S296      1.0  0.52371  0.45062  0.37030  1.0000
  Fe  Fe150     1.0  0.57886  0.39754  0.39279  1.0000
  S   S297      1.0  0.56386  0.37050  0.40565  1.0000
  S   S298      1.0  0.61293  0.39603  0.39336  1.0000
  Fe  Fe151     1.0  0.54578  0.37517  0.38504  1.0000
  S   S299      1.0  0.54124  0.35243  0.36913  1.0000
  Fe  Fe152     1.0  0.53968  0.39421  0.41603  1.0000
  S   S300      1.0  0.52381  0.39347  0.44169  1.0000
  S   S301      1.0  0.56279  0.40039  0.37144  1.0000
  S   S302      1.0  0.55566  0.42081  0.40452  1.0000
  H   H2301     1.0  0.33396  0.45919  0.29016  1.0000
  H   H2302     1.0  0.39511  0.29988  0.24774  1.0000
  S   S303      1.0  0.61820  0.18683  0.31766  1.0000
  Fe  Fe153     1.0  0.48783  0.25885  0.36164  1.0000
  S   S304      1.0  0.48818  0.27280  0.33615  1.0000
  S   S305      1.0  0.49264  0.27632  0.38101  1.0000
  Fe  Fe154     1.0  0.48083  0.21730  0.35452  1.0000
  S   S306      1.0  0.48091  0.22872  0.32824  1.0000
  S   S307      1.0  0.48317  0.18331  0.36438  1.0000
  Fe  Fe155     1.0  0.50763  0.24370  0.33027  1.0000
  S   S308      1.0  0.53482  0.24601  0.31088  1.0000
  Fe  Fe156     1.0  0.46126  0.25687  0.33634  1.0000
  S   S309      1.0  0.43686  0.27694  0.32279  1.0000
  S   S310      1.0  0.50903  0.23056  0.35583  1.0000
  S   S311      1.0  0.45943  0.24462  0.36260  1.0000
  C   C1296     1.0  0.59607  0.20490  0.31558  1.0000
  C   C1297     1.0  0.58082  0.20613  0.32885  1.0000
  C   C1298     1.0  0.56217  0.21898  0.32763  1.0000
  C   C1299     1.0  0.55859  0.23075  0.31308  1.0000
  C   C1300     1.0  0.57409  0.23010  0.29992  1.0000
  C   C1301     1.0  0.59279  0.21719  0.30114  1.0000
  H   H2303     1.0  0.58343  0.19695  0.34014  1.0000
  H   H2304     1.0  0.55052  0.21965  0.33790  1.0000
  H   H2305     1.0  0.57146  0.23928  0.28863  1.0000
  H   H2306     1.0  0.60446  0.21639  0.29086  1.0000
  C   C1302     1.0  0.41602  0.46992  0.36238  1.0000
  H   H2307     1.0  0.40778  0.46480  0.39347  1.0000
  C   C1303     1.0  0.52628  0.33232  0.37284  1.0000
  C   C1304     1.0  0.52226  0.32423  0.35977  1.0000
  C   C1305     1.0  0.51175  0.30730  0.36205  1.0000
  C   C1306     1.0  0.50517  0.29820  0.37750  1.0000
  C   C1307     1.0  0.50885  0.30650  0.39058  1.0000
  C   C1308     1.0  0.51933  0.32347  0.38829  1.0000
  H   H2308     1.0  0.52739  0.33108  0.34777  1.0000
  H   H2309     1.0  0.50891  0.30121  0.35188  1.0000
  H   H2310     1.0  0.50379  0.29959  0.40257  1.0000
  H   H2311     1.0  0.52237  0.32947  0.39846  1.0000
  C   C1309     1.0  0.50658  0.46794  0.38119  1.0000
  C   C1310     1.0  0.50175  0.46354  0.39775  1.0000
  C   C1311     1.0  0.41457  0.17357  0.42542  1.0000
  H   H2312     1.0  0.50859  0.44934  0.40401  1.0000
  H   H2313     1.0  0.54745  0.29491  0.33729  1.0000
  C   C1312     1.0  0.56273  0.28603  0.33401  1.0000
  C   C1313     1.0  0.62933  0.41294  0.38206  1.0000
  C   C1314     1.0  0.62302  0.42812  0.36988  1.0000
  C   C1315     1.0  0.63676  0.44087  0.36099  1.0000
  H   H2314     1.0  0.54236  0.30141  0.30828  1.0000
  H   H2315     1.0  0.60756  0.43001  0.36730  1.0000
  H   H2316     1.0  0.63168  0.45262  0.35169  1.0000
  H   H2317     1.0  0.54356  0.34572  0.45775  1.0000
  C   C1316     1.0  0.44360  0.14882  0.45437  1.0000
  H   H2318     1.0  0.42283  0.00721  0.45890  1.0000
  H   H2319     1.0  0.56675  0.38222  0.44503  1.0000
  H   H2320     1.0  0.43676  0.47418  0.40525  1.0000
  C   C1317     1.0  0.36904  0.27215  0.32520  1.0000
  C   C1318     1.0  0.37735  0.28899  0.31644  1.0000
  C   C1319     1.0  0.39813  0.29018  0.31590  1.0000
  C   C1320     1.0  0.41079  0.27465  0.32423  1.0000
  C   C1321     1.0  0.40242  0.25801  0.33331  1.0000
  C   C1322     1.0  0.38161  0.25679  0.33380  1.0000
  H   H2321     1.0  0.36772  0.30115  0.31013  1.0000
  H   H2322     1.0  0.40441  0.30324  0.30901  1.0000
  H   H2323     1.0  0.41197  0.24600  0.33985  1.0000
  H   H2324     1.0  0.37526  0.24378  0.34073  1.0000
  H   H2325     1.0  0.46528  0.24130  0.29123  1.0000
  C   C1323     1.0  0.46216  0.99500  0.38859  1.0000
  C   C1324     1.0  0.56872  0.48152  0.42734  1.0000
  C   C1325     1.0  0.41406  0.01254  0.35118  1.0000
  C   C1326     1.0  0.43317  0.14219  0.38032  1.0000
  C   C1327     1.0  0.42787  0.16323  0.37538  1.0000
  C   C1328     1.0  0.44294  0.17607  0.37044  1.0000
  C   C1329     1.0  0.46348  0.16801  0.37062  1.0000
  C   C1330     1.0  0.46874  0.14705  0.37586  1.0000
  C   C1331     1.0  0.45371  0.13414  0.38050  1.0000
  H   H2326     1.0  0.41200  0.16963  0.37532  1.0000
  H   H2327     1.0  0.43865  0.19217  0.36651  1.0000
  H   H2328     1.0  0.48458  0.14071  0.37617  1.0000
  H   H2329     1.0  0.45797  0.11801  0.38426  1.0000
  H   H2330     1.0  0.34702  0.22988  0.29975  1.0000
  C   C1332     1.0  0.41372  0.06018  0.46183  1.0000
  C   C1333     1.0  0.34721  0.03475  0.35950  1.0000
  C   C1334     1.0  0.35653  0.03377  0.37316  1.0000
  C   C1335     1.0  0.35237  0.01875  0.38616  1.0000
  H   H2331     1.0  0.58514  0.44073  0.42441  1.0000
  C   C1336     1.0  0.54590  0.45308  0.46775  1.0000
  H   H2332     1.0  0.35044  0.04619  0.34933  1.0000
  H   H2333     1.0  0.35930  0.01787  0.39680  1.0000
  H   H2334     1.0  0.44803  0.04802  0.34541  1.0000
  H   H2335     1.0  0.39248  0.25681  0.29831  1.0000
  H   H2336     1.0  0.65103  0.47963  0.32776  1.0000
  H   H2337     1.0  0.37995  0.32797  0.27349  1.0000
  C   C1337     1.0  0.65031  0.47566  0.31585  1.0000
  H   H2338     1.0  0.43922  0.06803  0.44467  1.0000
  H   H2339     1.0  0.40321  0.13306  0.41980  1.0000
  H   H2340     1.0  0.45254  0.02367  0.42116  1.0000
  H   H2341     1.0  0.58420  0.34223  0.35721  1.0000
  C   C1338     1.0  0.54719  0.98585  0.39411  1.0000
  C   C1339     1.0  0.47707  0.00761  0.38309  1.0000
  H   H2342     1.0  0.43218  0.11985  0.45721  1.0000
  H   H2343     1.0  0.40312  0.22503  0.26502  1.0000
  C   C1340     1.0  0.62803  0.47450  0.31504  1.0000
  C   C1341     1.0  0.33203  0.29184  0.23100  1.0000
  C   C1342     1.0  0.56893  0.38567  0.46927  1.0000
  H   H2344     1.0  0.42687  0.19241  0.40395  1.0000
  C   C1343     1.0  0.54454  0.24932  0.37991  1.0000
  H   H2345     1.0  0.55813  0.24073  0.38504  1.0000
  H   H2346     1.0  0.64928  0.12983  0.23096  1.0000
  H   H2347     1.0  0.58406  0.47299  0.42413  1.0000
  C   C1344     1.0  0.42837  0.13565  0.45096  1.0000
  H   H2348     1.0  0.57451  0.41845  0.43402  1.0000
  C   C1345     1.0  0.59573  0.32920  0.36105  1.0000
  C   C1346     1.0  0.33925  0.00474  0.38535  1.0000
  H   H2349     1.0  0.37233  0.21601  0.29587  1.0000
  C   C1347     1.0  0.46431  0.11787  0.42706  1.0000
  C   C1348     1.0  0.47154  0.00611  0.43836  1.0000
  C   C1349     1.0  0.55847  0.29488  0.30468  1.0000
  H   H2350     1.0  0.55812  0.47847  0.41973  1.0000
  H   H2351     1.0  0.62958  0.18429  0.22220  1.0000
  H   H2352     1.0  0.53166  0.46426  0.46860  1.0000
  H   H2353     1.0  0.38694  0.33591  0.25244  1.0000
  C   C1350     1.0  0.52155  0.46191  0.44030  1.0000
  H   H2354     1.0  0.58523  0.38093  0.46801  1.0000
  H   H2355     1.0  0.44556  0.02995  0.44111  1.0000
  N   N73       1.0  0.57550  0.28465  0.34716  1.0000
  Fe  Fe157     1.0  0.64942  0.18266  0.30249  1.0000
  H   H2356     1.0  0.36557  0.98525  0.32545  1.0000
  C   C1351     1.0  0.53570  0.98892  0.41068  1.0000
  H   H2357     1.0  0.45641  0.46458  0.36291  1.0000
  C   C1352     1.0  0.43521  0.04138  0.34266  1.0000
  C   C1353     1.0  0.55071  0.25971  0.36296  1.0000
  C   C1354     1.0  0.65283  0.10570  0.25123  1.0000
  H   H2358     1.0  0.40320  0.10741  0.45335  1.0000
  H   H2359     1.0  0.45670  0.26836  0.28911  1.0000
  C   C1355     1.0  0.57890  0.30609  0.34818  1.0000
  H   H2360     1.0  0.59991  0.33171  0.37249  1.0000
  C   C1356     1.0  0.61840  0.24011  0.33531  1.0000
  H   H2361     1.0  0.32878  0.43321  0.29313  1.0000
  C   C1357     1.0  0.64948  0.41074  0.38525  1.0000
  H   H2362     1.0  0.55957  0.27080  0.33258  1.0000
  C   C1358     1.0  0.45669  0.25418  0.28403  1.0000
  H   H2363     1.0  0.42155  0.99824  0.38182  1.0000
  C   C1359     1.0  0.54066  0.33338  0.46784  1.0000
  C   C1360     1.0  0.38096  0.32365  0.26140  1.0000
  H   H2364     1.0  0.65447  0.39915  0.39472  1.0000
  C   C1361     1.0  0.65279  0.08984  0.30542  1.0000
  C   C1362     1.0  0.53744  0.39237  0.45777  1.0000
  H   H2365     1.0  0.39594  0.00897  0.38029  1.0000
  H   H2366     1.0  0.60588  0.40539  0.44665  1.0000
  C   C1363     1.0  0.43077  0.15457  0.42285  1.0000
  H   H2367     1.0  0.47679  0.00897  0.44924  1.0000
  C   C1364     1.0  0.49622  0.99931  0.37583  1.0000
  H   H2368     1.0  0.33604  0.38469  0.32238  1.0000
  H   H2369     1.0  0.54053  0.43215  0.44488  1.0000
  H   H2370     1.0  0.61682  0.42784  0.43669  1.0000
  C   C1365     1.0  0.37642  0.11083  0.44205  1.0000
  H   H2371     1.0  0.39275  0.23207  0.23798  1.0000
  H   H2372     1.0  0.45860  0.14638  0.44691  1.0000
  C   C1366     1.0  0.40737  0.99519  0.37834  1.0000
  Fe  Fe158     1.0  0.32424  0.28763  0.30675  1.0000
  H   H2373     1.0  0.48936  0.46099  0.44847  1.0000
  H   H2374     1.0  0.37196  0.28500  0.27065  1.0000
  C   C1367     1.0  0.43198  0.06811  0.45686  1.0000
  H   H2375     1.0  0.39724  0.47452  0.33471  1.0000
  H   H2376     1.0  0.64805  0.17767  0.24581  1.0000
  H   H2377     1.0  0.46784  0.11624  0.43941  1.0000
  H   H2378     1.0  0.42098  0.28110  0.28260  1.0000
  H   H2379     1.0  0.58868  0.44639  0.45374  1.0000
  N   N74       1.0  0.42678  0.13508  0.43366  1.0000
  H   H2380     1.0  0.40074  0.17243  0.42032  1.0000
  H   H2381     1.0  0.57214  0.31252  0.31735  1.0000
  C   C1368     1.0  0.57629  0.43930  0.45072  1.0000
  H   H2382     1.0  0.34470  0.11592  0.35091  1.0000
  C   C1369     1.0  0.33391  0.02095  0.35878  1.0000
  C   C1370     1.0  0.47714  0.09987  0.41956  1.0000
  H   H2383     1.0  0.57443  0.42607  0.46030  1.0000
  H   H2384     1.0  0.64171  0.34796  0.36569  1.0000
  H   H2385     1.0  0.42120  0.05281  0.34389  1.0000
  H   H2386     1.0  0.47454  0.10062  0.40702  1.0000
  H   H2387     1.0  0.43116  0.27311  0.26384  1.0000
  H   H2388     1.0  0.36826  0.32107  0.33945  1.0000
  H   H2389     1.0  0.51905  0.46620  0.42762  1.0000
  H   H2390     1.0  0.42729  0.23367  0.25687  1.0000
  H   H2391     1.0  0.41004  0.17485  0.43828  1.0000
  H   H2392     1.0  0.50313  0.98676  0.45421  1.0000
  H   H2393     1.0  0.37174  0.48222  0.34419  1.0000
  S   S312      1.0  0.34407  0.28926  0.24817  1.0000
  H   H2394     1.0  0.53392  0.23845  0.37974  1.0000
  C   C1371     1.0  0.58451  0.42941  0.43534  1.0000
  C   C1372     1.0  0.48984  0.99990  0.42567  1.0000
  H   H2395     1.0  0.58716  0.28841  0.31342  1.0000
  C   C1373     1.0  0.36348  0.23058  0.29923  1.0000
  H   H2396     1.0  0.38776  0.99574  0.40955  1.0000
  H   H2397     1.0  0.40705  0.09840  0.43423  1.0000
  H   H2398     1.0  0.59108  0.24047  0.35193  1.0000
  C   C1374     1.0  0.40546  0.13168  0.43253  1.0000
  C   C1375     1.0  0.59664  0.24991  0.34071  1.0000
  H   H2399     1.0  0.62616  0.12006  0.24016  1.0000
  H   H2400     1.0  0.35210  0.31478  0.35796  1.0000
  H   H2401     1.0  0.40018  0.02398  0.35333  1.0000
  Fe  Fe159     1.0  0.32413  0.29728  0.27098  1.0000
  H   H2402     1.0  0.36765  0.12230  0.44949  1.0000
  H   H2403     1.0  0.43566  0.23571  0.27979  1.0000
  H   H2404     1.0  0.54992  0.44827  0.42830  1.0000
  H   H2405     1.0  0.33635  0.99300  0.39536  1.0000
  C   C1376     1.0  0.54274  0.44835  0.44087  1.0000
  C   C1377     1.0  0.64050  0.12426  0.24256  1.0000
  H   H2406     1.0  0.40100  0.23589  0.28784  1.0000
  H   H2407     1.0  0.57510  0.27028  0.37175  1.0000
  C   C1378     1.0  0.42243  0.19318  0.41693  1.0000
  C   C1379     1.0  0.38659  0.99127  0.34014  1.0000
  H   H2408     1.0  0.41058  0.30578  0.26112  1.0000
  C   C1380     1.0  0.40902  0.23048  0.23958  1.0000
  C   C1381     1.0  0.39926  0.11091  0.44104  1.0000
  H   H2409     1.0  0.55823  0.24773  0.35566  1.0000
  H   H2410     1.0  0.56444  0.31694  0.34763  1.0000
  N   N75       1.0  0.53995  0.16014  0.33155  1.0000
  C   C1382     1.0  0.55867  0.14408  0.33123  1.0000
  C   C1383     1.0  0.52091  0.15054  0.33239  1.0000
  C   C1384     1.0  0.54215  0.17457  0.31605  1.0000
  C   C1385     1.0  0.53799  0.17245  0.34505  1.0000
  C   C1386     1.0  0.53728  0.16037  0.36207  1.0000
  C   C1387     1.0  0.57940  0.15180  0.33007  1.0000
  C   C1388     1.0  0.52381  0.19168  0.31346  1.0000
  C   C1389     1.0  0.52064  0.12848  0.34136  1.0000
  C   C1390     1.0  0.49994  0.12166  0.34206  1.0000
  C   C1391     1.0  0.53781  0.17439  0.37428  1.0000
  C   C1392     1.0  0.59691  0.13401  0.33077  1.0000
  C   C1393     1.0  0.52581  0.20242  0.29624  1.0000
  H   H2411     1.0  0.55967  0.13559  0.32094  1.0000
  H   H2412     1.0  0.55764  0.13243  0.34200  1.0000
  H   H2413     1.0  0.50729  0.16035  0.33781  1.0000
  H   H2414     1.0  0.51786  0.14967  0.32015  1.0000
  H   H2415     1.0  0.54520  0.16578  0.30575  1.0000
  H   H2416     1.0  0.55543  0.18274  0.31503  1.0000
  H   H2417     1.0  0.55050  0.18176  0.34311  1.0000
  H   H2418     1.0  0.52385  0.18379  0.34523  1.0000
  H   H2419     1.0  0.55038  0.14800  0.36306  1.0000
  H   H2420     1.0  0.52288  0.15384  0.36549  1.0000
  H   H2421     1.0  0.58287  0.16181  0.31863  1.0000
  H   H2422     1.0  0.57951  0.16029  0.34007  1.0000
  H   H2423     1.0  0.52326  0.20333  0.32136  1.0000
  H   H2424     1.0  0.50903  0.18581  0.31606  1.0000
  H   H2425     1.0  0.53215  0.11754  0.33501  1.0000
  H   H2426     1.0  0.52395  0.12714  0.35372  1.0000
  H   H2427     1.0  0.48755  0.13243  0.34772  1.0000
  H   H2428     1.0  0.49690  0.12088  0.32986  1.0000
  H   H2429     1.0  0.49976  0.10627  0.34919  1.0000
  H   H2430     1.0  0.52460  0.18683  0.37416  1.0000
  H   H2431     1.0  0.53699  0.16549  0.38643  1.0000
  H   H2432     1.0  0.55213  0.18120  0.37166  1.0000
  H   H2433     1.0  0.59489  0.12374  0.34229  1.0000
  H   H2434     1.0  0.59788  0.12518  0.32075  1.0000
  H   H2435     1.0  0.61151  0.14007  0.32973  1.0000
  H   H2436     1.0  0.54055  0.20843  0.29289  1.0000
  H   H2437     1.0  0.52481  0.19175  0.28791  1.0000
  H   H2438     1.0  0.51333  0.21550  0.29501  1.0000
  N   N76       1.0  0.42138  0.31834  0.36066  1.0000
  C   C1394     1.0  0.44142  0.31455  0.34988  1.0000
  C   C1395     1.0  0.42071  0.30249  0.37548  1.0000
  C   C1396     1.0  0.40471  0.31594  0.35159  1.0000
  C   C1397     1.0  0.41724  0.33963  0.36506  1.0000
  C   C1398     1.0  0.43362  0.34585  0.37323  1.0000
  C   C1399     1.0  0.44429  0.32987  0.33427  1.0000
  C   C1400     1.0  0.38275  0.31813  0.36088  1.0000
  C   C1401     1.0  0.44099  0.29410  0.38219  1.0000
  C   C1402     1.0  0.43739  0.28053  0.39826  1.0000
  C   C1403     1.0  0.42924  0.36860  0.37477  1.0000
  C   C1404     1.0  0.46532  0.32493  0.32470  1.0000
  C   C1405     1.0  0.36784  0.31202  0.35155  1.0000
  H   H2439     1.0  0.44360  0.29891  0.34655  1.0000
  H   H2440     1.0  0.45454  0.31463  0.35614  1.0000
  H   H2441     1.0  0.40949  0.30841  0.38533  1.0000
  H   H2442     1.0  0.41521  0.28862  0.37317  1.0000
  H   H2443     1.0  0.40804  0.30076  0.34730  1.0000
  H   H2444     1.0  0.40402  0.32746  0.34072  1.0000
  H   H2445     1.0  0.41454  0.35109  0.35437  1.0000
  H   H2446     1.0  0.40283  0.34171  0.37347  1.0000
  H   H2447     1.0  0.44908  0.34294  0.36647  1.0000
  H   H2448     1.0  0.43350  0.33739  0.38550  1.0000
  H   H2449     1.0  0.43304  0.32933  0.32633  1.0000
  H   H2450     1.0  0.44288  0.34568  0.33696  1.0000
  H   H2451     1.0  0.37739  0.33425  0.36276  1.0000
  H   H2452     1.0  0.38181  0.30839  0.37266  1.0000
  H   H2453     1.0  0.45112  0.28459  0.37382  1.0000
  H   H2454     1.0  0.44922  0.30634  0.38380  1.0000
  H   H2455     1.0  0.42771  0.28943  0.40727  1.0000
  H   H2456     1.0  0.43002  0.26740  0.39702  1.0000
  H   H2457     1.0  0.45221  0.27444  0.40258  1.0000
  H   H2458     1.0  0.42978  0.37796  0.36278  1.0000
  H   H2459     1.0  0.41404  0.37241  0.38181  1.0000
  H   H2460     1.0  0.44094  0.37255  0.38098  1.0000
  H   H2461     1.0  0.47754  0.32425  0.33212  1.0000
  H   H2462     1.0  0.46665  0.31012  0.32019  1.0000
  H   H2463     1.0  0.46748  0.33694  0.31425  1.0000
  H   H2464     1.0  0.36664  0.24602  0.27516  1.0000
  H   H2465     1.0  0.37162  0.29551  0.35043  1.0000
  H   H2466     1.0  0.41335  0.14153  0.45750  1.0000
  C   C1406     1.0  0.57161  0.29610  0.31728  1.0000
  H   H2467     1.0  0.56422  0.30355  0.29311  1.0000
  H   H2468     1.0  0.40992  0.26785  0.24750  1.0000
  C   C1407     1.0  0.64109  0.36406  0.35983  1.0000
  H   H2469     1.0  0.46918  0.13205  0.42003  1.0000
  H   H2470     1.0  0.50352  0.43717  0.44337  1.0000
  H   H2471     1.0  0.35924  0.26252  0.29035  1.0000
  H   H2472     1.0  0.43877  0.11642  0.41505  1.0000
  H   H2473     1.0  0.47334  0.08516  0.42647  1.0000
  H   H2474     1.0  0.55348  0.28876  0.36833  1.0000
  H   H2475     1.0  0.38386  0.48140  0.36965  1.0000
  S   S313      1.0  0.33434  0.31346  0.28862  1.0000
  C   C1408     1.0  0.39174  0.98553  0.35745  1.0000
  H   H2476     1.0  0.57314  0.47902  0.45173  1.0000
  H   H2477     1.0  0.46459  0.25567  0.27155  1.0000
  H   H2478     1.0  0.41608  0.01172  0.33822  1.0000
  H   H2479     1.0  0.58748  0.24920  0.33128  1.0000
  H   H2480     1.0  0.36547  0.32246  0.25910  1.0000
  H   H2481     1.0  0.60952  0.32891  0.35194  1.0000
  H   H2482     1.0  0.62636  0.47044  0.30335  1.0000
  H   H2483     1.0  0.59950  0.29662  0.36674  1.0000
  H   H2484     1.0  0.62855  0.24061  0.34416  1.0000
  H   H2485     1.0  0.45436  0.08343  0.46346  1.0000
  H   H2486     1.0  0.32529  0.36031  0.30772  1.0000
  H   H2487     1.0  0.40716  0.98858  0.46930  1.0000
  H   H2488     1.0  0.44586  0.15848  0.42364  1.0000
  H   H2489     1.0  0.38564  0.29137  0.28458  1.0000
  H   H2490     1.0  0.42821  0.24776  0.29743  1.0000
  H   H2491     1.0  0.49354  0.10034  0.41957  1.0000
  H   H2492     1.0  0.33040  0.11497  0.37066  1.0000
  H   H2493     1.0  0.55919  0.27876  0.30292  1.0000
  H   H2494     1.0  0.44683  0.01108  0.35260  1.0000
  C   C1409     1.0  0.59618  0.27208  0.34368  1.0000
  H   H2495     1.0  0.38565  0.26055  0.25399  1.0000
  H   H2496     1.0  0.58960  0.31171  0.33767  1.0000
  H   H2497     1.0  0.60501  0.27084  0.35373  1.0000
  H   H2498     1.0  0.43580  0.19562  0.42203  1.0000
  H   H2499     1.0  0.61102  0.41002  0.42520  1.0000
  H   H2500     1.0  0.37182  0.11416  0.42993  1.0000
  C   C1410     1.0  0.44708  0.46566  0.37478  1.0000
  H   H2501     1.0  0.39403  0.14375  0.43769  1.0000
  C   C1411     1.0  0.56423  0.27627  0.36301  1.0000
  C   C1412     1.0  0.44629  0.44333  0.38297  1.0000
  C   C1413     1.0  0.46752  0.43239  0.38579  1.0000
  C   C1414     1.0  0.45861  0.02577  0.43194  1.0000
  H   H2502     1.0  0.41273  0.45445  0.36795  1.0000
  H   H2503     1.0  0.42605  0.46754  0.35095  1.0000
  H   H2504     1.0  0.43842  0.10291  0.43472  1.0000
  H   H2505     1.0  0.39989  0.98768  0.33109  1.0000
  H   H2506     1.0  0.64319  0.10055  0.26247  1.0000
  H   H2507     1.0  0.55383  0.32094  0.46716  1.0000
  H   H2508     1.0  0.53655  0.26693  0.35796  1.0000
  H   H2509     1.0  0.60548  0.27992  0.33328  1.0000
  H   H2510     1.0  0.53668  0.26082  0.38768  1.0000
  H   H2511     1.0  0.43652  0.44264  0.39473  1.0000
  H   H2512     1.0  0.44039  0.43459  0.37531  1.0000
  H   H2513     1.0  0.47333  0.43935  0.39465  1.0000
  H   H2514     1.0  0.46686  0.41606  0.39056  1.0000
  H   H2515     1.0  0.47837  0.43321  0.37450  1.0000
  H   H2516     1.0  0.49867  0.01291  0.42266  1.0000
  H   H2517     1.0  0.57474  0.30935  0.37365  1.0000
  C   C1415     1.0  0.58722  0.30903  0.36339  1.0000
  H   H2518     1.0  0.52960  0.00537  0.41029  1.0000
  C   C1416     1.0  0.43243  0.02182  0.35422  1.0000
  H   H2519     1.0  0.34748  0.09272  0.36480  1.0000
  H   H2520     1.0  0.61855  0.22385  0.33417  1.0000
  H   H2521     1.0  0.37272  0.09550  0.44762  1.0000
  H   H2522     1.0  0.64034  0.08294  0.30238  1.0000
  H   H2523     1.0  0.43003  0.02591  0.36647  1.0000
  H   H2524     1.0  0.62446  0.24800  0.32350  1.0000
  H   H2525     1.0  0.63803  0.36515  0.34737  1.0000
  H   H2526     1.0  0.43167  0.15244  0.41015  1.0000
  C   C1417     1.0  0.55851  0.38643  0.45624  1.0000
  C   C1418     1.0  0.44134  0.11756  0.42736  1.0000
  N   N77       1.0  0.40089  0.26552  0.27306  1.0000
  C   C1419     1.0  0.39184  0.25130  0.28691  1.0000
  C   C1420     1.0  0.42199  0.26837  0.27549  1.0000
  C   C1421     1.0  0.38755  0.28608  0.27276  1.0000
  C   C1422     1.0  0.40131  0.25829  0.25725  1.0000
  C   C1423     1.0  0.41086  0.23591  0.25584  1.0000
  C   C1424     1.0  0.36943  0.24862  0.28698  1.0000
  C   C1425     1.0  0.39503  0.30342  0.25993  1.0000
  C   C1426     1.0  0.43491  0.25011  0.28463  1.0000
  H   H2527     1.0  0.62820  0.37342  0.36637  1.0000
  H   H2528     1.0  0.36621  0.23238  0.31130  1.0000
  H   H2529     1.0  0.45625  0.47284  0.38133  1.0000
  H   H2530     1.0  0.50591  0.44562  0.46182  1.0000
  H   H2531     1.0  0.32719  0.02165  0.34806  1.0000
  H   H2532     1.0  0.46774  0.03854  0.42882  1.0000
  N   N78       1.0  0.41070  0.99221  0.36097  1.0000
  H   H2533     1.0  0.52669  0.32752  0.46648  1.0000
  C   C1427     1.0  0.38687  0.47343  0.34622  1.0000
  N   N79       1.0  0.42679  0.47883  0.37304  1.0000
  H   H2534     1.0  0.50781  0.00903  0.37157  1.0000
  H   H2535     1.0  0.56035  0.99443  0.39141  1.0000
  H   H2536     1.0  0.44772  0.00113  0.39480  1.0000
  H   H2537     1.0  0.64945  0.98847  0.28663  1.0000
  H   H2538     1.0  0.65293  0.11241  0.28465  1.0000
  H   H2539     1.0  0.62254  0.46255  0.32458  1.0000
  H   H2540     1.0  0.43749  0.16528  0.45195  1.0000
  H   H2541     1.0  0.41607  0.21440  0.23877  1.0000
  H   H2542     1.0  0.53710  0.99164  0.38486  1.0000
  H   H2543     1.0  0.63653  0.13685  0.24997  1.0000
  C   C1428     1.0  0.50407  0.45071  0.44909  1.0000
  H   H2544     1.0  0.46144  0.99420  0.44173  1.0000
  C   C1429     1.0  0.32975  0.00592  0.37173  1.0000
  H   H2545     1.0  0.52034  0.47651  0.44497  1.0000
  C   C1430     1.0  0.33644  0.10606  0.36064  1.0000
  H   H2546     1.0  0.38110  0.00794  0.33782  1.0000
  H   H2547     1.0  0.64609  0.10104  0.31374  1.0000
  C   C1431     1.0  0.39520  0.48222  0.35870  1.0000
  C   C1432     1.0  0.48783  0.47741  0.40619  1.0000
  H   H2548     1.0  0.41695  0.24055  0.22979  1.0000
  C   C1433     1.0  0.60587  0.41747  0.43610  1.0000
  C   C1434     1.0  0.41351  0.47959  0.38898  1.0000
  H   H2549     1.0  0.48372  0.99938  0.41451  1.0000
  H   H2550     1.0  0.52269  0.99629  0.44018  1.0000
  H   H2551     1.0  0.37798  0.99255  0.36489  1.0000
  H   H2552     1.0  0.43883  0.98584  0.33279  1.0000
  H   H2553     1.0  0.40335  0.47165  0.42228  1.0000
  H   H2554     1.0  0.38490  0.45723  0.35042  1.0000
  H   H2555     1.0  0.32617  0.09073  0.34430  1.0000
  C   C1435     1.0  0.44064  0.07661  0.46758  1.0000
  H   H2556     1.0  0.32179  0.25326  0.25234  1.0000
  C   C1436     1.0  0.64563  0.17823  0.22089  1.0000
  S   S314      1.0  0.41083  0.25608  0.69890  1.0000
  Fe  Fe160     1.0  0.61265  0.24474  0.70250  1.0000
  C   C1437     1.0  0.62920  0.33402  0.69611  1.0000
  S   S315      1.0  0.59929  0.25020  0.67898  1.0000
  Fe  Fe161     1.0  0.47878  0.22783  0.62215  1.0000
  S   S316      1.0  0.49690  0.19773  0.62987  1.0000
  S   S317      1.0  0.44526  0.22807  0.63133  1.0000
  Fe  Fe162     1.0  0.51556  0.24372  0.60142  1.0000
  S   S318      1.0  0.53582  0.21380  0.60764  1.0000
  S   S319      1.0  0.53303  0.26739  0.58480  1.0000
  Fe  Fe163     1.0  0.51003  0.19817  0.60407  1.0000
  S   S320      1.0  0.51504  0.16772  0.59385  1.0000
  Fe  Fe164     1.0  0.52072  0.21589  0.63283  1.0000
  S   S321      1.0  0.53526  0.20601  0.65567  1.0000
  S   S322      1.0  0.49092  0.22781  0.59599  1.0000
  S   S323      1.0  0.50157  0.24624  0.62699  1.0000
  Fe  Fe165     1.0  0.45604  0.09577  0.55150  1.0000
  S   S324      1.0  0.46266  0.06336  0.56382  1.0000
  S   S325      1.0  0.45604  0.12606  0.56120  1.0000
  Fe  Fe166     1.0  0.44471  0.08065  0.52203  1.0000
  S   S326      1.0  0.45021  0.04773  0.53266  1.0000
  S   S327      1.0  0.44109  0.09050  0.49575  1.0000
  Fe  Fe167     1.0  0.43391  0.05816  0.55560  1.0000
  S   S328      1.0  0.41365  0.03769  0.57278  1.0000
  Fe  Fe168     1.0  0.47813  0.05539  0.53977  1.0000
  S   S329      1.0  0.50866  0.03672  0.53226  1.0000
  S   S330      1.0  0.42623  0.09093  0.54456  1.0000
  S   S331      1.0  0.47363  0.08801  0.52804  1.0000
  Fe  Fe169     1.0  0.53338  0.38703  0.55614  1.0000
  S   S332      1.0  0.56583  0.37757  0.54609  1.0000
  S   S333      1.0  0.51324  0.36476  0.57124  1.0000
  Fe  Fe170     1.0  0.53492  0.43210  0.54290  1.0000
  S   S334      1.0  0.56783  0.42549  0.53208  1.0000
  S   S335      1.0  0.52208  0.46584  0.53856  1.0000
  Fe  Fe171     1.0  0.55839  0.39888  0.52402  1.0000
  S   S336      1.0  0.57238  0.39028  0.49971  1.0000
  Fe  Fe172     1.0  0.57250  0.40512  0.55502  1.0000
  S   S337      1.0  0.60124  0.40043  0.56689  1.0000
  S   S338      1.0  0.52524  0.40662  0.53327  1.0000
  S   S339      1.0  0.54025  0.41342  0.56659  1.0000
  C   C1438     1.0  0.48827  0.45535  0.50435  1.0000
  H   H2557     1.0  0.65360  0.34204  0.70572  1.0000
  C   C1439     1.0  0.42178  0.01542  0.51709  1.0000
  H   H2558     1.0  0.41733  0.23350  0.58860  1.0000
  H   H2559     1.0  0.50130  0.02808  0.58919  1.0000
  H   H2560     1.0  0.48379  0.44887  0.54739  1.0000
  H   H2561     1.0  0.51770  0.36274  0.50733  1.0000
  H   H2562     1.0  0.63869  0.19941  0.61813  1.0000
  C   C1440     1.0  0.55845  0.39112  0.48387  1.0000
  C   C1441     1.0  0.50031  0.21557  0.69933  1.0000
  C   C1442     1.0  0.53735  0.39702  0.48545  1.0000
  H   H2563     1.0  0.46642  0.20096  0.69785  1.0000
  H   H2564     1.0  0.52913  0.40121  0.49665  1.0000
  C   C1443     1.0  0.61112  0.42067  0.57251  1.0000
  C   C1444     1.0  0.60018  0.44038  0.57214  1.0000
  C   C1445     1.0  0.60812  0.45582  0.57739  1.0000
  C   C1446     1.0  0.62719  0.45185  0.58283  1.0000
  C   C1447     1.0  0.63029  0.41673  0.57779  1.0000
  H   H2565     1.0  0.58539  0.44364  0.56814  1.0000
  H   H2566     1.0  0.40340  0.01355  0.47530  1.0000
  H   H2567     1.0  0.40642  0.06809  0.50092  1.0000
  C   C1448     1.0  0.51140  0.00988  0.53443  1.0000
  C   C1449     1.0  0.49690  0.99916  0.54427  1.0000
  H   H2568     1.0  0.51894  0.31992  0.49668  1.0000
  S   S340      1.0  0.35814  0.23351  0.71409  1.0000
  C   C1450     1.0  0.52920  0.99901  0.52703  1.0000
  H   H2569     1.0  0.48313  0.00741  0.55001  1.0000
  H   H2570     1.0  0.61371  0.44230  0.52098  1.0000
  H   H2571     1.0  0.54039  0.00727  0.51931  1.0000
  C   C1451     1.0  0.43148  0.07673  0.48352  1.0000
  C   C1452     1.0  0.34969  0.02515  0.56864  1.0000
  H   H2572     1.0  0.54088  0.27881  0.54804  1.0000
  C   C1453     1.0  0.38933  0.03277  0.57041  1.0000
  C   C1454     1.0  0.38128  0.01617  0.58013  1.0000
  C   C1455     1.0  0.35781  0.04164  0.55882  1.0000
  C   C1456     1.0  0.37754  0.04541  0.55965  1.0000
  H   H2573     1.0  0.34872  0.05166  0.55060  1.0000
  H   H2574     1.0  0.38351  0.05827  0.55214  1.0000
  C   C1457     1.0  0.52698  0.29444  0.58109  1.0000
  C   C1458     1.0  0.50840  0.30491  0.58742  1.0000
  C   C1459     1.0  0.50433  0.32640  0.58408  1.0000
  C   C1460     1.0  0.51879  0.33768  0.57451  1.0000
  C   C1461     1.0  0.53730  0.32722  0.56807  1.0000
  C   C1462     1.0  0.54134  0.30573  0.57133  1.0000
  H   H2575     1.0  0.49715  0.29646  0.59487  1.0000
  H   H2576     1.0  0.48992  0.33434  0.58910  1.0000
  H   H2577     1.0  0.54847  0.33569  0.56062  1.0000
  H   H2578     1.0  0.55571  0.29778  0.56630  1.0000
  C   C1463     1.0  0.49887  0.15651  0.58424  1.0000
  C   C1464     1.0  0.50340  0.13557  0.58269  1.0000
  C   C1465     1.0  0.49079  0.12603  0.57547  1.0000
  C   C1466     1.0  0.47340  0.13731  0.56961  1.0000
  C   C1467     1.0  0.46908  0.15832  0.57095  1.0000
  C   C1468     1.0  0.48175  0.16786  0.57808  1.0000
  H   H2579     1.0  0.51671  0.12659  0.58721  1.0000
  H   H2580     1.0  0.49445  0.10990  0.57454  1.0000
  H   H2581     1.0  0.45588  0.16734  0.56630  1.0000
  H   H2582     1.0  0.47837  0.18407  0.57870  1.0000
  C   C1469     1.0  0.58001  0.23862  0.67373  1.0000
  C   C1470     1.0  0.57442  0.22022  0.68208  1.0000
  C   C1471     1.0  0.56049  0.21060  0.67649  1.0000
  C   C1472     1.0  0.55171  0.21941  0.66271  1.0000
  C   C1473     1.0  0.55683  0.23807  0.65462  1.0000
  C   C1474     1.0  0.57102  0.24752  0.66005  1.0000
  H   H2583     1.0  0.58135  0.21310  0.69253  1.0000
  H   H2584     1.0  0.55686  0.19598  0.68265  1.0000
  H   H2585     1.0  0.55020  0.24502  0.64400  1.0000
  H   H2586     1.0  0.57528  0.26170  0.65348  1.0000
  C   C1475     1.0  0.41973  0.24839  0.68001  1.0000
  C   C1476     1.0  0.41254  0.23242  0.67512  1.0000
  C   C1477     1.0  0.42026  0.22649  0.66005  1.0000
  C   C1478     1.0  0.43573  0.23594  0.65007  1.0000
  C   C1479     1.0  0.44295  0.25184  0.65498  1.0000
  C   C1480     1.0  0.43474  0.25825  0.66980  1.0000
  H   H2587     1.0  0.40086  0.22484  0.68286  1.0000
  H   H2588     1.0  0.41435  0.21446  0.65616  1.0000
  H   H2589     1.0  0.45453  0.25951  0.64719  1.0000
  H   H2590     1.0  0.44012  0.27084  0.67340  1.0000
  C   C1481     1.0  0.45177  0.15222  0.62002  1.0000
  C   C1482     1.0  0.41676  0.15977  0.61401  1.0000
  C   C1483     1.0  0.43943  0.18656  0.60735  1.0000
  C   C1484     1.0  0.46999  0.15796  0.62631  1.0000
  C   C1485     1.0  0.42091  0.15423  0.59676  1.0000
  C   C1486     1.0  0.40315  0.14530  0.59300  1.0000
  C   C1487     1.0  0.48643  0.13947  0.62886  1.0000
  H   H2591     1.0  0.45797  0.14798  0.60797  1.0000
  H   H2592     1.0  0.44745  0.13786  0.62729  1.0000
  H   H2593     1.0  0.40208  0.17029  0.61529  1.0000
  H   H2594     1.0  0.44707  0.18151  0.59592  1.0000
  H   H2595     1.0  0.47699  0.16965  0.61743  1.0000
  H   H2596     1.0  0.42308  0.16784  0.58774  1.0000
  H   H2597     1.0  0.40671  0.14133  0.58066  1.0000
  H   H2598     1.0  0.40067  0.13114  0.60136  1.0000
  H   H2599     1.0  0.38899  0.15656  0.59379  1.0000
  H   H2600     1.0  0.49976  0.14432  0.63247  1.0000
  H   H2601     1.0  0.48058  0.12769  0.63836  1.0000
  H   H2602     1.0  0.49164  0.13275  0.61763  1.0000
  H   H2603     1.0  0.43656  0.21487  0.57972  1.0000
  H   H2604     1.0  0.43612  0.18537  0.63804  1.0000
  H   H2605     1.0  0.35526  0.04891  0.59458  1.0000
  H   H2606     1.0  0.45157  0.01424  0.47284  1.0000
  H   H2607     1.0  0.41344  0.43710  0.58247  1.0000
  N   N80       1.0  0.53133  0.33149  0.51444  1.0000
  C   C1488     1.0  0.53327  0.32526  0.49805  1.0000
  C   C1489     1.0  0.52617  0.31399  0.52728  1.0000
  C   C1490     1.0  0.51388  0.34890  0.51564  1.0000
  C   C1491     1.0  0.55023  0.33906  0.51697  1.0000
  C   C1492     1.0  0.57029  0.32393  0.51539  1.0000
  C   C1493     1.0  0.50733  0.35597  0.53233  1.0000
  C   C1494     1.0  0.53521  0.29197  0.52392  1.0000
  C   C1495     1.0  0.53197  0.27639  0.53892  1.0000
  C   C1496     1.0  0.58863  0.33457  0.51533  1.0000
  H   H2608     1.0  0.47618  0.27222  0.68134  1.0000
  H   H2609     1.0  0.54535  0.31201  0.49647  1.0000
  H   H2610     1.0  0.53052  0.31608  0.53880  1.0000
  H   H2611     1.0  0.50938  0.31393  0.52967  1.0000
  C   C1497     1.0  0.60855  0.20001  0.64393  1.0000
  N   N81       1.0  0.59920  0.19090  0.63243  1.0000
  H   H2612     1.0  0.55245  0.35347  0.50884  1.0000
  H   H2613     1.0  0.54844  0.34333  0.52915  1.0000
  H   H2614     1.0  0.57285  0.31712  0.50420  1.0000
  H   H2615     1.0  0.57003  0.31163  0.52578  1.0000
  C   C1498     1.0  0.57876  0.24303  0.60755  1.0000
  H   H2616     1.0  0.51971  0.36248  0.53581  1.0000
  H   H2617     1.0  0.50333  0.34327  0.54174  1.0000
  H   H2618     1.0  0.52747  0.28778  0.51472  1.0000
  H   H2619     1.0  0.55172  0.29037  0.51955  1.0000
  H   H2620     1.0  0.42419  0.03160  0.51508  1.0000
  H   H2621     1.0  0.53722  0.26069  0.53594  1.0000
  H   H2622     1.0  0.41087  0.01386  0.50916  1.0000
  H   H2623     1.0  0.60268  0.32317  0.51528  1.0000
  H   H2624     1.0  0.59051  0.34606  0.50447  1.0000
  H   H2625     1.0  0.58677  0.34234  0.52604  1.0000
  H   H2626     1.0  0.53847  0.20267  0.70826  1.0000
  H   H2627     1.0  0.39030  0.00629  0.58848  1.0000
  H   H2628     1.0  0.50018  0.34477  0.51193  1.0000
  H   H2629     1.0  0.59708  0.35101  0.58507  1.0000
  C   C1499     1.0  0.47082  0.21219  0.68730  1.0000
  C   C1500     1.0  0.42570  0.17575  0.63510  1.0000
  C   C1501     1.0  0.44205  0.01067  0.48451  1.0000
  H   H2630     1.0  0.38168  0.45977  0.59031  1.0000
  H   H2631     1.0  0.50059  0.26382  0.68785  1.0000
  N   N82       1.0  0.45490  0.00571  0.49784  1.0000
  H   H2632     1.0  0.40980  0.19877  0.59893  1.0000
  H   H2633     1.0  0.32623  0.48315  0.57010  1.0000
  H   H2634     1.0  0.59772  0.99310  0.52482  1.0000
  H   H2635     1.0  0.58539  0.29630  0.64156  1.0000
  H   H2636     1.0  0.49185  0.38586  0.52312  1.0000
  H   H2637     1.0  0.45630  0.22021  0.68320  1.0000
  C   C1502     1.0  0.36803  0.08714  0.58573  1.0000
  H   H2638     1.0  0.48477  0.37780  0.54412  1.0000
  H   H2639     1.0  0.45096  0.19352  0.61170  1.0000
  H   H2640     1.0  0.55215  0.34777  0.48421  1.0000
  H   H2641     1.0  0.50436  0.02268  0.56902  1.0000
  C   C1503     1.0  0.32901  0.03189  0.61379  1.0000
  H   H2642     1.0  0.36770  0.10095  0.57659  1.0000
  C   C1504     1.0  0.41378  0.06783  0.48874  1.0000
  H   H2643     1.0  0.58375  0.25831  0.60460  1.0000
  H   H2644     1.0  0.49717  0.99390  0.50397  1.0000
  S   S341      1.0  0.64658  0.23850  0.70304  1.0000
  H   H2645     1.0  0.60225  0.99183  0.59687  1.0000
  H   H2646     1.0  0.41094  0.18607  0.63461  1.0000
  H   H2647     1.0  0.56673  0.36379  0.62184  1.0000
  H   H2648     1.0  0.61028  0.30428  0.63616  1.0000
  H   H2649     1.0  0.58442  0.99776  0.55328  1.0000
  H   H2650     1.0  0.53196  0.46709  0.49725  1.0000
  C   C1505     1.0  0.47989  0.03071  0.48348  1.0000
  C   C1506     1.0  0.36165  0.01224  0.57915  1.0000
  H   H2651     1.0  0.35685  0.06116  0.61098  1.0000
  H   H2652     1.0  0.54833  0.00880  0.56445  1.0000
  H   H2653     1.0  0.34364  0.46101  0.57692  1.0000
  C   C1507     1.0  0.34690  0.02151  0.62307  1.0000
  C   C1508     1.0  0.53820  0.33764  0.62131  1.0000
  C   C1509     1.0  0.57195  0.16737  0.63305  1.0000
  C   C1510     1.0  0.51266  0.02342  0.57901  1.0000
  C   C1511     1.0  0.54577  0.45539  0.49701  1.0000
  H   H2654     1.0  0.48759  0.20918  0.66310  1.0000
  H   H2655     1.0  0.54126  0.43994  0.50072  1.0000
  H   H2656     1.0  0.47164  0.03691  0.47313  1.0000
  H   H2657     1.0  0.41114  0.15558  0.67492  1.0000
  H   H2658     1.0  0.33222  0.05929  0.63321  1.0000
  H   H2659     1.0  0.54393  0.32405  0.62949  1.0000
  H   H2660     1.0  0.50019  0.45543  0.49373  1.0000
  H   H2661     1.0  0.49222  0.27500  0.65306  1.0000
  H   H2662     1.0  0.48211  0.44069  0.50622  1.0000
  H   H2663     1.0  0.47855  0.24284  0.66792  1.0000
  H   H2664     1.0  0.46553  0.47196  0.49059  1.0000
  H   H2665     1.0  0.61049  0.33415  0.56023  1.0000
  H   H2666     1.0  0.49565  0.18905  0.67837  1.0000
  C   C1512     1.0  0.42998  0.22097  0.59104  1.0000
  H   H2667     1.0  0.36182  0.02408  0.61597  1.0000
  H   H2668     1.0  0.63899  0.44866  0.54432  1.0000
  H   H2669     1.0  0.44185  0.22742  0.59538  1.0000
  C   C1513     1.0  0.41373  0.16798  0.66483  1.0000
  H   H2670     1.0  0.50409  0.23395  0.67069  1.0000
  H   H2671     1.0  0.52271  0.23660  0.69501  1.0000
  C   C1514     1.0  0.39187  0.46495  0.57941  1.0000
  H   H2672     1.0  0.56922  0.13939  0.64982  1.0000
  H   H2673     1.0  0.55434  0.41502  0.59841  1.0000
  H   H2674     1.0  0.60216  0.31053  0.55855  1.0000
  H   H2675     1.0  0.35422  0.48151  0.59548  1.0000
  C   C1515     1.0  0.50154  0.27417  0.66275  1.0000
  C   C1516     1.0  0.48869  0.37254  0.53222  1.0000
  H   H2676     1.0  0.45848  0.47120  0.51171  1.0000
  H   H2677     1.0  0.62444  0.20215  0.60155  1.0000
  H   H2678     1.0  0.39434  0.43599  0.57034  1.0000
  C   C1517     1.0  0.34699  0.99844  0.62690  1.0000
  H   H2679     1.0  0.64071  0.18492  0.67330  1.0000
  H   H2680     1.0  0.57637  0.31407  0.58241  1.0000
  H   H2681     1.0  0.40867  0.99448  0.53689  1.0000
  C   C1518     1.0  0.37981  0.47811  0.56653  1.0000
  C   C1519     1.0  0.59727  0.32565  0.56271  1.0000
  C   C1520     1.0  0.44211  0.00084  0.51383  1.0000
  C   C1521     1.0  0.61508  0.17923  0.62141  1.0000
  H   H2682     1.0  0.62407  0.33427  0.68443  1.0000
  C   C1522     1.0  0.49645  0.47691  0.54344  1.0000
  S   S342      1.0  0.63597  0.47154  0.59013  1.0000
  H   H2683     1.0  0.34870  0.99155  0.61576  1.0000
  H   H2684     1.0  0.56492  0.99865  0.54116  1.0000
  C   C1523     1.0  0.46768  0.23970  0.70325  1.0000
  H   H2685     1.0  0.43112  0.02488  0.48588  1.0000
  H   H2686     1.0  0.35995  0.99135  0.63341  1.0000
  H   H2687     1.0  0.41517  0.45030  0.56235  1.0000
  H   H2688     1.0  0.43659  0.14863  0.65156  1.0000
  C   C1524     1.0  0.41505  0.00123  0.47077  1.0000
  C   C1525     1.0  0.63831  0.43224  0.58289  1.0000
  C   C1526     1.0  0.48932  0.24110  0.67674  1.0000
  C   C1527     1.0  0.46480  0.02405  0.49840  1.0000
  H   H2689     1.0  0.52283  0.03525  0.57519  1.0000
  H   H2690     1.0  0.37335  0.09062  0.59641  1.0000
  H   H2691     1.0  0.45530  0.24900  0.69693  1.0000
  H   H2692     1.0  0.57284  0.35329  0.57883  1.0000
  H   H2693     1.0  0.39079  0.05351  0.48190  1.0000
  H   H2694     1.0  0.51082  0.20685  0.69056  1.0000
  H   H2695     1.0  0.56112  0.17975  0.62745  1.0000
  C   C1528     1.0  0.40443  0.44593  0.57320  1.0000
  S   S343      1.0  0.35804  0.17629  0.71477  1.0000
  H   H2696     1.0  0.57226  0.44538  0.48110  1.0000
  H   H2697     1.0  0.59416  0.31104  0.65402  1.0000
  C   C1529     1.0  0.58595  0.17593  0.64222  1.0000
  C   C1530     1.0  0.58574  0.20743  0.62308  1.0000
  H   H2698     1.0  0.50112  0.05257  0.47561  1.0000
  C   C1531     1.0  0.46017  0.47502  0.54936  1.0000
  H   H2699     1.0  0.59128  0.23618  0.62948  1.0000
  H   H2700     1.0  0.51370  0.99172  0.58805  1.0000
  H   H2701     1.0  0.47510  0.25105  0.70726  1.0000
  H   H2702     1.0  0.50685  0.33567  0.63182  1.0000
  C   C1532     1.0  0.43036  0.99346  0.48248  1.0000
  H   H2703     1.0  0.58336  0.20226  0.61193  1.0000
  C   C1533     1.0  0.34693  0.06077  0.60189  1.0000
  H   H2704     1.0  0.45584  0.19551  0.66401  1.0000
  H   H2705     1.0  0.53768  0.35168  0.62664  1.0000
  C   C1534     1.0  0.57303  0.36344  0.60910  1.0000
  C   C1535     1.0  0.33094  0.15165  0.71100  1.0000
  H   H2706     1.0  0.58514  0.33418  0.55585  1.0000
  C   C1536     1.0  0.46845  0.18589  0.66982  1.0000
  C   C1537     1.0  0.51385  0.22823  0.70537  1.0000
  C   C1538     1.0  0.55924  0.15269  0.64429  1.0000
  H   H2707     1.0  0.57949  0.23677  0.59624  1.0000
  H   H2708     1.0  0.33851  0.21271  0.69236  1.0000
  H   H2709     1.0  0.54942  0.16059  0.65384  1.0000
  H   H2710     1.0  0.34164  0.07888  0.57886  1.0000
  H   H2711     1.0  0.35573  0.99932  0.58657  1.0000
  N   N83       1.0  0.43341  0.16857  0.61913  1.0000
  H   H2712     1.0  0.63195  0.31789  0.70183  1.0000
  H   H2713     1.0  0.33640  0.09383  0.59492  1.0000
  H   H2714     1.0  0.50967  0.34862  0.61160  1.0000
  Fe  Fe173     1.0  0.38961  0.23800  0.71674  1.0000
  H   H2715     1.0  0.49172  0.01789  0.48021  1.0000
  N   N84       1.0  0.48229  0.22737  0.69181  1.0000
  C   C1539     1.0  0.58307  0.34360  0.58696  1.0000
  C   C1540     1.0  0.58545  0.32629  0.61428  1.0000
  C   C1541     1.0  0.53792  0.34189  0.48364  1.0000
  H   H2716     1.0  0.60774  0.17316  0.61288  1.0000
  H   H2717     1.0  0.54445  0.38073  0.60163  1.0000
  C   C1542     1.0  0.54064  0.99541  0.57002  1.0000
  H   H2718     1.0  0.47962  0.06101  0.48969  1.0000
  H   H2719     1.0  0.63096  0.37372  0.69126  1.0000
  H   H2720     1.0  0.62014  0.42342  0.53769  1.0000
  C   C1543     1.0  0.40487  0.05972  0.47789  1.0000
  H   H2721     1.0  0.41382  0.14548  0.62206  1.0000
  H   H2722     1.0  0.55208  0.32314  0.60105  1.0000
  H   H2723     1.0  0.58903  0.36646  0.60799  1.0000
  H   H2724     1.0  0.62296  0.16544  0.62827  1.0000
  H   H2725     1.0  0.44539  0.21964  0.71503  1.0000
  C   C1544     1.0  0.62200  0.18482  0.65498  1.0000
  C   C1545     1.0  0.48227  0.19933  0.67418  1.0000
  H   H2726     1.0  0.44790  0.46598  0.55182  1.0000
  H   H2727     1.0  0.63478  0.17603  0.64789  1.0000
  C   C1546     1.0  0.49079  0.04758  0.48652  1.0000
  H   H2728     1.0  0.61292  0.17401  0.66312  1.0000
  H   H2729     1.0  0.60171  0.31309  0.58662  1.0000
  H   H2730     1.0  0.43464  0.14261  0.59514  1.0000
  H   H2731     1.0  0.51703  0.26601  0.65926  1.0000
  H   H2732     1.0  0.40280  0.47381  0.58250  1.0000
  C   C1547     1.0  0.55832  0.45685  0.48041  1.0000
  H   H2733     1.0  0.41520  0.21122  0.61447  1.0000
  H   H2734     1.0  0.50289  0.28997  0.66424  1.0000
  H   H2735     1.0  0.59542  0.16239  0.64803  1.0000
  H   H2736     1.0  0.49538  0.20374  0.70922  1.0000
  C   C1548     1.0  0.33445  0.47547  0.58016  1.0000
  H   H2737     1.0  0.56270  0.24501  0.61345  1.0000
  H   H2738     1.0  0.57600  0.18305  0.65215  1.0000
  C   C1549     1.0  0.48049  0.46529  0.54690  1.0000
  H   H2739     1.0  0.47541  0.36646  0.52969  1.0000
  S   S344      1.0  0.60904  0.27222  0.71510  1.0000
  C   C1550     1.0  0.63141  0.19118  0.61100  1.0000
  H   H2740     1.0  0.61697  0.34238  0.70399  1.0000
  H   H2741     1.0  0.61802  0.21165  0.63761  1.0000
  C   C1551     1.0  0.62490  0.42900  0.52493  1.0000
  H   H2742     1.0  0.46201  0.17615  0.68059  1.0000
  H   H2743     1.0  0.57029  0.21029  0.63005  1.0000
  H   H2744     1.0  0.51562  0.27757  0.54406  1.0000
  C   C1552     1.0  0.58484  0.32861  0.63209  1.0000
  C   C1553     1.0  0.56092  0.38200  0.59973  1.0000
  H   H2745     1.0  0.39161  0.48337  0.55676  1.0000
  H   H2746     1.0  0.39897  0.17802  0.66360  1.0000
  H   H2747     1.0  0.56286  0.47230  0.47762  1.0000
  C   C1554     1.0  0.49146  0.26329  0.67839  1.0000
  H   H2748     1.0  0.37906  0.07470  0.58074  1.0000
  H   H2749     1.0  0.49999  0.04198  0.49642  1.0000
  H   H2750     1.0  0.41108  0.14936  0.64749  1.0000
  H   H2751     1.0  0.47735  0.17580  0.66132  1.0000
  H   H2752     1.0  0.33264  0.99493  0.63454  1.0000
  H   H2753     1.0  0.37214  0.46798  0.56126  1.0000
  C   C1555     1.0  0.55171  0.33823  0.60486  1.0000
  H   H2754     1.0  0.60193  0.32539  0.60937  1.0000
  H   H2755     1.0  0.39668  0.02065  0.53602  1.0000
  H   H2756     1.0  0.45095  0.00087  0.52371  1.0000
  H   H2757     1.0  0.42465  0.17699  0.66773  1.0000
  H   H2758     1.0  0.60835  0.22832  0.61262  1.0000
  H   H2759     1.0  0.52523  0.35479  0.48319  1.0000
  C   C1556     1.0  0.34675  0.08098  0.59008  1.0000
  H   H2760     1.0  0.45462  0.12813  0.47456  1.0000
  C   C1557     1.0  0.42217  0.15879  0.64949  1.0000
  H   H2761     1.0  0.47292  0.02156  0.50903  1.0000
  H   H2762     1.0  0.61897  0.20470  0.67323  1.0000
  H   H2763     1.0  0.58098  0.15886  0.62358  1.0000
  H   H2764     1.0  0.59932  0.47090  0.57738  1.0000
  H   H2765     1.0  0.59628  0.20846  0.65175  1.0000
  H   H2766     1.0  0.54923  0.14702  0.63747  1.0000
  H   H2767     1.0  0.42111  0.01330  0.54284  1.0000
  H   H2768     1.0  0.55746  0.40180  0.61810  1.0000
  H   H2769     1.0  0.62918  0.39932  0.66844  1.0000
  C   C1558     1.0  0.63117  0.19609  0.66549  1.0000
  H   H2770     1.0  0.54346  0.34933  0.59609  1.0000
  H   H2771     1.0  0.57068  0.99883  0.58260  1.0000
  C   C1559     1.0  0.42199  0.20418  0.60361  1.0000
  H   H2772     1.0  0.46541  0.16406  0.63780  1.0000
  H   H2773     1.0  0.47823  0.98913  0.48222  1.0000
  H   H2774     1.0  0.57943  0.40433  0.60290  1.0000
  C   C1560     1.0  0.56322  0.40194  0.60519  1.0000
  H   H2775     1.0  0.53191  0.99248  0.56094  1.0000
  H   H2776     1.0  0.56926  0.33283  0.63819  1.0000
  C   C1561     1.0  0.64831  0.17678  0.60255  1.0000
  N   N85       1.0  0.57302  0.34287  0.60416  1.0000
  C   C1562     1.0  0.58934  0.32272  0.58056  1.0000
  H   H2777     1.0  0.59378  0.34078  0.63289  1.0000
  H   H2778     1.0  0.45303  0.03763  0.50003  1.0000
  C   C1563     1.0  0.51633  0.33564  0.61993  1.0000
  H   H2779     1.0  0.34565  0.02736  0.63458  1.0000
  H   H2780     1.0  0.64090  0.20691  0.65807  1.0000
  H   H2781     1.0  0.58121  0.31110  0.61374  1.0000
  H   H2782     1.0  0.56649  0.38327  0.58679  1.0000
  C   C1564     1.0  0.59427  0.30883  0.64146  1.0000
  H   H2783     1.0  0.51586  0.32107  0.61559  1.0000
  H   H2784     1.0  0.51056  0.40214  0.47370  1.0000
  H   H2785     1.0  0.33876  0.15198  0.69890  1.0000
  C   C1565     1.0  0.59246  0.22892  0.61859  1.0000
  H   H2786     1.0  0.33092  0.02494  0.60263  1.0000
  H   H2787     1.0  0.63887  0.40153  0.57815  1.0000
  C   C1566     1.0  0.52485  0.00259  0.58407  1.0000
  H   H2788     1.0  0.55497  0.45820  0.50580  1.0000
  H   H2789     1.0  0.62473  0.41658  0.51789  1.0000
  H   H2790     1.0  0.32760  0.22347  0.67450  1.0000
  Fe  Fe174     1.0  0.64226  0.26438  0.71753  1.0000
  H   H2791     1.0  0.32929  0.23986  0.68870  1.0000
  C   C1567     1.0  0.57719  0.98840  0.54697  1.0000
  H   H2792     1.0  0.63371  0.48295  0.54821  1.0000
  H   H2793     1.0  0.43246  0.14635  0.47994  1.0000
  H   H2794     1.0  0.65367  0.18289  0.70355  1.0000
  N   N86       1.0  0.32657  0.05491  0.60997  1.0000
  S   S345      1.0  0.32439  0.02178  0.56758  1.0000
  C   C1568     1.0  0.41153  0.01058  0.53427  1.0000
  H   H2795     1.0  0.54104  0.43776  0.47167  1.0000
  H   H2796     1.0  0.50491  0.23922  0.71309  1.0000
  C   C1569     1.0  0.52688  0.39758  0.47244  1.0000
  H   H2797     1.0  0.32541  0.46182  0.60473  1.0000
  C   C1570     1.0  0.32652  0.22441  0.68741  1.0000
  C   C1571     1.0  0.44711  0.14414  0.47183  1.0000
  H   H2798     1.0  0.45715  0.15446  0.47421  1.0000
  C   C1572     1.0  0.47058  0.98734  0.49479  1.0000
  H   H2799     1.0  0.64196  0.16829  0.59494  1.0000
  C   C1573     1.0  0.64335  0.42155  0.65131  1.0000
  H   H2800     1.0  0.63821  0.41838  0.67683  1.0000
  C   C1574     1.0  0.64628  0.43481  0.52254  1.0000
  H   H2801     1.0  0.53241  0.00385  0.59433  1.0000
  C   C1575     1.0  0.64690  0.45250  0.53194  1.0000
  H   H2802     1.0  0.62869  0.43179  0.65019  1.0000
  C   C1576     1.0  0.64878  0.34344  0.69387  1.0000
  H   H2803     1.0  0.49526  0.45621  0.51501  1.0000
  H   H2804     1.0  0.64308  0.39885  0.69987  1.0000
  H   H2805     1.0  0.63676  0.46570  0.52632  1.0000
  C   C1577     1.0  0.47115  0.47319  0.50173  1.0000
  C   C1578     1.0  0.64197  0.40807  0.66756  1.0000
  C   C1579     1.0  0.52918  0.21443  0.71518  1.0000
  H   H2806     1.0  0.32827  0.09428  0.62074  1.0000
  H   H2807     1.0  0.65046  0.43965  0.50954  1.0000
  H   H2808     1.0  0.64295  0.36463  0.67326  1.0000
  H   H2809     1.0  0.42190  0.98719  0.49394  1.0000
  H   H2810     1.0  0.65281  0.42889  0.58731  1.0000
  C   C1580     1.0  0.64564  0.36592  0.68551  1.0000
  H   H2811     1.0  0.65087  0.36686  0.71868  1.0000
  H   H2812     1.0  0.64656  0.41206  0.64149  1.0000
  C   C1581     1.0  0.45704  0.22743  0.71835  1.0000
  H   H2813     1.0  0.53960  0.22378  0.71837  1.0000
  H   H2814     1.0  0.65448  0.48194  0.55908  1.0000
  H   H2815     1.0  0.43829  0.98506  0.51550  1.0000
  Fe  Fe175     1.0  0.48269  0.26951  0.85404  1.0000
  S   S346      1.0  0.50154  0.24000  0.86234  1.0000
  S   S347      1.0  0.47984  0.29920  0.86446  1.0000
  Fe  Fe176     1.0  0.46451  0.24987  0.83007  1.0000
  S   S348      1.0  0.48196  0.21890  0.83718  1.0000
  S   S349      1.0  0.44466  0.25934  0.81005  1.0000
  Fe  Fe177     1.0  0.47371  0.22578  0.86252  1.0000
  S   S350      1.0  0.45929  0.20697  0.88465  1.0000
  Fe  Fe178     1.0  0.50824  0.23608  0.83625  1.0000
  S   S351      1.0  0.54017  0.22471  0.82481  1.0000
  S   S352      1.0  0.45427  0.25563  0.85543  1.0000
  S   S353      1.0  0.49133  0.26664  0.82792  1.0000
  C   C1582     1.0  0.35707  0.29207  0.75852  1.0000
  S   S354      1.0  0.53903  0.34065  0.95241  1.0000
  H   H2816     1.0  0.56526  0.21709  0.75705  1.0000
  S   S355      1.0  0.52751  0.37921  0.92514  1.0000
  C   C1583     1.0  0.55548  0.44546  0.94494  1.0000
  Fe  Fe179     1.0  0.52083  0.34681  0.93178  1.0000
  S   S356      1.0  0.52807  0.32154  0.91579  1.0000
  Fe  Fe180     1.0  0.54351  0.37380  0.94690  1.0000
  S   S357      1.0  0.57401  0.38564  0.94463  1.0000
  S   S358      1.0  0.49090  0.35565  0.94701  1.0000
  H   H2817     1.0  0.56859  0.35206  0.96962  1.0000
  H   H2818     1.0  0.60615  0.31921  0.96555  1.0000
  C   C1584     1.0  0.53430  0.29484  0.82930  1.0000
  Fe  Fe181     1.0  0.49085  0.11694  0.94989  1.0000
  H   H2819     1.0  0.48780  0.31058  0.93340  1.0000
  S   S359      1.0  0.50664  0.13357  0.92726  1.0000
  H   H2820     1.0  0.44940  0.19349  0.74915  1.0000
  H   H2821     1.0  0.50261  0.17156  0.79762  1.0000
  H   H2822     1.0  0.54258  0.30384  0.85574  1.0000
  C   C1585     1.0  0.46229  0.15662  0.86257  1.0000
  S   S360      1.0  0.49171  0.08295  0.95323  1.0000
  H   H2823     1.0  0.49359  0.31190  0.82762  1.0000
  Fe  Fe182     1.0  0.33580  0.48301  0.93108  1.0000
  Fe  Fe183     1.0  0.34921  0.24166  0.73880  1.0000
  S   S361      1.0  0.35573  0.20933  0.75098  1.0000
  Fe  Fe184     1.0  0.38738  0.21634  0.75088  1.0000
  S   S362      1.0  0.40459  0.20564  0.77231  1.0000
  C   C1586     1.0  0.58980  0.98779  0.93209  1.0000
  N   N87       1.0  0.55560  0.29288  0.83331  1.0000
  S   S363      1.0  0.37995  0.24914  0.74058  1.0000
  Fe  Fe185     1.0  0.60351  0.25032  0.73779  1.0000
  H   H2824     1.0  0.51048  0.09000  0.91755  1.0000
  S   S364      1.0  0.57592  0.26229  0.75480  1.0000
  H   H2825     1.0  0.35093  0.10535  0.77435  1.0000
  H   H2826     1.0  0.43975  0.14428  0.88928  1.0000
  H   H2827     1.0  0.47255  0.33244  0.88274  1.0000
  S   S365      1.0  0.63660  0.24458  0.74112  1.0000
  H   H2828     1.0  0.52700  0.18044  0.79263  1.0000
  Fe  Fe186     1.0  0.36390  0.45654  0.95377  1.0000
  C   C1587     1.0  0.41964  0.05701  0.96280  1.0000
  H   H2829     1.0  0.46418  0.47773  0.87509  1.0000
  S   S366      1.0  0.33021  0.45992  0.95294  1.0000
  H   H2830     1.0  0.58238  0.31356  0.78656  1.0000
  H   H2831     1.0  0.34690  0.31960  0.74241  1.0000
  H   H2832     1.0  0.41129  0.43880  0.88865  1.0000
  H   H2833     1.0  0.46269  0.14724  0.89567  1.0000
  C   C1588     1.0  0.41097  0.04586  0.95385  1.0000
  H   H2834     1.0  0.53895  0.17367  0.96939  1.0000
  H   H2835     1.0  0.56354  0.00149  0.95635  1.0000
  H   H2836     1.0  0.40354  0.29989  0.79639  1.0000
  H   H2837     1.0  0.41115  0.45192  0.95864  1.0000
  H   H2838     1.0  0.49109  0.28108  0.78455  1.0000
  H   H2839     1.0  0.39815  0.14141  0.93588  1.0000
  H   H2840     1.0  0.58754  0.30969  0.84364  1.0000
  H   H2841     1.0  0.59659  0.33887  0.95046  1.0000
  H   H2842     1.0  0.48605  0.11728  0.90539  1.0000
  H   H2843     1.0  0.47591  0.07392  0.90641  1.0000
  H   H2844     1.0  0.57719  0.05728  0.94629  1.0000
  H   H2845     1.0  0.42673  0.15055  0.91483  1.0000
  C   C1589     1.0  0.58378  0.39842  0.95765  1.0000
  H   H2846     1.0  0.55163  0.32274  0.84071  1.0000
  C   C1590     1.0  0.60268  0.40541  0.95266  1.0000
  C   C1591     1.0  0.36095  0.31222  0.74750  1.0000
  H   H2847     1.0  0.49263  0.27415  0.76492  1.0000
  H   H2848     1.0  0.61084  0.40308  0.94098  1.0000
  H   H2849     1.0  0.58207  0.99777  0.92252  1.0000
  C   C1592     1.0  0.42496  0.13424  0.91877  1.0000
  C   C1593     1.0  0.41997  0.40630  0.94458  1.0000
  C   C1594     1.0  0.44131  0.40406  0.94096  1.0000
  H   H2850     1.0  0.52119  0.20668  0.72630  1.0000
  H   H2851     1.0  0.39231  0.30150  0.73776  1.0000
  C   C1595     1.0  0.39539  0.03429  0.96108  1.0000
  H   H2852     1.0  0.36545  0.32316  0.75415  1.0000
  H   H2853     1.0  0.32831  0.32425  0.76643  1.0000
  H   H2854     1.0  0.36352  0.25896  0.79560  1.0000
  H   H2855     1.0  0.57926  0.26805  0.83992  1.0000
  C   C1596     1.0  0.41366  0.13252  0.93580  1.0000
  C   C1597     1.0  0.43367  0.24404  0.79977  1.0000
  C   C1598     1.0  0.43422  0.22300  0.80444  1.0000
  C   C1599     1.0  0.42521  0.21154  0.79591  1.0000
  C   C1600     1.0  0.41566  0.22089  0.78259  1.0000
  C   C1601     1.0  0.41540  0.24187  0.77776  1.0000
  C   C1602     1.0  0.42434  0.25335  0.78633  1.0000
  H   H2856     1.0  0.44136  0.21562  0.81473  1.0000
  H   H2857     1.0  0.42551  0.19532  0.79972  1.0000
  H   H2858     1.0  0.40832  0.24925  0.76745  1.0000
  H   H2859     1.0  0.42408  0.26956  0.78249  1.0000
  C   C1603     1.0  0.47330  0.18763  0.89676  1.0000
  C   C1604     1.0  0.46368  0.17970  0.91174  1.0000
  C   C1605     1.0  0.47398  0.16363  0.92146  1.0000
  C   C1606     1.0  0.49382  0.15499  0.91607  1.0000
  C   C1607     1.0  0.50354  0.16312  0.90117  1.0000
  C   C1608     1.0  0.49336  0.17945  0.89155  1.0000
  H   H2860     1.0  0.44810  0.18585  0.91576  1.0000
  H   H2861     1.0  0.46643  0.15772  0.93300  1.0000
  H   H2862     1.0  0.51893  0.15657  0.89695  1.0000
  H   H2863     1.0  0.50088  0.18542  0.88001  1.0000
  C   C1609     1.0  0.55037  0.23545  0.80551  1.0000
  C   C1610     1.0  0.56891  0.22602  0.79797  1.0000
  C   C1611     1.0  0.57714  0.23406  0.78246  1.0000
  C   C1612     1.0  0.56686  0.25165  0.77442  1.0000
  C   C1613     1.0  0.54852  0.26121  0.78210  1.0000
  C   C1614     1.0  0.54033  0.25319  0.79756  1.0000
  H   H2864     1.0  0.57686  0.21233  0.80408  1.0000
  H   H2865     1.0  0.59134  0.22661  0.77669  1.0000
  H   H2866     1.0  0.54050  0.27486  0.77598  1.0000
  H   H2867     1.0  0.52614  0.26067  0.80321  1.0000
  C   C1615     1.0  0.49339  0.30498  0.87881  1.0000
  C   C1616     1.0  0.51109  0.29256  0.88311  1.0000
  C   C1617     1.0  0.52162  0.29801  0.89430  1.0000
  C   C1618     1.0  0.51439  0.31572  0.90153  1.0000
  C   C1619     1.0  0.49655  0.32800  0.89738  1.0000
  C   C1620     1.0  0.48621  0.32271  0.88600  1.0000
  H   H2868     1.0  0.51663  0.27880  0.87783  1.0000
  H   H2869     1.0  0.53535  0.28835  0.89750  1.0000
  H   H2870     1.0  0.49082  0.34165  0.90283  1.0000
  H   H2871     1.0  0.44480  0.47053  0.92772  1.0000
  N   N88       1.0  0.49640  0.21097  0.77861  1.0000
  C   C1621     1.0  0.50113  0.20511  0.79553  1.0000
  C   C1622     1.0  0.48650  0.23303  0.77594  1.0000
  H   H2872     1.0  0.43227  0.45835  0.87515  1.0000
  C   C1623     1.0  0.51505  0.20695  0.76646  1.0000
  C   C1624     1.0  0.53343  0.21761  0.76724  1.0000
  H   H2873     1.0  0.51671  0.99618  0.95165  1.0000
  C   C1625     1.0  0.58391  0.03427  0.96618  1.0000
  C   C1626     1.0  0.49424  0.24850  0.78415  1.0000
  C   C1627     1.0  0.48631  0.27052  0.77769  1.0000
  H   H2874     1.0  0.33228  0.16942  0.74556  1.0000
  C   C1628     1.0  0.51452  0.17815  0.81737  1.0000
  H   H2875     1.0  0.48682  0.20761  0.80405  1.0000
  H   H2876     1.0  0.51114  0.21508  0.79845  1.0000
  H   H2877     1.0  0.48751  0.23875  0.76292  1.0000
  H   H2878     1.0  0.50815  0.18732  0.95423  1.0000
  H   H2879     1.0  0.58042  0.28864  0.85817  1.0000
  H   H2880     1.0  0.58614  0.29618  0.82168  1.0000
  H   H2881     1.0  0.52042  0.19024  0.76710  1.0000
  H   H2882     1.0  0.51123  0.21183  0.75418  1.0000
  H   H2883     1.0  0.53701  0.21616  0.77955  1.0000
  H   H2884     1.0  0.53031  0.23403  0.76233  1.0000
  H   H2885     1.0  0.33432  0.04702  0.75872  1.0000
  C   C1629     1.0  0.55150  0.26209  0.85564  1.0000
  Fe  Fe187     1.0  0.63915  0.21899  0.72648  1.0000
  H   H2886     1.0  0.45939  0.21847  0.76259  1.0000
  H   H2887     1.0  0.48891  0.24608  0.79721  1.0000
  H   H2888     1.0  0.51092  0.24679  0.78241  1.0000
  H   H2889     1.0  0.44963  0.39097  0.93569  1.0000
  H   H2890     1.0  0.36782  0.25456  0.77503  1.0000
  H   H2891     1.0  0.56060  0.26081  0.83065  1.0000
  S   S367      1.0  0.32592  0.48079  0.90699  1.0000
  H   H2892     1.0  0.38869  0.02604  0.95399  1.0000
  H   H2893     1.0  0.45508  0.28220  0.94354  1.0000
  C   C1630     1.0  0.48124  0.19773  0.77648  1.0000
  H   H2894     1.0  0.49953  0.17908  0.82510  1.0000
  H   H2895     1.0  0.52281  0.16244  0.81989  1.0000
  H   H2896     1.0  0.45714  0.24823  0.73537  1.0000
  H   H2897     1.0  0.60335  0.12184  0.96558  1.0000
  C   C1631     1.0  0.45177  0.41906  0.94380  1.0000
  H   H2898     1.0  0.56747  0.31635  0.81534  1.0000
  S   S368      1.0  0.36140  0.48038  0.96985  1.0000
  C   C1632     1.0  0.51168  0.18285  0.79978  1.0000
  C   C1633     1.0  0.55262  0.20841  0.75711  1.0000
  S   S369      1.0  0.38252  0.42502  0.95673  1.0000
  C   C1634     1.0  0.37761  0.30824  0.73346  1.0000
  H   H2899     1.0  0.48349  0.13291  0.87301  1.0000
  H   H2900     1.0  0.54273  0.07055  0.95925  1.0000
  H   H2901     1.0  0.41418  0.08091  0.89029  1.0000
  H   H2902     1.0  0.45403  0.09489  0.88532  1.0000
  H   H2903     1.0  0.37967  0.32283  0.72557  1.0000
  C   C1635     1.0  0.43297  0.08717  0.90678  1.0000
  H   H2904     1.0  0.38596  0.30573  0.77283  1.0000
  S   S370      1.0  0.60535  0.22311  0.72504  1.0000
  H   H2905     1.0  0.46204  0.12416  0.86749  1.0000
  C   C1636     1.0  0.51936  0.01509  0.96879  1.0000
  H   H2906     1.0  0.48502  0.10414  0.88925  1.0000
  C   C1637     1.0  0.35500  0.30333  0.78539  1.0000
  H   H2907     1.0  0.64103  0.39927  0.72928  1.0000
  H   H2908     1.0  0.55700  0.47740  0.94248  1.0000
  H   H2909     1.0  0.44511  0.10657  0.92617  1.0000
  H   H2910     1.0  0.44305  0.07798  0.91510  1.0000
  H   H2911     1.0  0.41971  0.09488  0.91417  1.0000
  H   H2912     1.0  0.32885  0.26880  0.77491  1.0000
  H   H2913     1.0  0.42302  0.99200  0.94595  1.0000
  Fe  Fe188     1.0  0.49899  0.38747  0.94202  1.0000
  H   H2914     1.0  0.43713  0.23252  0.74045  1.0000
  H   H2915     1.0  0.38054  0.29506  0.80942  1.0000
  C   C1638     1.0  0.61118  0.41542  0.96262  1.0000
  H   H2916     1.0  0.50532  0.30536  0.80814  1.0000
  H   H2917     1.0  0.48682  0.29102  0.95065  1.0000
  H   H2918     1.0  0.43526  0.25387  0.72481  1.0000
  S   S371      1.0  0.39894  0.20545  0.72706  1.0000
  C   C1639     1.0  0.33860  0.27395  0.78230  1.0000
  C   C1640     1.0  0.40902  0.42348  0.95106  1.0000
  H   H2919     1.0  0.46896  0.19716  0.78694  1.0000
  H   H2920     1.0  0.33530  0.29065  0.72515  1.0000
  H   H2921     1.0  0.33708  0.23622  0.80168  1.0000
  H   H2922     1.0  0.58573  0.28921  0.77953  1.0000
  S   S372      1.0  0.60844  0.02557  0.95654  1.0000
  H   H2923     1.0  0.45524  0.46760  0.85066  1.0000
  H   H2924     1.0  0.53211  0.47032  0.94990  1.0000
  H   H2925     1.0  0.54930  0.99921  0.94140  1.0000
  H   H2926     1.0  0.50358  0.16147  0.95442  1.0000
  C   C1641     1.0  0.58602  0.29680  0.79005  1.0000
  H   H2927     1.0  0.57683  0.23890  0.86213  1.0000
  C   C1642     1.0  0.57524  0.30454  0.85295  1.0000
  H   H2928     1.0  0.44767  0.18393  0.77009  1.0000
  C   C1643     1.0  0.32722  0.16164  0.73721  1.0000
  H   H2929     1.0  0.37689  0.44585  0.90403  1.0000
  S   S373      1.0  0.64037  0.47273  0.96361  1.0000
  H   H2930     1.0  0.32918  0.27518  0.79412  1.0000
  H   H2931     1.0  0.46995  0.23435  0.78056  1.0000
  C   C1644     1.0  0.32389  0.07701  0.77728  1.0000
  C   C1645     1.0  0.57043  0.28923  0.80386  1.0000
  H   H2932     1.0  0.41084  0.33356  0.95839  1.0000
  H   H2933     1.0  0.45645  0.12874  0.92266  1.0000
  H   H2934     1.0  0.56054  0.31296  0.87610  1.0000
  C   C1646     1.0  0.55265  0.46529  0.96817  1.0000
  H   H2935     1.0  0.47362  0.08584  0.92414  1.0000
  C   C1647     1.0  0.42503  0.07244  0.89837  1.0000
  H   H2936     1.0  0.41146  0.35824  0.94619  1.0000
  C   C1648     1.0  0.52543  0.31626  0.82126  1.0000
  H   H2937     1.0  0.42178  0.13886  0.94363  1.0000
  H   H2938     1.0  0.45492  0.21257  0.95554  1.0000
  H   H2939     1.0  0.44577  0.16055  0.86168  1.0000
  H   H2940     1.0  0.37209  0.28278  0.75986  1.0000
  H   H2941     1.0  0.43164  0.11271  0.88811  1.0000
  N   N89       1.0  0.45553  0.11639  0.90112  1.0000
  H   H2942     1.0  0.41620  0.04633  0.94120  1.0000
  S   S374      1.0  0.51545  0.38400  0.96321  1.0000
  H   H2943     1.0  0.47076  0.15590  0.85037  1.0000
  H   H2944     1.0  0.34958  0.28340  0.75175  1.0000
  C   C1649     1.0  0.37854  0.29761  0.78404  1.0000
  H   H2945     1.0  0.48380  0.17975  0.96295  1.0000
  H   H2946     1.0  0.41695  0.06161  0.90742  1.0000
  C   C1650     1.0  0.55520  0.30640  0.84579  1.0000
  H   H2947     1.0  0.50648  0.06377  0.91987  1.0000
  H   H2948     1.0  0.55266  0.27088  0.86520  1.0000
  H   H2949     1.0  0.46866  0.40876  0.90753  1.0000
  H   H2950     1.0  0.33536  0.06312  0.77919  1.0000
  C   C1651     1.0  0.50407  0.07885  0.91231  1.0000
  H   H2951     1.0  0.46806  0.21582  0.72440  1.0000
  C   C1652     1.0  0.44799  0.21264  0.94466  1.0000
  C   C1653     1.0  0.50441  0.31619  0.81680  1.0000
  H   H2952     1.0  0.53339  0.28333  0.82160  1.0000
  H   H2953     1.0  0.55217  0.23406  0.87241  1.0000
  C   C1654     1.0  0.55690  0.99012  0.95145  1.0000
  H   H2954     1.0  0.48868  0.18167  0.77605  1.0000
  H   H2955     1.0  0.49842  0.33170  0.81118  1.0000
  H   H2956     1.0  0.43784  0.06349  0.89140  1.0000
  C   C1655     1.0  0.57238  0.31784  0.86621  1.0000
  C   C1656     1.0  0.35269  0.09683  0.76405  1.0000
  N   N90       1.0  0.46991  0.25981  0.91808  1.0000
  C   C1657     1.0  0.48585  0.24833  0.90695  1.0000
  C   C1658     1.0  0.45356  0.27181  0.90872  1.0000
  C   C1659     1.0  0.47989  0.27512  0.92398  1.0000
  C   C1660     1.0  0.46092  0.24599  0.93233  1.0000
  C   C1661     1.0  0.45991  0.22372  0.93001  1.0000
  C   C1662     1.0  0.50579  0.23867  0.91384  1.0000
  C   C1663     1.0  0.46551  0.29026  0.93418  1.0000
  C   C1664     1.0  0.44187  0.25946  0.90061  1.0000
  C   C1665     1.0  0.42695  0.27374  0.89067  1.0000
  C   C1666     1.0  0.50050  0.17462  0.96125  1.0000
  C   C1667     1.0  0.51773  0.22171  0.90470  1.0000
  C   C1668     1.0  0.47756  0.30177  0.94240  1.0000
  H   H2957     1.0  0.49022  0.25867  0.89579  1.0000
  H   H2958     1.0  0.47972  0.23614  0.90276  1.0000
  H   H2959     1.0  0.44164  0.28061  0.91654  1.0000
  H   H2960     1.0  0.46025  0.28331  0.89926  1.0000
  H   H2961     1.0  0.48793  0.28446  0.91374  1.0000
  H   H2962     1.0  0.49181  0.26717  0.93135  1.0000
  H   H2963     1.0  0.46972  0.24449  0.94249  1.0000
  H   H2964     1.0  0.44526  0.25300  0.93688  1.0000
  H   H2965     1.0  0.47541  0.21485  0.92831  1.0000
  H   H2966     1.0  0.45267  0.22311  0.91948  1.0000
  H   H2967     1.0  0.51571  0.25059  0.91293  1.0000
  H   H2968     1.0  0.50264  0.23218  0.92660  1.0000
  C   C1669     1.0  0.55207  0.05806  0.96552  1.0000
  H   H2969     1.0  0.45630  0.30191  0.92646  1.0000
  H   H2970     1.0  0.45231  0.24992  0.89245  1.0000
  H   H2971     1.0  0.43276  0.24968  0.90972  1.0000
  H   H2972     1.0  0.41550  0.28319  0.89834  1.0000
  H   H2973     1.0  0.43521  0.28395  0.88119  1.0000
  H   H2974     1.0  0.41885  0.26457  0.88486  1.0000
  C   C1670     1.0  0.35618  0.25633  0.78561  1.0000
  H   H2975     1.0  0.53216  0.21561  0.90963  1.0000
  H   H2976     1.0  0.50875  0.20899  0.90588  1.0000
  H   H2977     1.0  0.52147  0.22768  0.89189  1.0000
  C   C1671     1.0  0.43350  0.48347  0.92352  1.0000
  H   H2978     1.0  0.43188  0.22008  0.94637  1.0000
  H   H2979     1.0  0.32352  0.08511  0.78766  1.0000
  H   H2980     1.0  0.34844  0.29910  0.79808  1.0000
  H   H2981     1.0  0.52345  0.29121  0.84031  1.0000
  H   H2982     1.0  0.41811  0.48118  0.92986  1.0000
  C   C1672     1.0  0.43303  0.35090  0.96344  1.0000
  H   H2983     1.0  0.52354  0.18897  0.82040  1.0000
  C   C1673     1.0  0.34823  0.23588  0.79060  1.0000
  H   H2984     1.0  0.55538  0.29272  0.79961  1.0000
  H   H2985     1.0  0.48840  0.42458  0.90020  1.0000
  C   C1674     1.0  0.54859  0.46617  0.95077  1.0000
  H   H2986     1.0  0.39961  0.98839  0.95912  1.0000
  C   C1675     1.0  0.59217  0.32880  0.96171  1.0000
  C   C1676     1.0  0.56055  0.23996  0.86077  1.0000
  H   H2987     1.0  0.48236  0.40796  0.88773  1.0000
  H   H2988     1.0  0.38366  0.28111  0.78389  1.0000
  C   C1677     1.0  0.57028  0.29949  0.81882  1.0000
  H   H2989     1.0  0.46890  0.17381  0.75633  1.0000
  C   C1678     1.0  0.44382  0.10314  0.89454  1.0000
  C   C1679     1.0  0.46674  0.13605  0.87305  1.0000
  Fe  Fe189     1.0  0.45871  0.08879  0.96382  1.0000
  C   C1680     1.0  0.48130  0.08562  0.91173  1.0000
  C   C1681     1.0  0.33232  0.09105  0.76220  1.0000
  C   C1682     1.0  0.42090  0.34468  0.95195  1.0000
  H   H2990     1.0  0.38640  0.43232  0.92195  1.0000
  H   H2991     1.0  0.58806  0.48031  0.95785  1.0000
  C   C1683     1.0  0.38667  0.30364  0.79792  1.0000
  C   C1684     1.0  0.43218  0.47194  0.88093  1.0000
  H   H2992     1.0  0.46942  0.27303  0.77895  1.0000
  H   H2993     1.0  0.50340  0.03484  0.95054  1.0000
  H   H2994     1.0  0.55003  0.20920  0.74458  1.0000
  C   C1685     1.0  0.44079  0.43636  0.95006  1.0000
  H   H2995     1.0  0.36420  0.08297  0.76575  1.0000
  C   C1686     1.0  0.47040  0.20427  0.76140  1.0000
  C   C1687     1.0  0.57157  0.05048  0.95819  1.0000
  S   S375      1.0  0.43886  0.07176  0.95296  1.0000
  H   H2996     1.0  0.57217  0.44102  0.94470  1.0000
  H   H2997     1.0  0.52364  0.32774  0.82950  1.0000
  C   C1688     1.0  0.56262  0.27075  0.83927  1.0000
  H   H2998     1.0  0.38628  0.41889  0.90552  1.0000
  Fe  Fe190     1.0  0.62896  0.99731  0.96631  1.0000
  C   C1689     1.0  0.44625  0.12082  0.91767  1.0000
  C   C1690     1.0  0.45559  0.13667  0.89035  1.0000
  C   C1691     1.0  0.47745  0.10671  0.90141  1.0000
  H   H2999     1.0  0.55194  0.44632  0.93264  1.0000
  C   C1692     1.0  0.52108  0.99363  0.96386  1.0000
  H   H3000     1.0  0.41218  0.11635  0.94067  1.0000
  H   H3001     1.0  0.42093  0.42505  0.90652  1.0000
  H   H3002     1.0  0.51241  0.07745  0.90015  1.0000
  H   H3003     1.0  0.46721  0.16890  0.86758  1.0000
  H   H3004     1.0  0.35828  0.10683  0.75309  1.0000
  H   H3005     1.0  0.41526  0.12996  0.91098  1.0000
  N   N91       1.0  0.43335  0.46614  0.89856  1.0000
  H   H3006     1.0  0.58690  0.31640  0.87113  1.0000
  C   C1693     1.0  0.41402  0.45810  0.90657  1.0000
  C   C1694     1.0  0.45842  0.18783  0.75913  1.0000
  C   C1695     1.0  0.45189  0.45082  0.90206  1.0000
  C   C1696     1.0  0.45998  0.43513  0.89021  1.0000
  C   C1697     1.0  0.50055  0.02911  0.96349  1.0000
  H   H3007     1.0  0.55927  0.23015  0.85187  1.0000
  C   C1698     1.0  0.41003  0.43809  0.90174  1.0000
  C   C1699     1.0  0.38860  0.43358  0.90875  1.0000
  C   C1700     1.0  0.47582  0.41813  0.89685  1.0000
  H   H3008     1.0  0.56744  0.13699  0.96491  1.0000
  H   H3009     1.0  0.54749  0.43351  0.95278  1.0000
  S   S376      1.0  0.36983  0.47798  0.93121  1.0000
  H   H3010     1.0  0.60162  0.29305  0.79337  1.0000
  H   H3011     1.0  0.41378  0.45474  0.91972  1.0000
  H   H3012     1.0  0.40066  0.47003  0.90447  1.0000
  H   H3013     1.0  0.53424  0.14925  0.96731  1.0000
  Fe  Fe191     1.0  0.50957  0.35149  0.96704  1.0000
  H   H3014     1.0  0.46502  0.45869  0.90257  1.0000
  H   H3015     1.0  0.44889  0.44212  0.91421  1.0000
  H   H3016     1.0  0.46741  0.44275  0.87880  1.0000
  H   H3017     1.0  0.44775  0.42783  0.88740  1.0000
  H   H3018     1.0  0.32949  0.02444  0.74030  1.0000
  H   H3019     1.0  0.36115  0.22354  0.79286  1.0000
  C   C1701     1.0  0.32499  0.30859  0.77144  1.0000
  H   H3020     1.0  0.34087  0.23226  0.78095  1.0000
  H   H3021     1.0  0.38246  0.32030  0.79835  1.0000
  S   S377      1.0  0.45760  0.12300  0.95876  1.0000
  H   H3022     1.0  0.53528  0.32140  0.81015  1.0000
  H   H3023     1.0  0.48137  0.20706  0.75043  1.0000
  H   H3024     1.0  0.53521  0.26245  0.85488  1.0000
  H   H3025     1.0  0.57447  0.27242  0.80644  1.0000
  H   H3026     1.0  0.64910  0.29467  0.74296  1.0000
  H   H3027     1.0  0.41732  0.48162  0.87905  1.0000
  N   N92       1.0  0.34441  0.29444  0.77453  1.0000
  H   H3028     1.0  0.64729  0.14262  0.78258  1.0000
  H   H3029     1.0  0.32189  0.05078  0.73260  1.0000
  H   H3030     1.0  0.56784  0.33416  0.86154  1.0000
  S   S378      1.0  0.47827  0.41768  0.93820  1.0000
  H   H3031     1.0  0.35204  0.32034  0.78328  1.0000
  H   H3032     1.0  0.55738  0.19226  0.76209  1.0000
  C   C1702     1.0  0.44910  0.48394  0.87130  1.0000
  C   C1703     1.0  0.41947  0.43862  0.95364  1.0000
  H   H3033     1.0  0.48705  0.02110  0.96583  1.0000
  H   H3034     1.0  0.62578  0.42059  0.95861  1.0000
  H   H3035     1.0  0.58184  0.31881  0.95927  1.0000
  H   H3036     1.0  0.44883  0.44802  0.95225  1.0000
  H   H3037     1.0  0.44822  0.19654  0.94301  1.0000
  Fe  Fe192     1.0  0.36645  0.20147  0.72627  1.0000
  H   H3038     1.0  0.56872  0.45815  0.96859  1.0000
  C   C1704     1.0  0.44603  0.24143  0.73045  1.0000
  H   H3039     1.0  0.44362  0.36098  0.95628  1.0000
  H   H3040     1.0  0.43153  0.33742  0.94246  1.0000
  H   H3041     1.0  0.53291  0.02245  0.96340  1.0000
  H   H3042     1.0  0.41186  0.39481  0.94223  1.0000
  C   C1705     1.0  0.33728  0.16244  0.72156  1.0000
  H   H3043     1.0  0.59648  0.99738  0.93859  1.0000
  H   H3044     1.0  0.46695  0.31267  0.94940  1.0000
  H   H3045     1.0  0.33485  0.08332  0.75142  1.0000
  H   H3046     1.0  0.37333  0.29767  0.72632  1.0000
  C   C1706     1.0  0.45070  0.48350  0.85339  1.0000
  H   H3047     1.0  0.44217  0.33680  0.96867  1.0000
  H   H3048     1.0  0.41074  0.37616  0.97003  1.0000
  H   H3049     1.0  0.59987  0.14863  0.96736  1.0000
  H   H3050     1.0  0.43954  0.99794  0.96935  1.0000
  H   H3051     1.0  0.49704  0.04231  0.97022  1.0000
  Fe  Fe193     1.0  0.52768  0.70781  0.10353  1.0000
  S   S379      1.0  0.49793  0.72653  0.11146  1.0000
  S   S380      1.0  0.55804  0.70869  0.11174  1.0000
  Fe  Fe194     1.0  0.50825  0.68592  0.08166  1.0000
  S   S381      1.0  0.47713  0.70281  0.08876  1.0000
  S   S382      1.0  0.51762  0.66515  0.06213  1.0000
  Fe  Fe195     1.0  0.49304  0.73046  0.08560  1.0000
  S   S383      1.0  0.47967  0.76019  0.07162  1.0000
  Fe  Fe196     1.0  0.48494  0.69732  0.11382  1.0000
  S   S384      1.0  0.46642  0.68380  0.13656  1.0000
  S   S385      1.0  0.52376  0.71385  0.07754  1.0000
  S   S386      1.0  0.51511  0.67820  0.10700  1.0000
  Fe  Fe197     1.0  0.51652  0.83043  0.99196  1.0000
  C   C1707     1.0  0.48930  0.77589  0.99760  1.0000
  S   S387      1.0  0.52959  0.80434  0.00971  1.0000
  Fe  Fe198     1.0  0.48559  0.86859  0.98499  1.0000
  C   C1708     1.0  0.32500  0.65938  0.20171  1.0000
  C   C1709     1.0  0.42205  0.91208  0.99518  1.0000
  H   H3052     1.0  0.50965  0.54916  0.06566  1.0000
  S   S388      1.0  0.48448  0.83507  0.98665  1.0000
  S   S389      1.0  0.51680  0.86385  0.99247  1.0000
  Fe  Fe199     1.0  0.47590  0.60973  0.00155  1.0000
  S   S390      1.0  0.50798  0.60629  0.98910  1.0000
  S   S391      1.0  0.46412  0.63118  0.02034  1.0000
  Fe  Fe200     1.0  0.46406  0.57666  0.98435  1.0000
  H   H3053     1.0  0.48695  0.92118  0.98349  1.0000
  S   S392      1.0  0.45961  0.88932  0.99734  1.0000
  Fe  Fe201     1.0  0.50717  0.57253  0.99354  1.0000
  S   S393      1.0  0.53017  0.54848  0.00534  1.0000
  H   H3054     1.0  0.56022  0.57868  0.05370  1.0000
  S   S394      1.0  0.47589  0.57588  0.00758  1.0000
  S   S395      1.0  0.46131  0.61122  0.97936  1.0000
  Fe  Fe202     1.0  0.38021  0.72245  0.20291  1.0000
  H   H3055     1.0  0.48349  0.68572  0.16515  1.0000
  S   S396      1.0  0.39638  0.73548  0.17898  1.0000
  H   H3056     1.0  0.43240  0.96204  0.01589  1.0000
  H   H3057     1.0  0.54364  0.66138  0.13419  1.0000
  C   C1710     1.0  0.34708  0.62166  0.15723  1.0000
  H   H3058     1.0  0.38228  0.52648  0.00352  1.0000
  H   H3059     1.0  0.54725  0.71070  0.02483  1.0000
  C   C1711     1.0  0.49385  0.51745  0.98311  1.0000
  Fe  Fe203     1.0  0.63346  0.75949  0.19922  1.0000
  H   H3060     1.0  0.50636  0.60574  0.05133  1.0000
  Fe  Fe204     1.0  0.59824  0.74384  0.18748  1.0000
  S   S397      1.0  0.59000  0.72619  0.21173  1.0000
  S   S398      1.0  0.57466  0.74901  0.16997  1.0000
  S   S399      1.0  0.49568  0.57134  0.97070  1.0000
  Fe  Fe205     1.0  0.62381  0.71683  0.21195  1.0000
  S   S400      1.0  0.60062  0.77212  0.19769  1.0000
  S   S401      1.0  0.63207  0.73247  0.18689  1.0000
  C   C1712     1.0  0.54494  0.60954  0.05600  1.0000
  H   H3061     1.0  0.48783  0.53051  0.98983  1.0000
  H   H3062     1.0  0.41511  0.65321  0.20475  1.0000
  C   C1713     1.0  0.49425  0.66888  0.18675  1.0000
  H   H3063     1.0  0.33491  0.62322  0.14963  1.0000
  H   H3064     1.0  0.34101  0.61523  0.16955  1.0000
  C   C1714     1.0  0.58315  0.90177  0.98403  1.0000
  N   N93       1.0  0.43863  0.98042  0.99299  1.0000
  H   H3065     1.0  0.44451  0.70341  0.06819  1.0000
  H   H3066     1.0  0.46646  0.76322  0.01495  1.0000
  C   C1715     1.0  0.54743  0.97917  0.98055  1.0000
  H   H3067     1.0  0.41858  0.52066  0.99073  1.0000
  C   C1716     1.0  0.40294  0.97585  0.00896  1.0000
  S   S402      1.0  0.61384  0.92423  0.98287  1.0000
  H   H3068     1.0  0.37070  0.55163  0.99670  1.0000
  H   H3069     1.0  0.51848  0.73869  0.02349  1.0000
  H   H3070     1.0  0.51490  0.69789  0.19446  1.0000
  C   C1717     1.0  0.46319  0.94606  0.98947  1.0000
  H   H3071     1.0  0.33727  0.93362  0.10921  1.0000
  C   C1718     1.0  0.55579  0.54326  0.99663  1.0000
  C   C1719     1.0  0.56340  0.55424  0.98222  1.0000
  H   H3072     1.0  0.63883  0.51609  0.08350  1.0000
  C   C1720     1.0  0.59681  0.53337  0.98324  1.0000
  C   C1721     1.0  0.58915  0.52244  0.99765  1.0000
  C   C1722     1.0  0.56880  0.52760  0.00445  1.0000
  H   H3073     1.0  0.55396  0.49695  0.99537  1.0000
  H   H3074     1.0  0.37871  0.79455  0.20784  1.0000
  H   H3075     1.0  0.59903  0.51020  0.00365  1.0000
  H   H3076     1.0  0.56304  0.51920  0.01569  1.0000
  H   H3077     1.0  0.49096  0.76006  0.02120  1.0000
  H   H3078     1.0  0.50540  0.58348  0.06539  1.0000
  C   C1723     1.0  0.52559  0.49300  0.97471  1.0000
  H   H3079     1.0  0.35905  0.64840  0.14464  1.0000
  H   H3080     1.0  0.42096  0.91188  0.00792  1.0000
  H   H3081     1.0  0.54804  0.51795  0.05889  1.0000
  C   C1724     1.0  0.53133  0.52267  0.06147  1.0000
  H   H3082     1.0  0.38423  0.83518  0.97969  1.0000
  C   C1725     1.0  0.55966  0.61304  0.06669  1.0000
  H   H3083     1.0  0.51942  0.50941  0.99583  1.0000
  S   S403      1.0  0.39075  0.69263  0.21732  1.0000
  C   C1726     1.0  0.47676  0.65626  0.19033  1.0000
  C   C1727     1.0  0.44741  0.69867  0.14831  1.0000
  C   C1728     1.0  0.44009  0.71895  0.14283  1.0000
  C   C1729     1.0  0.42458  0.73011  0.15243  1.0000
  C   C1730     1.0  0.41639  0.72116  0.16759  1.0000
  C   C1731     1.0  0.42400  0.70100  0.17318  1.0000
  C   C1732     1.0  0.43930  0.68975  0.16350  1.0000
  H   H3084     1.0  0.44616  0.72594  0.13112  1.0000
  H   H3085     1.0  0.41879  0.74573  0.14803  1.0000
  H   H3086     1.0  0.41805  0.69407  0.18492  1.0000
  H   H3087     1.0  0.44479  0.67404  0.16777  1.0000
  C   C1733     1.0  0.56205  0.71935  0.12840  1.0000
  C   C1734     1.0  0.58048  0.71310  0.13473  1.0000
  C   C1735     1.0  0.58452  0.72167  0.14762  1.0000
  C   C1736     1.0  0.57034  0.73699  0.15408  1.0000
  C   C1737     1.0  0.55200  0.74340  0.14760  1.0000
  C   C1738     1.0  0.54775  0.73445  0.13500  1.0000
  H   H3088     1.0  0.59173  0.70151  0.12965  1.0000
  H   H3089     1.0  0.59873  0.71665  0.15238  1.0000
  H   H3090     1.0  0.54105  0.75544  0.15236  1.0000
  H   H3091     1.0  0.53366  0.73962  0.13012  1.0000
  C   C1739     1.0  0.51533  0.79274  0.02699  1.0000
  C   C1740     1.0  0.52494  0.77561  0.03613  1.0000
  C   C1741     1.0  0.51420  0.76572  0.04988  1.0000
  C   C1742     1.0  0.49369  0.77272  0.05460  1.0000
  C   C1743     1.0  0.48405  0.78996  0.04553  1.0000
  C   C1744     1.0  0.49483  0.79997  0.03178  1.0000
  H   H3092     1.0  0.54076  0.76988  0.03249  1.0000
  H   H3093     1.0  0.52173  0.75255  0.05673  1.0000
  H   H3094     1.0  0.46820  0.79560  0.04915  1.0000
  H   H3095     1.0  0.48733  0.81328  0.02491  1.0000
  C   C1745     1.0  0.50219  0.65670  0.05036  1.0000
  C   C1746     1.0  0.51142  0.64911  0.03614  1.0000
  C   C1747     1.0  0.49998  0.64138  0.02678  1.0000
  C   C1748     1.0  0.47913  0.64113  0.03154  1.0000
  C   C1749     1.0  0.46980  0.64922  0.04552  1.0000
  C   C1750     1.0  0.48125  0.65684  0.05494  1.0000
  H   H3096     1.0  0.52756  0.64913  0.03239  1.0000
  H   H3097     1.0  0.50726  0.63564  0.01586  1.0000
  H   H3098     1.0  0.45364  0.64925  0.04925  1.0000
  H   H3099     1.0  0.47392  0.66257  0.06586  1.0000
  H   H3100     1.0  0.53372  0.54846  0.07245  1.0000
  N   N94       1.0  0.48569  0.71938  0.01839  1.0000
  C   C1751     1.0  0.46983  0.72521  0.03217  1.0000
  C   C1752     1.0  0.48762  0.73775  0.00556  1.0000
  C   C1753     1.0  0.47854  0.70303  0.01142  1.0000
  C   C1754     1.0  0.50601  0.71056  0.02374  1.0000
  C   C1755     1.0  0.51590  0.72456  0.03174  1.0000
  C   C1756     1.0  0.46484  0.70789  0.04588  1.0000
  C   C1757     1.0  0.49142  0.69652  0.99579  1.0000
  C   C1758     1.0  0.48306  0.75926  0.01106  1.0000
  H   H3101     1.0  0.37660  0.49639  0.01699  1.0000
  C   C1759     1.0  0.53683  0.71424  0.03580  1.0000
  C   C1760     1.0  0.36743  0.49142  0.00913  1.0000
  H   H3102     1.0  0.48170  0.77601  0.98704  1.0000
  H   H3103     1.0  0.45527  0.73216  0.02761  1.0000
  H   H3104     1.0  0.47428  0.73708  0.03795  1.0000
  S   S404      1.0  0.44108  0.55410  0.98687  1.0000
  C   C1761     1.0  0.37247  0.54015  0.00747  1.0000
  H   H3105     1.0  0.63821  0.51186  0.11978  1.0000
  H   H3106     1.0  0.47854  0.68866  0.02003  1.0000
  H   H3107     1.0  0.50491  0.69607  0.03205  1.0000
  H   H3108     1.0  0.51731  0.70635  0.01340  1.0000
  H   H3109     1.0  0.50626  0.72834  0.04296  1.0000
  H   H3110     1.0  0.45922  0.69553  0.04156  1.0000
  H   H3111     1.0  0.47847  0.70142  0.05177  1.0000
  H   H3112     1.0  0.64731  0.81039  0.15853  1.0000
  H   H3113     1.0  0.62584  0.87996  0.97507  1.0000
  C   C1762     1.0  0.38357  0.79479  0.21956  1.0000
  H   H3114     1.0  0.36301  0.86276  0.98506  1.0000
  H   H3115     1.0  0.33556  0.49290  0.00696  1.0000
  H   H3116     1.0  0.54360  0.72462  0.04152  1.0000
  H   H3117     1.0  0.53556  0.69990  0.04419  1.0000
  H   H3118     1.0  0.34235  0.55033  0.01857  1.0000
  H   H3119     1.0  0.33928  0.65292  0.16094  1.0000
  H   H3120     1.0  0.54998  0.61683  0.04375  1.0000
  Fe  Fe206     1.0  0.63994  0.49566  0.98010  1.0000
  C   C1763     1.0  0.57041  0.96372  0.00137  1.0000
  H   H3121     1.0  0.56829  0.59141  0.02777  1.0000
  N   N95       1.0  0.55814  0.77521  0.08299  1.0000
  C   C1764     1.0  0.55481  0.78955  0.06784  1.0000
  C   C1765     1.0  0.53783  0.76950  0.09115  1.0000
  C   C1766     1.0  0.56767  0.78574  0.09346  1.0000
  C   C1767     1.0  0.57226  0.75591  0.07956  1.0000
  C   C1768     1.0  0.56747  0.74526  0.06621  1.0000
  C   C1769     1.0  0.57427  0.79606  0.05723  1.0000
  C   C1770     1.0  0.52188  0.78730  0.09700  1.0000
  C   C1771     1.0  0.50292  0.77946  0.10668  1.0000
  C   C1772     1.0  0.58128  0.72483  0.06505  1.0000
  C   C1773     1.0  0.56920  0.80826  0.04132  1.0000
  H   H3122     1.0  0.54506  0.80400  0.07062  1.0000
  H   H3123     1.0  0.54611  0.78297  0.06052  1.0000
  H   H3124     1.0  0.53048  0.76278  0.08299  1.0000
  H   H3125     1.0  0.53989  0.75715  0.10142  1.0000
  H   H3126     1.0  0.58349  0.78781  0.08799  1.0000
  H   H3127     1.0  0.58835  0.75874  0.07645  1.0000
  H   H3128     1.0  0.57219  0.74440  0.09052  1.0000
  H   H3129     1.0  0.56965  0.75483  0.05438  1.0000
  H   H3130     1.0  0.55161  0.74220  0.06861  1.0000
  H   H3131     1.0  0.58125  0.80593  0.06329  1.0000
  H   H3132     1.0  0.58582  0.78276  0.05454  1.0000
  H   H3133     1.0  0.52799  0.79579  0.10469  1.0000
  H   H3134     1.0  0.51686  0.79818  0.08668  1.0000
  H   H3135     1.0  0.49181  0.79249  0.11068  1.0000
  H   H3136     1.0  0.49554  0.77169  0.09924  1.0000
  H   H3137     1.0  0.50691  0.76872  0.11740  1.0000
  H   H3138     1.0  0.59752  0.72708  0.06235  1.0000
  H   H3139     1.0  0.57894  0.71429  0.07642  1.0000
  H   H3140     1.0  0.57758  0.71761  0.05536  1.0000
  H   H3141     1.0  0.58321  0.81321  0.03405  1.0000
  H   H3142     1.0  0.56291  0.79876  0.03444  1.0000
  H   H3143     1.0  0.55790  0.82207  0.04328  1.0000
  N   N96       1.0  0.53063  0.58107  0.04614  1.0000
  C   C1774     1.0  0.50886  0.58881  0.05238  1.0000
  C   C1775     1.0  0.54434  0.58642  0.05657  1.0000
  C   C1776     1.0  0.53531  0.59078  0.02905  1.0000
  C   C1777     1.0  0.53405  0.55820  0.04656  1.0000
  C   C1778     1.0  0.52641  0.54552  0.06257  1.0000
  C   C1779     1.0  0.49242  0.58355  0.04368  1.0000
  H   H3144     1.0  0.39871  0.95775  0.03254  1.0000
  H   H3145     1.0  0.53147  0.68028  0.17360  1.0000
  H   H3146     1.0  0.45959  0.58617  0.04565  1.0000
  H   H3147     1.0  0.53956  0.58048  0.06928  1.0000
  H   H3148     1.0  0.53076  0.60758  0.02793  1.0000
  H   H3149     1.0  0.52595  0.58558  0.02140  1.0000
  H   H3150     1.0  0.52691  0.55387  0.03709  1.0000
  H   H3151     1.0  0.55056  0.55251  0.04365  1.0000
  C   C1780     1.0  0.40057  0.79461  0.98410  1.0000
  H   H3152     1.0  0.64857  0.49628  0.03816  1.0000
  H   H3153     1.0  0.49459  0.56716  0.04236  1.0000
  H   H3154     1.0  0.50610  0.77369  0.99418  1.0000
  C   C1781     1.0  0.42561  0.96678  0.00460  1.0000
  H   H3155     1.0  0.45313  0.94172  0.98208  1.0000
  H   H3156     1.0  0.55351  0.56639  0.97612  1.0000
  S   S405      1.0  0.62235  0.52741  0.97444  1.0000
  H   H3157     1.0  0.32473  0.92262  0.12827  1.0000
  C   C1782     1.0  0.35805  0.89150  0.99380  1.0000
  H   H3158     1.0  0.56008  0.88252  0.98528  1.0000
  H   H3159     1.0  0.39700  0.50966  0.97378  1.0000
  C   C1783     1.0  0.40542  0.92141  0.98725  1.0000
  H   H3160     1.0  0.47676  0.73858  0.99690  1.0000
  C   C1784     1.0  0.48513  0.93802  0.98301  1.0000
  H   H3161     1.0  0.42537  0.95235  0.00004  1.0000
  H   H3162     1.0  0.39155  0.92822  0.99386  1.0000
  H   H3163     1.0  0.63363  0.90191  0.20669  1.0000
  H   H3164     1.0  0.35300  0.88517  0.00636  1.0000
  H   H3165     1.0  0.38646  0.79745  0.97844  1.0000
  N   N97       1.0  0.40682  0.85128  0.98514  1.0000
  C   C1785     1.0  0.42541  0.84759  0.99355  1.0000
  C   C1786     1.0  0.40508  0.64124  0.20677  1.0000
  C   C1787     1.0  0.39133  0.86694  0.99313  1.0000
  C   C1788     1.0  0.39733  0.83217  0.98654  1.0000
  C   C1789     1.0  0.42668  0.54646  0.97377  1.0000
  C   C1790     1.0  0.42201  0.83984  0.01173  1.0000
  H   H3166     1.0  0.55801  0.95639  0.00915  1.0000
  Fe  Fe207     1.0  0.63074  0.95175  0.97534  1.0000
  H   H3167     1.0  0.39228  0.94637  0.01668  1.0000
  S   S406      1.0  0.62230  0.97767  0.98991  1.0000
  C   C1791     1.0  0.44220  0.83409  0.01845  1.0000
  C   C1792     1.0  0.56066  0.59732  0.00405  1.0000
  H   H3168     1.0  0.43207  0.86198  0.99202  1.0000
  H   H3169     1.0  0.43768  0.83662  0.98804  1.0000
  C   C1793     1.0  0.37196  0.87518  0.98500  1.0000
  H   H3170     1.0  0.61657  0.51600  0.10919  1.0000
  H   H3171     1.0  0.39860  0.88035  0.99397  1.0000
  H   H3172     1.0  0.38579  0.86063  0.00562  1.0000
  H   H3173     1.0  0.39061  0.82754  0.99909  1.0000
  C   C1794     1.0  0.41136  0.81346  0.98041  1.0000
  H   H3174     1.0  0.42545  0.80952  0.98604  1.0000
  C   C1795     1.0  0.34487  0.50096  0.01274  1.0000
  H   H3175     1.0  0.41275  0.85196  0.01831  1.0000
  H   H3176     1.0  0.41430  0.82611  0.01435  1.0000
  H   H3177     1.0  0.63270  0.53548  0.10654  1.0000
  H   H3178     1.0  0.36027  0.61088  0.15253  1.0000
  H   H3179     1.0  0.49317  0.70976  0.98635  1.0000
  N   N98       1.0  0.33978  0.52374  0.00804  1.0000
  H   H3180     1.0  0.34085  0.49661  0.02580  1.0000
  H   H3181     1.0  0.63736  0.86131  0.17205  1.0000
  H   H3182     1.0  0.48097  0.64204  0.19849  1.0000
  H   H3183     1.0  0.36053  0.63718  0.18071  1.0000
  H   H3184     1.0  0.33807  0.56201  0.99046  1.0000
  C   C1796     1.0  0.56777  0.96570  0.98380  1.0000
  H   H3185     1.0  0.45168  0.82104  0.01308  1.0000
  H   H3186     1.0  0.45075  0.84731  0.01607  1.0000
  H   H3187     1.0  0.43929  0.82950  0.03157  1.0000
  H   H3188     1.0  0.53511  0.97370  0.98980  1.0000
  H   H3189     1.0  0.32231  0.82227  0.20941  1.0000
  H   H3190     1.0  0.34437  0.89717  0.98776  1.0000
  N   N99       1.0  0.37902  0.65995  0.16816  1.0000
  C   C1797     1.0  0.36395  0.67908  0.16509  1.0000
  C   C1798     1.0  0.36913  0.64120  0.16861  1.0000
  C   C1799     1.0  0.38507  0.65938  0.18446  1.0000
  C   C1800     1.0  0.39814  0.65994  0.15613  1.0000
  C   C1801     1.0  0.39550  0.66326  0.13828  1.0000
  C   C1802     1.0  0.37173  0.69955  0.16491  1.0000
  C   C1803     1.0  0.39795  0.63922  0.19119  1.0000
  C   C1804     1.0  0.48147  0.68147  0.98920  1.0000
  H   H3191     1.0  0.37127  0.66225  0.19343  1.0000
  C   C1805     1.0  0.41558  0.66682  0.12769  1.0000
  H   H3192     1.0  0.43376  0.72219  0.05315  1.0000
  C   C1806     1.0  0.46022  0.96949  0.98973  1.0000
  C   C1807     1.0  0.34368  0.52858  0.99007  1.0000
  H   H3193     1.0  0.35818  0.68009  0.15358  1.0000
  H   H3194     1.0  0.38098  0.62773  0.16663  1.0000
  H   H3195     1.0  0.47968  0.66764  0.99814  1.0000
  H   H3196     1.0  0.57541  0.60594  0.06261  1.0000
  H   H3197     1.0  0.39404  0.67183  0.18438  1.0000
  H   H3198     1.0  0.40706  0.67164  0.15796  1.0000
  H   H3199     1.0  0.40843  0.64522  0.15801  1.0000
  H   H3200     1.0  0.38411  0.67671  0.13516  1.0000
  H   H3201     1.0  0.39103  0.64943  0.13518  1.0000
  H   H3202     1.0  0.37528  0.70076  0.17683  1.0000
  H   H3203     1.0  0.38555  0.70107  0.15601  1.0000
  H   H3204     1.0  0.41176  0.63498  0.18275  1.0000
  H   H3205     1.0  0.38887  0.62643  0.19373  1.0000
  H   H3206     1.0  0.37559  0.96772  0.02414  1.0000
  H   H3207     1.0  0.39868  0.55253  0.01129  1.0000
  H   H3208     1.0  0.49114  0.67653  0.97832  1.0000
  H   H3209     1.0  0.46249  0.70797  0.00911  1.0000
  H   H3210     1.0  0.39186  0.64515  0.21591  1.0000
  H   H3211     1.0  0.41363  0.66837  0.11492  1.0000
  H   H3212     1.0  0.42041  0.68109  0.12974  1.0000
  H   H3213     1.0  0.42781  0.65383  0.13018  1.0000
  C   C1808     1.0  0.44791  0.71601  0.05846  1.0000
  H   H3214     1.0  0.53206  0.72062  0.20687  1.0000
  H   H3215     1.0  0.36144  0.73216  0.16086  1.0000
  H   H3216     1.0  0.64229  0.89389  0.17795  1.0000
  H   H3217     1.0  0.35022  0.67855  0.17427  1.0000
  H   H3218     1.0  0.57190  0.80147  0.12078  1.0000
  H   H3219     1.0  0.49309  0.71656  0.19300  1.0000
  C   C1809     1.0  0.50790  0.71071  0.18618  1.0000
  C   C1810     1.0  0.43977  0.90237  0.98680  1.0000
  H   H3220     1.0  0.37493  0.56319  0.02195  1.0000
  C   C1811     1.0  0.58002  0.78575  0.11992  1.0000
  H   H3221     1.0  0.47446  0.69733  0.18241  1.0000
  H   H3222     1.0  0.55953  0.80151  0.09425  1.0000
  H   H3223     1.0  0.59592  0.78647  0.11403  1.0000
  H   H3224     1.0  0.58430  0.89814  0.99665  1.0000
  H   H3225     1.0  0.46627  0.68864  0.98604  1.0000
  N   N100      1.0  0.50463  0.70305  0.17137  1.0000
  C   C1812     1.0  0.48846  0.68930  0.17595  1.0000
  H   H3226     1.0  0.58053  0.77743  0.13222  1.0000
  C   C1813     1.0  0.63255  0.51873  0.10834  1.0000
  H   H3227     1.0  0.51188  0.67116  0.15205  1.0000
  H   H3228     1.0  0.52974  0.61759  0.06033  1.0000
  C   C1814     1.0  0.52458  0.69176  0.16432  1.0000
  C   C1815     1.0  0.49756  0.72037  0.15900  1.0000
  C   C1816     1.0  0.47822  0.73503  0.16459  1.0000
  C   C1817     1.0  0.52188  0.72746  0.18350  1.0000
  C   C1818     1.0  0.52384  0.68116  0.14972  1.0000
  C   C1819     1.0  0.47345  0.75260  0.15132  1.0000
  C   C1820     1.0  0.52437  0.73374  0.19930  1.0000
  C   C1821     1.0  0.54413  0.66788  0.14518  1.0000
  H   H3229     1.0  0.53596  0.70238  0.16014  1.0000
  H   H3230     1.0  0.50996  0.72957  0.15399  1.0000
  H   H3231     1.0  0.49402  0.71426  0.14864  1.0000
  H   H3232     1.0  0.48009  0.74184  0.17507  1.0000
  H   H3233     1.0  0.46480  0.72686  0.16780  1.0000
  H   H3234     1.0  0.53734  0.72182  0.17776  1.0000
  H   H3235     1.0  0.51559  0.74139  0.17593  1.0000
  H   H3236     1.0  0.52088  0.69278  0.13922  1.0000
  H   H3237     1.0  0.48603  0.76193  0.14815  1.0000
  H   H3238     1.0  0.47114  0.74666  0.14053  1.0000
  H   H3239     1.0  0.45924  0.76256  0.15543  1.0000
  H   H3240     1.0  0.50938  0.73958  0.20579  1.0000
  S   S407      1.0  0.35573  0.96511  0.99339  1.0000
  H   H3241     1.0  0.55682  0.67707  0.14276  1.0000
  H   H3242     1.0  0.54719  0.65511  0.15490  1.0000
  H   H3243     1.0  0.52556  0.51385  0.07297  1.0000
  H   H3244     1.0  0.64807  0.88672  0.15033  1.0000
  H   H3245     1.0  0.35197  0.71785  0.14844  1.0000
  H   H3246     1.0  0.33899  0.94331  0.12723  1.0000
  Fe  Fe208     1.0  0.32198  0.96692  0.99332  1.0000
  H   H3247     1.0  0.58076  0.97280  0.97673  1.0000
  H   H3248     1.0  0.33173  0.78445  0.21327  1.0000
  C   C1822     1.0  0.51684  0.51205  0.98317  1.0000
  C   C1823     1.0  0.55776  0.58628  0.02115  1.0000
  H   H3249     1.0  0.50767  0.65942  0.18090  1.0000
  H   H3250     1.0  0.55952  0.62972  0.06615  1.0000
  H   H3251     1.0  0.33640  0.51836  0.98449  1.0000
  H   H3252     1.0  0.53408  0.74605  0.19690  1.0000
  H   H3253     1.0  0.39664  0.79041  0.99719  1.0000
  H   H3254     1.0  0.49592  0.94154  0.99030  1.0000
  C   C1824     1.0  0.65279  0.79953  0.21792  1.0000
  H   H3255     1.0  0.45978  0.93797  0.00179  1.0000
  H   H3256     1.0  0.55359  0.77360  0.11746  1.0000
  H   H3257     1.0  0.57677  0.59368  0.99859  1.0000
  H   H3258     1.0  0.48474  0.79101  0.00177  1.0000
  C   C1825     1.0  0.41671  0.52924  0.97910  1.0000
  N   N101      1.0  0.54807  0.48536  0.97477  1.0000
  H   H3259     1.0  0.32806  0.67488  0.19814  1.0000
  H   H3260     1.0  0.50679  0.68871  0.99806  1.0000
  H   H3261     1.0  0.58513  0.95403  0.00339  1.0000
  H   H3262     1.0  0.55496  0.60662  0.07929  1.0000
  H   H3263     1.0  0.57739  0.75882  0.11060  1.0000
  H   H3264     1.0  0.38701  0.53765  0.02876  1.0000
  C   C1826     1.0  0.64563  0.50907  0.09442  1.0000
  H   H3265     1.0  0.49771  0.67169  0.19832  1.0000
  C   C1827     1.0  0.56899  0.77453  0.11069  1.0000
  H   H3266     1.0  0.47361  0.65194  0.17913  1.0000
  H   H3267     1.0  0.55682  0.61411  0.00385  1.0000
  C   C1828     1.0  0.35330  0.64254  0.15708  1.0000
  S   S408      1.0  0.34735  0.71726  0.20633  1.0000
  H   H3268     1.0  0.56854  0.95009  0.98099  1.0000
  C   C1829     1.0  0.38387  0.54891  0.01810  1.0000
  H   H3269     1.0  0.52394  0.51891  0.05188  1.0000
  C   C1830     1.0  0.47109  0.58876  0.05271  1.0000
  H   H3270     1.0  0.36602  0.90470  0.99367  1.0000
  H   H3271     1.0  0.45262  0.72827  0.06366  1.0000
  H   H3272     1.0  0.49290  0.59262  0.03161  1.0000
  H   H3273     1.0  0.55090  0.59220  0.99673  1.0000
  C   C1831     1.0  0.64240  0.82376  0.16507  1.0000
  H   H3274     1.0  0.46809  0.60504  0.05455  1.0000
  H   H3275     1.0  0.56234  0.56971  0.02059  1.0000
  H   H3276     1.0  0.46933  0.57896  0.06447  1.0000
  H   H3277     1.0  0.50306  0.73618  0.99839  1.0000
  C   C1832     1.0  0.35559  0.71773  0.16062  1.0000
  H   H3278     1.0  0.46273  0.66499  0.19614  1.0000
  C   C1833     1.0  0.32769  0.62793  0.22005  1.0000
  C   C1834     1.0  0.56943  0.89284  0.97761  1.0000
  C   C1835     1.0  0.33561  0.55080  0.98309  1.0000
  S   S409      1.0  0.32650  0.95224  0.97089  1.0000
  H   H3279     1.0  0.64462  0.49252  0.09674  1.0000
  C   C1836     1.0  0.32882  0.93701  0.12096  1.0000
  H   H3280     1.0  0.37383  0.49566  0.99653  1.0000
  H   H3281     1.0  0.64884  0.52110  0.04350  1.0000
  H   H3282     1.0  0.46921  0.97122  0.99911  1.0000
  H   H3283     1.0  0.41079  0.78152  0.97930  1.0000
  C   C1837     1.0  0.58396  0.54952  0.97569  1.0000
  H   H3284     1.0  0.35358  0.52690  0.02838  1.0000
  H   H3285     1.0  0.39509  0.97895  0.99823  1.0000
  C   C1838     1.0  0.35137  0.53530  0.01631  1.0000
  H   H3286     1.0  0.41383  0.62652  0.21146  1.0000
  H   H3287     1.0  0.52996  0.95172  0.97222  1.0000
  H   H3288     1.0  0.36009  0.52525  0.98545  1.0000
  H   H3289     1.0  0.34148  0.71718  0.16937  1.0000
  C   C1839     1.0  0.39178  0.96094  0.02134  1.0000
  C   C1840     1.0  0.64966  0.89555  0.20818  1.0000
  H   H3290     1.0  0.57053  0.97896  0.00477  1.0000
  H   H3291     1.0  0.65020  0.49398  0.06700  1.0000
  C   C1841     1.0  0.34173  0.53997  0.22018  1.0000
  C   C1842     1.0  0.33244  0.64778  0.21517  1.0000
  H   H3292     1.0  0.34106  0.54511  0.20726  1.0000
  H   H3293     1.0  0.53273  0.65671  0.97252  1.0000
  H   H3294     1.0  0.48593  0.50438  0.98897  1.0000
  C   C1843     1.0  0.65371  0.85474  0.17224  1.0000
  H   H3295     1.0  0.37582  0.88228  0.97247  1.0000
  H   H3296     1.0  0.58994  0.49662  0.97206  1.0000
  H   H3297     1.0  0.39083  0.80865  0.21874  1.0000
  H   H3298     1.0  0.62797  0.83222  0.16119  1.0000
  H   H3299     1.0  0.64716  0.86687  0.20191  1.0000
  C   C1844     1.0  0.59559  0.91508  0.97427  1.0000
  C   C1845     1.0  0.40645  0.92099  0.97090  1.0000
  H   H3300     1.0  0.52392  0.52555  0.97705  1.0000
  H   H3301     1.0  0.41823  0.95973  0.97565  1.0000
  H   H3302     1.0  0.63953  0.81799  0.17803  1.0000
  H   H3303     1.0  0.46806  0.97667  0.97823  1.0000
  H   H3304     1.0  0.49028  0.52194  0.97071  1.0000
  H   H3305     1.0  0.65482  0.84656  0.18450  1.0000
  S   S410      1.0  0.35222  0.70436  0.24430  1.0000
  Fe  Fe209     1.0  0.38452  0.71043  0.23807  1.0000
  S   S411      1.0  0.40663  0.70201  0.25636  1.0000
  S   S412      1.0  0.56990  0.76915  0.23944  1.0000
  Fe  Fe210     1.0  0.45788  0.75406  0.31104  1.0000
  S   S413      1.0  0.47351  0.72205  0.31697  1.0000
  S   S414      1.0  0.43687  0.76435  0.29211  1.0000
  Fe  Fe211     1.0  0.47715  0.77078  0.33597  1.0000
  S   S415      1.0  0.49381  0.73954  0.34384  1.0000
  S   S416      1.0  0.47786  0.80221  0.34313  1.0000
  Fe  Fe212     1.0  0.50083  0.73697  0.31752  1.0000
  S   S417      1.0  0.53199  0.72396  0.30587  1.0000
  Fe  Fe213     1.0  0.46493  0.72730  0.34257  1.0000
  S   S418      1.0  0.44733  0.70600  0.36133  1.0000
  S   S419      1.0  0.48581  0.76862  0.30974  1.0000
  S   S420      1.0  0.44762  0.75882  0.33657  1.0000
  Fe  Fe214     1.0  0.53058  0.87288  0.38854  1.0000
  S   S421      1.0  0.53894  0.89771  0.36864  1.0000
  S   S422      1.0  0.52906  0.83993  0.38497  1.0000
  Fe  Fe215     1.0  0.53027  0.90064  0.41435  1.0000
  S   S423      1.0  0.53848  0.92707  0.39612  1.0000
  S   S424      1.0  0.52212  0.90734  0.43993  1.0000
  Fe  Fe216     1.0  0.51572  0.91886  0.38281  1.0000
  S   S425      1.0  0.48900  0.94099  0.37427  1.0000
  Fe  Fe217     1.0  0.56097  0.90368  0.38396  1.0000
  S   S426      1.0  0.59510  0.90386  0.37648  1.0000
  S   S427      1.0  0.50610  0.89366  0.40177  1.0000
  S   S428      1.0  0.55407  0.87755  0.40316  1.0000
  Fe  Fe218     1.0  0.43945  0.58627  0.38280  1.0000
  S   S429      1.0  0.40534  0.59107  0.38870  1.0000
  S   S430      1.0  0.45956  0.60886  0.36819  1.0000
  Fe  Fe219     1.0  0.44309  0.54137  0.39874  1.0000
  S   S431      1.0  0.40926  0.54291  0.40541  1.0000
  S   S432      1.0  0.46186  0.51276  0.40952  1.0000
  Fe  Fe220     1.0  0.40711  0.56022  0.38093  1.0000
  S   S433      1.0  0.38784  0.55518  0.36294  1.0000
  Fe  Fe221     1.0  0.41065  0.57311  0.41275  1.0000
  S   S434      1.0  0.39265  0.57982  0.43651  1.0000
  S   S435      1.0  0.44106  0.55639  0.37358  1.0000
  S   S436      1.0  0.44457  0.57069  0.40744  1.0000
  C   C1846     1.0  0.40542  0.58030  0.45283  1.0000
  C   C1847     1.0  0.42654  0.57978  0.45091  1.0000
  H   H3306     1.0  0.53234  0.83485  0.43834  1.0000
  H   H3307     1.0  0.43545  0.57839  0.43940  1.0000
  H   H3308     1.0  0.47384  0.69359  0.41276  1.0000
  C   C1848     1.0  0.54043  0.90243  0.45307  1.0000
  C   C1849     1.0  0.55935  0.89065  0.44940  1.0000
  H   H3309     1.0  0.56317  0.88481  0.43809  1.0000
  C   C1850     1.0  0.62986  0.92148  0.37006  1.0000
  C   C1851     1.0  0.60847  0.92507  0.37248  1.0000
  C   C1852     1.0  0.59848  0.94519  0.37138  1.0000
  C   C1853     1.0  0.57382  0.94032  0.42303  1.0000
  H   H3310     1.0  0.58202  0.94815  0.37322  1.0000
  H   H3311     1.0  0.49299  0.74107  0.27737  1.0000
  H   H3312     1.0  0.45065  0.60685  0.42127  1.0000
  H   H3313     1.0  0.37700  0.80988  0.24823  1.0000
  H   H3314     1.0  0.36131  0.61549  0.25005  1.0000
  H   H3315     1.0  0.46915  0.69158  0.39292  1.0000
  C   C1854     1.0  0.34388  0.50787  0.37205  1.0000
  C   C1855     1.0  0.34665  0.52020  0.35728  1.0000
  C   C1856     1.0  0.36004  0.53475  0.35472  1.0000
  C   C1857     1.0  0.37067  0.53717  0.36691  1.0000
  C   C1858     1.0  0.36763  0.52506  0.38176  1.0000
  C   C1859     1.0  0.35428  0.51047  0.38431  1.0000
  H   H3316     1.0  0.36230  0.54410  0.34321  1.0000
  H   H3317     1.0  0.37563  0.52688  0.39125  1.0000
  C   C1860     1.0  0.50755  0.73067  0.25462  1.0000
  H   H3318     1.0  0.47334  0.65606  0.41824  1.0000
  H   H3319     1.0  0.50091  0.77190  0.25789  1.0000
  C   C1861     1.0  0.33478  0.53356  0.29932  1.0000
  C   C1862     1.0  0.48518  0.96615  0.37874  1.0000
  C   C1863     1.0  0.46610  0.97439  0.38622  1.0000
  C   C1864     1.0  0.60883  0.92140  0.33124  1.0000
  H   H3320     1.0  0.58142  0.50828  0.43027  1.0000
  H   H3321     1.0  0.47980  0.48868  0.46864  1.0000
  H   H3322     1.0  0.45439  0.96475  0.39023  1.0000
  H   H3323     1.0  0.44207  0.97972  0.36320  1.0000
  C   C1865     1.0  0.49189  0.81217  0.35526  1.0000
  C   C1866     1.0  0.50560  0.79972  0.36465  1.0000
  C   C1867     1.0  0.51676  0.80848  0.37363  1.0000
  C   C1868     1.0  0.51429  0.82978  0.37352  1.0000
  C   C1869     1.0  0.50046  0.84222  0.36422  1.0000
  C   C1870     1.0  0.48939  0.83346  0.35517  1.0000
  H   H3324     1.0  0.50757  0.78332  0.36505  1.0000
  H   H3325     1.0  0.52732  0.79867  0.38082  1.0000
  H   H3326     1.0  0.49831  0.85860  0.36399  1.0000
  H   H3327     1.0  0.47880  0.84329  0.34803  1.0000
  C   C1871     1.0  0.45096  0.67900  0.36300  1.0000
  C   C1872     1.0  0.46844  0.66810  0.35544  1.0000
  C   C1873     1.0  0.47076  0.64663  0.35710  1.0000
  C   C1874     1.0  0.45563  0.63586  0.36624  1.0000
  C   C1875     1.0  0.43798  0.64679  0.37355  1.0000
  C   C1876     1.0  0.43575  0.66825  0.37207  1.0000
  H   H3328     1.0  0.48027  0.67618  0.34845  1.0000
  H   H3329     1.0  0.48446  0.63829  0.35135  1.0000
  H   H3330     1.0  0.42607  0.63864  0.38030  1.0000
  H   H3331     1.0  0.42209  0.67659  0.37785  1.0000
  C   C1877     1.0  0.56009  0.75630  0.25798  1.0000
  C   C1878     1.0  0.56977  0.73747  0.26469  1.0000
  C   C1879     1.0  0.56128  0.72789  0.27958  1.0000
  C   C1880     1.0  0.54296  0.73692  0.28769  1.0000
  C   C1881     1.0  0.53336  0.75570  0.28089  1.0000
  C   C1882     1.0  0.54204  0.76547  0.26623  1.0000
  H   H3332     1.0  0.58380  0.73034  0.25843  1.0000
  H   H3333     1.0  0.56881  0.71331  0.28473  1.0000
  H   H3334     1.0  0.51924  0.76276  0.28684  1.0000
  H   H3335     1.0  0.53462  0.78012  0.26113  1.0000
  H   H3336     1.0  0.64293  0.95299  0.29324  1.0000
  C   C1883     1.0  0.41574  0.71983  0.26537  1.0000
  C   C1884     1.0  0.40856  0.74073  0.26270  1.0000
  C   C1885     1.0  0.41564  0.75428  0.27066  1.0000
  C   C1886     1.0  0.42965  0.74703  0.28146  1.0000
  C   C1887     1.0  0.43736  0.72625  0.28367  1.0000
  C   C1888     1.0  0.43043  0.71270  0.27566  1.0000
  H   H3337     1.0  0.39756  0.74635  0.25456  1.0000
  H   H3338     1.0  0.41029  0.77046  0.26850  1.0000
  H   H3339     1.0  0.44871  0.72070  0.29149  1.0000
  H   H3340     1.0  0.43627  0.69658  0.27759  1.0000
  N   N102      1.0  0.41358  0.68289  0.32642  1.0000
  C   C1889     1.0  0.40611  0.69989  0.33644  1.0000
  C   C1890     1.0  0.41088  0.66235  0.33626  1.0000
  C   C1891     1.0  0.43611  0.68302  0.32113  1.0000
  C   C1892     1.0  0.40339  0.68611  0.31163  1.0000
  C   C1893     1.0  0.37990  0.68848  0.31410  1.0000
  C   C1894     1.0  0.40905  0.72178  0.32810  1.0000
  C   C1895     1.0  0.44774  0.66492  0.31254  1.0000
  C   C1896     1.0  0.39219  0.66150  0.34951  1.0000
  C   C1897     1.0  0.38976  0.63942  0.35650  1.0000
  C   C1898     1.0  0.37174  0.69467  0.29810  1.0000
  C   C1899     1.0  0.39957  0.73766  0.33908  1.0000
  C   C1900     1.0  0.47031  0.66685  0.30815  1.0000
  H   H3341     1.0  0.41395  0.69686  0.34723  1.0000
  H   H3342     1.0  0.38973  0.70038  0.34116  1.0000
  H   H3343     1.0  0.41062  0.65086  0.32833  1.0000
  H   H3344     1.0  0.42420  0.65634  0.34274  1.0000
  H   H3345     1.0  0.44385  0.68344  0.33154  1.0000
  H   H3346     1.0  0.43882  0.69707  0.31279  1.0000
  H   H3347     1.0  0.40798  0.69967  0.30343  1.0000
  H   H3348     1.0  0.40872  0.67313  0.30471  1.0000
  H   H3349     1.0  0.37288  0.70039  0.32168  1.0000
  H   H3350     1.0  0.37484  0.67369  0.31956  1.0000
  H   H3351     1.0  0.42543  0.72327  0.32501  1.0000
  H   H3352     1.0  0.40180  0.72583  0.31708  1.0000
  H   H3353     1.0  0.44176  0.66462  0.30132  1.0000
  H   H3354     1.0  0.44667  0.65002  0.32024  1.0000
  H   H3355     1.0  0.39434  0.66931  0.35943  1.0000
  H   H3356     1.0  0.37784  0.66899  0.34510  1.0000
  H   H3357     1.0  0.38636  0.63116  0.34729  1.0000
  H   H3358     1.0  0.40388  0.63125  0.36112  1.0000
  H   H3359     1.0  0.37702  0.63918  0.36653  1.0000
  H   H3360     1.0  0.35489  0.69585  0.30003  1.0000
  H   H3361     1.0  0.37589  0.70973  0.29222  1.0000
  H   H3362     1.0  0.37805  0.68313  0.28997  1.0000
  H   H3363     1.0  0.38294  0.73745  0.34232  1.0000
  H   H3364     1.0  0.40685  0.73466  0.35013  1.0000
  H   H3365     1.0  0.40203  0.75312  0.33287  1.0000
  H   H3366     1.0  0.47838  0.65376  0.30209  1.0000
  H   H3367     1.0  0.47235  0.68125  0.29997  1.0000
  H   H3368     1.0  0.47724  0.66669  0.31907  1.0000
  N   N103      1.0  0.32588  0.56739  0.25841  1.0000
  H   H3369     1.0  0.63572  0.93163  0.33521  1.0000
  C   C1901     1.0  0.54331  0.96948  0.46001  1.0000
  H   H3370     1.0  0.41387  0.98377  0.41028  1.0000
  C   C1902     1.0  0.34037  0.54216  0.28177  1.0000
  C   C1903     1.0  0.33314  0.55779  0.22952  1.0000
  H   H3371     1.0  0.48322  0.59416  0.39549  1.0000
  H   H3372     1.0  0.60105  0.91944  0.32127  1.0000
  S   S437      1.0  0.63571  0.68511  0.22380  1.0000
  C   C1904     1.0  0.36504  0.79499  0.23254  1.0000
  C   C1905     1.0  0.45680  0.95743  0.34015  1.0000
  H   H3373     1.0  0.45305  0.62151  0.40201  1.0000
  H   H3374     1.0  0.50515  0.67020  0.28011  1.0000
  H   H3375     1.0  0.42491  0.64749  0.40574  1.0000
  H   H3376     1.0  0.60028  0.91204  0.43766  1.0000
  H   H3377     1.0  0.60868  0.85026  0.41808  1.0000
  H   H3378     1.0  0.41180  0.62423  0.43914  1.0000
  C   C1906     1.0  0.33820  0.76139  0.27946  1.0000
  H   H3379     1.0  0.35832  0.76173  0.25749  1.0000
  C   C1907     1.0  0.62942  0.89795  0.45340  1.0000
  H   H3380     1.0  0.42599  0.96110  0.36542  1.0000
  H   H3381     1.0  0.56474  0.67301  0.24270  1.0000
  H   H3382     1.0  0.44407  0.62045  0.44448  1.0000
  H   H3383     1.0  0.48591  0.61417  0.42463  1.0000
  H   H3384     1.0  0.57638  0.50778  0.41037  1.0000
  H   H3385     1.0  0.41132  0.96290  0.38966  1.0000
  H   H3386     1.0  0.46587  0.63268  0.44084  1.0000
  H   H3387     1.0  0.42952  0.50064  0.34045  1.0000
  H   H3388     1.0  0.51020  0.68117  0.30610  1.0000
  H   H3389     1.0  0.58031  0.69289  0.24005  1.0000
  C   C1908     1.0  0.40038  0.97712  0.39065  1.0000
  C   C1909     1.0  0.45912  0.65665  0.41303  1.0000
  C   C1910     1.0  0.43916  0.64339  0.46728  1.0000
  H   H3390     1.0  0.47449  0.77354  0.26641  1.0000
  H   H3391     1.0  0.45545  0.94282  0.34823  1.0000
  C   C1911     1.0  0.51428  0.98297  0.44367  1.0000
  H   H3392     1.0  0.52498  0.65706  0.30199  1.0000
  C   C1912     1.0  0.47889  0.49586  0.39821  1.0000
  H   H3393     1.0  0.41806  0.65861  0.42337  1.0000
  H   H3394     1.0  0.63564  0.91675  0.30310  1.0000
  H   H3395     1.0  0.33143  0.88292  0.37019  1.0000
  H   H3396     1.0  0.35217  0.50101  0.39578  1.0000
  H   H3397     1.0  0.32889  0.96996  0.32597  1.0000
  C   C1913     1.0  0.45701  0.62038  0.41427  1.0000
  Fe  Fe222     1.0  0.59404  0.75366  0.22181  1.0000
  C   C1914     1.0  0.60987  0.96154  0.36750  1.0000
  S   S438      1.0  0.64493  0.97895  0.35940  1.0000
  H   H3398     1.0  0.35782  0.78145  0.23231  1.0000
  H   H3399     1.0  0.56312  0.69328  0.22593  1.0000
  H   H3400     1.0  0.38043  0.62332  0.42839  1.0000
  H   H3401     1.0  0.33088  0.54601  0.30685  1.0000
  N   N104      1.0  0.35471  0.79264  0.26330  1.0000
  C   C1915     1.0  0.36435  0.79109  0.27824  1.0000
  C   C1916     1.0  0.53435  0.83734  0.46295  1.0000
  C   C1917     1.0  0.37122  0.79513  0.24916  1.0000
  H   H3402     1.0  0.49316  0.68329  0.25656  1.0000
  H   H3403     1.0  0.51500  0.97243  0.36779  1.0000
  C   C1918     1.0  0.37540  0.80906  0.27959  1.0000
  H   H3404     1.0  0.32321  0.53864  0.25126  1.0000
  H   H3405     1.0  0.63769  0.90595  0.37102  1.0000
  C   C1919     1.0  0.32218  0.96175  0.31838  1.0000
  C   C1920     1.0  0.46685  0.94070  0.43070  1.0000
  C   C1921     1.0  0.38320  0.80606  0.29569  1.0000
  H   H3406     1.0  0.33407  0.77615  0.25548  1.0000
  H   H3407     1.0  0.37566  0.77691  0.27933  1.0000
  H   H3408     1.0  0.35302  0.78935  0.28912  1.0000
  C   C1922     1.0  0.57059  0.50423  0.42326  1.0000
  H   H3409     1.0  0.53700  0.67970  0.29867  1.0000
  H   H3410     1.0  0.38447  0.78291  0.25074  1.0000
  C   C1923     1.0  0.39877  0.98171  0.40771  1.0000
  C   C1924     1.0  0.61800  0.87793  0.42255  1.0000
  C   C1925     1.0  0.50033  0.97860  0.37374  1.0000
  H   H3411     1.0  0.34787  0.52280  0.30358  1.0000
  C   C1926     1.0  0.49041  0.70021  0.25596  1.0000
  H   H3412     1.0  0.38891  0.81001  0.27029  1.0000
  H   H3413     1.0  0.36503  0.82379  0.27848  1.0000
  H   H3414     1.0  0.35383  0.54995  0.28090  1.0000
  H   H3415     1.0  0.60764  0.87070  0.40167  1.0000
  C   C1927     1.0  0.54855  0.70233  0.24890  1.0000
  H   H3416     1.0  0.35783  0.53430  0.22186  1.0000
  H   H3417     1.0  0.48764  0.95523  0.41266  1.0000
  H   H3418     1.0  0.60223  0.88374  0.42755  1.0000
  C   C1928     1.0  0.34637  0.77311  0.26311  1.0000
  H   H3419     1.0  0.41742  0.61357  0.42063  1.0000
  H   H3420     1.0  0.50199  0.94825  0.43822  1.0000
  H   H3421     1.0  0.33680  0.73386  0.26954  1.0000
  H   H3422     1.0  0.39145  0.81883  0.29627  1.0000
  H   H3423     1.0  0.37036  0.80575  0.30565  1.0000
  H   H3424     1.0  0.39397  0.79156  0.29723  1.0000
  H   H3425     1.0  0.51966  0.95283  0.45781  1.0000
  C   C1929     1.0  0.44494  0.52498  0.34288  1.0000
  H   H3426     1.0  0.39490  0.78098  0.22207  1.0000
  H   H3427     1.0  0.55375  0.97948  0.45244  1.0000
  H   H3428     1.0  0.52722  0.68183  0.24777  1.0000
  H   H3429     1.0  0.46412  0.52531  0.44504  1.0000
  H   H3430     1.0  0.32501  0.81022  0.28701  1.0000
  C   C1930     1.0  0.39409  0.58195  0.46796  1.0000
  H   H3431     1.0  0.34258  0.57005  0.22494  1.0000
  H   H3432     1.0  0.45300  0.69748  0.24763  1.0000
  H   H3433     1.0  0.45503  0.63838  0.46987  1.0000
  H   H3434     1.0  0.39340  0.96878  0.41629  1.0000
  H   H3435     1.0  0.34462  0.52896  0.27502  1.0000
  C   C1931     1.0  0.43888  0.65156  0.44956  1.0000
  C   C1932     1.0  0.46937  0.50316  0.46619  1.0000
  C   C1933     1.0  0.52614  0.84552  0.44716  1.0000
  H   H3436     1.0  0.57542  0.95405  0.42808  1.0000
  H   H3437     1.0  0.32495  0.89505  0.32746  1.0000
  C   C1934     1.0  0.64355  0.88825  0.46569  1.0000
  H   H3438     1.0  0.60946  0.93569  0.43479  1.0000
  N   N105      1.0  0.62986  0.91256  0.42297  1.0000
  H   H3439     1.0  0.62329  0.90151  0.40236  1.0000
  H   H3440     1.0  0.47198  0.68158  0.23582  1.0000
  H   H3441     1.0  0.39958  0.49098  0.38767  1.0000
  C   C1935     1.0  0.51849  0.97545  0.41571  1.0000
  C   C1936     1.0  0.48186  0.70925  0.24011  1.0000
  H   H3442     1.0  0.49063  0.51483  0.44597  1.0000
  H   H3443     1.0  0.52512  0.70475  0.23440  1.0000
  H   H3444     1.0  0.63196  0.85645  0.40592  1.0000
  H   H3445     1.0  0.65027  0.88936  0.22096  1.0000
  H   H3446     1.0  0.35112  0.75415  0.28601  1.0000
  H   H3447     1.0  0.47356  0.49959  0.44121  1.0000
  C   C1937     1.0  0.32693  0.74435  0.27733  1.0000
  C   C1938     1.0  0.51813  0.67806  0.28074  1.0000
  C   C1939     1.0  0.52877  0.96394  0.45006  1.0000
  C   C1940     1.0  0.61656  0.86296  0.41133  1.0000
  H   H3448     1.0  0.45309  0.71002  0.40420  1.0000
  H   H3449     1.0  0.38942  0.63789  0.40977  1.0000
  C   C1941     1.0  0.33815  0.59917  0.26528  1.0000
  H   H3450     1.0  0.47695  0.51459  0.37542  1.0000
  C   C1942     1.0  0.64323  0.91544  0.31389  1.0000
  H   H3451     1.0  0.50926  0.84706  0.44885  1.0000
  H   H3452     1.0  0.53082  0.86065  0.44218  1.0000
  H   H3453     1.0  0.55121  0.83568  0.46025  1.0000
  H   H3454     1.0  0.39474  0.49829  0.41544  1.0000
  C   C1943     1.0  0.46186  0.69438  0.40512  1.0000
  C   C1944     1.0  0.34237  0.58070  0.25598  1.0000
  H   H3455     1.0  0.42272  0.65642  0.44792  1.0000
  C   C1945     1.0  0.48816  0.59434  0.40718  1.0000
  H   H3456     1.0  0.46879  0.96470  0.34355  1.0000
  H   H3457     1.0  0.44705  0.66499  0.44684  1.0000
  C   C1946     1.0  0.48060  0.61500  0.41297  1.0000
  H   H3458     1.0  0.61947  0.91122  0.45819  1.0000
  H   H3459     1.0  0.50636  0.73593  0.24176  1.0000
  H   H3460     1.0  0.43556  0.68096  0.40439  1.0000
  H   H3461     1.0  0.45077  0.52701  0.32992  1.0000
  C   C1947     1.0  0.42568  0.64435  0.41875  1.0000
  H   H3462     1.0  0.35324  0.62353  0.26937  1.0000
  H   H3463     1.0  0.38518  0.97421  0.38899  1.0000
  C   C1948     1.0  0.63127  0.95794  0.36471  1.0000
  H   H3464     1.0  0.35586  0.98331  0.34642  1.0000
  H   H3465     1.0  0.55021  0.71864  0.24496  1.0000
  N   N106      1.0  0.54374  0.80183  0.31677  1.0000
  C   C1949     1.0  0.52534  0.80133  0.30900  1.0000
  C   C1950     1.0  0.54536  0.78424  0.33020  1.0000
  C   C1951     1.0  0.54005  0.82134  0.32415  1.0000
  C   C1952     1.0  0.56328  0.80141  0.30510  1.0000
  C   C1953     1.0  0.56487  0.78975  0.29062  1.0000
  C   C1954     1.0  0.51900  0.82063  0.29718  1.0000
  C   C1955     1.0  0.55555  0.82340  0.33510  1.0000
  C   C1956     1.0  0.54757  0.76249  0.32578  1.0000
  C   C1957     1.0  0.54773  0.74651  0.34072  1.0000
  C   C1958     1.0  0.58645  0.78752  0.28148  1.0000
  C   C1959     1.0  0.50413  0.81668  0.28679  1.0000
  C   C1960     1.0  0.55338  0.84528  0.33869  1.0000
  H   H3466     1.0  0.51189  0.79933  0.31829  1.0000
  H   H3467     1.0  0.52744  0.78785  0.30269  1.0000
  H   H3468     1.0  0.55874  0.78420  0.33625  1.0000
  H   H3469     1.0  0.53171  0.78610  0.33943  1.0000
  H   H3470     1.0  0.52466  0.82316  0.33139  1.0000
  H   H3471     1.0  0.53999  0.83486  0.31468  1.0000
  H   H3472     1.0  0.56599  0.81719  0.29983  1.0000
  H   H3473     1.0  0.57656  0.79494  0.31149  1.0000
  H   H3474     1.0  0.55458  0.79812  0.28209  1.0000
  H   H3475     1.0  0.56068  0.77429  0.29420  1.0000
  H   H3476     1.0  0.51120  0.83322  0.30394  1.0000
  H   H3477     1.0  0.53241  0.82595  0.28928  1.0000
  H   H3478     1.0  0.57143  0.81897  0.32952  1.0000
  H   H3479     1.0  0.55277  0.81348  0.34674  1.0000
  H   H3480     1.0  0.53477  0.76074  0.31977  1.0000
  H   H3481     1.0  0.56222  0.75883  0.31807  1.0000
  H   H3482     1.0  0.56119  0.74653  0.34664  1.0000
  H   H3483     1.0  0.53369  0.74957  0.34931  1.0000
  H   H3484     1.0  0.54847  0.73111  0.33732  1.0000
  H   H3485     1.0  0.59125  0.80273  0.27715  1.0000
  H   H3486     1.0  0.59734  0.77820  0.28919  1.0000
  H   H3487     1.0  0.58690  0.77968  0.27097  1.0000
  H   H3488     1.0  0.51116  0.80430  0.27962  1.0000
  H   H3489     1.0  0.49003  0.81238  0.29436  1.0000
  H   H3490     1.0  0.49992  0.83076  0.27849  1.0000
  H   H3491     1.0  0.62505  0.94509  0.31813  1.0000
  H   H3492     1.0  0.53753  0.85053  0.34398  1.0000
  H   H3493     1.0  0.56363  0.84596  0.34742  1.0000
  H   H3494     1.0  0.63304  0.93429  0.40117  1.0000
  H   H3495     1.0  0.34868  0.54340  0.24948  1.0000
  H   H3496     1.0  0.32872  0.93296  0.33290  1.0000
  C   C1961     1.0  0.52280  0.67378  0.29792  1.0000
  H   H3497     1.0  0.45660  0.94359  0.44189  1.0000
  C   C1962     1.0  0.48369  0.50033  0.38165  1.0000
  S   S439      1.0  0.32799  0.48874  0.37570  1.0000
  C   C1963     1.0  0.33833  0.81095  0.26158  1.0000
  H   H3498     1.0  0.38379  0.64936  0.42802  1.0000
  H   H3499     1.0  0.32571  0.61055  0.26069  1.0000
  C   C1964     1.0  0.48674  0.76535  0.25842  1.0000
  H   H3500     1.0  0.50506  0.59141  0.40564  1.0000
  H   H3501     1.0  0.33869  0.51833  0.34778  1.0000
  H   H3502     1.0  0.52582  0.95923  0.41728  1.0000
  H   H3503     1.0  0.64283  0.89937  0.31972  1.0000
  H   H3504     1.0  0.55752  0.85580  0.32764  1.0000
  C   C1965     1.0  0.60862  0.92257  0.42860  1.0000
  C   C1966     1.0  0.43062  0.50026  0.36607  1.0000
  H   H3505     1.0  0.46165  0.95398  0.32776  1.0000
  H   H3506     1.0  0.43101  0.53631  0.34501  1.0000
  H   H3507     1.0  0.61163  0.90652  0.33903  1.0000
  N   N107      1.0  0.50352  0.98025  0.43027  1.0000
  N   N108      1.0  0.44764  0.63950  0.42152  1.0000
  H   H3508     1.0  0.45756  0.93820  0.42184  1.0000
  H   H3509     1.0  0.35705  0.57143  0.25866  1.0000
  C   C1967     1.0  0.43612  0.58151  0.46387  1.0000
  C   C1968     1.0  0.64122  0.93782  0.36626  1.0000
  H   H3510     1.0  0.37483  0.96333  0.33894  1.0000
  H   H3511     1.0  0.63961  0.94232  0.41809  1.0000
  C   C1969     1.0  0.49150  0.96276  0.43584  1.0000
  H   H3512     1.0  0.46410  0.65467  0.40022  1.0000
  H   H3513     1.0  0.64540  0.88815  0.40986  1.0000
  H   H3514     1.0  0.58729  0.87599  0.45802  1.0000
  H   H3515     1.0  0.59187  0.91751  0.40994  1.0000
  C   C1970     1.0  0.44754  0.67880  0.41226  1.0000
  C   C1971     1.0  0.41204  0.62780  0.42602  1.0000
  C   C1972     1.0  0.46544  0.69758  0.23740  1.0000
  H   H3516     1.0  0.32764  0.77153  0.28707  1.0000
  H   H3517     1.0  0.48233  0.58189  0.41602  1.0000
  C   C1973     1.0  0.56510  0.68957  0.23874  1.0000
  H   H3518     1.0  0.60205  0.97709  0.36643  1.0000
  N   N109      1.0  0.50948  0.70772  0.25824  1.0000
  Fe  Fe223     1.0  0.34406  0.73337  0.22783  1.0000
  C   C1974     1.0  0.51291  0.70133  0.27539  1.0000
  H   H3519     1.0  0.48220  0.76783  0.24631  1.0000
  H   H3520     1.0  0.55260  0.95532  0.46511  1.0000
  H   H3521     1.0  0.45880  0.70506  0.22649  1.0000
  H   H3522     1.0  0.44012  0.68251  0.42412  1.0000
  H   H3523     1.0  0.56662  0.92942  0.43255  1.0000
  H   H3524     1.0  0.52510  0.70891  0.27802  1.0000
  H   H3525     1.0  0.48815  0.62656  0.40430  1.0000
  C   C1975     1.0  0.44962  0.63511  0.43908  1.0000
  H   H3526     1.0  0.52164  0.73590  0.25654  1.0000
  H   H3527     1.0  0.47794  0.70319  0.26595  1.0000
  C   C1976     1.0  0.57303  0.88579  0.46065  1.0000
  C   C1977     1.0  0.39011  0.63514  0.42281  1.0000
  H   H3528     1.0  0.48183  0.96462  0.44749  1.0000
  H   H3529     1.0  0.61969  0.88664  0.45253  1.0000
  H   H3530     1.0  0.47513  0.73702  0.26525  1.0000
  H   H3531     1.0  0.32753  0.86618  0.35695  1.0000
  C   C1978     1.0  0.48974  0.74261  0.26492  1.0000
  C   C1979     1.0  0.52704  0.69857  0.24696  1.0000
  H   H3532     1.0  0.55169  0.69815  0.26138  1.0000
  H   H3533     1.0  0.62623  0.86917  0.43228  1.0000
  C   C1980     1.0  0.43645  0.97171  0.34113  1.0000
  H   H3534     1.0  0.53174  0.67118  0.27322  1.0000
  H   H3535     1.0  0.45682  0.52790  0.34941  1.0000
  H   H3536     1.0  0.49917  0.70677  0.28360  1.0000
  C   C1981     1.0  0.59450  0.93033  0.41563  1.0000
  H   H3537     1.0  0.47788  0.92659  0.43311  1.0000
  H   H3538     1.0  0.39225  0.96872  0.36095  1.0000
  H   H3539     1.0  0.41632  0.51138  0.36742  1.0000
  H   H3540     1.0  0.53797  0.95616  0.44032  1.0000
  C   C1982     1.0  0.47809  0.95887  0.42395  1.0000
  C   C1983     1.0  0.42900  0.97602  0.35844  1.0000
  C   C1984     1.0  0.62884  0.92967  0.32487  1.0000
  C   C1985     1.0  0.47479  0.51132  0.44856  1.0000
  H   H3541     1.0  0.60076  0.94196  0.40625  1.0000
  H   H3542     1.0  0.46651  0.97233  0.42123  1.0000
  C   C1986     1.0  0.62961  0.89544  0.41368  1.0000
  H   H3543     1.0  0.59857  0.93228  0.33849  1.0000
  H   H3544     1.0  0.56369  0.94497  0.41374  1.0000
  C   C1987     1.0  0.64058  0.92869  0.41197  1.0000
  H   H3545     1.0  0.42834  0.50066  0.39852  1.0000
  H   H3546     1.0  0.44099  0.50547  0.37287  1.0000
  C   C1988     1.0  0.42338  0.48550  0.40230  1.0000
  C   C1989     1.0  0.35683  0.61003  0.26292  1.0000
  H   H3547     1.0  0.50122  0.48979  0.36034  1.0000
  H   H3548     1.0  0.33260  0.52728  0.22411  1.0000
  C   C1990     1.0  0.64164  0.90507  0.43697  1.0000
  H   H3549     1.0  0.49389  0.70866  0.22963  1.0000
  H   H3550     1.0  0.33149  0.81154  0.25054  1.0000
  H   H3551     1.0  0.47489  0.72544  0.24043  1.0000
  C   C1991     1.0  0.33296  0.55091  0.24781  1.0000
  H   H3552     1.0  0.45240  0.58146  0.46222  1.0000
  S   S440      1.0  0.34804  0.65708  0.22616  1.0000
  C   C1992     1.0  0.44015  0.50327  0.34823  1.0000
  H   H3553     1.0  0.34497  0.82536  0.25989  1.0000
  H   H3554     1.0  0.39624  0.49851  0.35419  1.0000
  H   H3555     1.0  0.34552  0.58718  0.24323  1.0000
  H   H3556     1.0  0.36984  0.59966  0.26767  1.0000
  H   H3557     1.0  0.61836  0.48931  0.31686  1.0000
  H   H3558     1.0  0.35424  0.80891  0.22922  1.0000
  H   H3559     1.0  0.51034  0.97685  0.40522  1.0000
  H   H3560     1.0  0.64774  0.81668  0.23775  1.0000
  Fe  Fe224     1.0  0.35761  0.68872  0.22250  1.0000
  H   H3561     1.0  0.34469  0.88490  0.35010  1.0000
  H   H3562     1.0  0.33409  0.59449  0.27826  1.0000
  C   C1993     1.0  0.53543  0.90957  0.46791  1.0000
  S   S441      1.0  0.37608  0.74072  0.22335  1.0000
  H   H3563     1.0  0.37775  0.58236  0.46956  1.0000
  C   C1994     1.0  0.33012  0.88190  0.35762  1.0000
  H   H3564     1.0  0.33324  0.61904  0.23052  1.0000
  H   H3565     1.0  0.55298  0.96950  0.39338  1.0000
  H   H3566     1.0  0.55550  0.51371  0.42574  1.0000
  C   C1995     1.0  0.49746  0.48632  0.37315  1.0000
  S   S442      1.0  0.62704  0.74312  0.22410  1.0000
  H   H3567     1.0  0.65331  0.89925  0.46739  1.0000
  H   H3568     1.0  0.64686  0.98151  0.30801  1.0000
  H   H3569     1.0  0.52978  0.82206  0.46732  1.0000
  H   H3570     1.0  0.32247  0.73540  0.28911  1.0000
  H   H3571     1.0  0.45458  0.49272  0.34606  1.0000
  H   H3572     1.0  0.64952  0.91737  0.43932  1.0000
  H   H3573     1.0  0.33386  0.95785  0.30816  1.0000
  H   H3574     1.0  0.42535  0.96395  0.33711  1.0000
  H   H3575     1.0  0.65331  0.87433  0.46186  1.0000
  H   H3576     1.0  0.65400  0.89235  0.43409  1.0000
  H   H3577     1.0  0.64822  0.50633  0.30403  1.0000
  H   H3578     1.0  0.41571  0.49138  0.42680  1.0000
  C   C1996     1.0  0.36968  0.98007  0.33763  1.0000
  C   C1997     1.0  0.40828  0.48673  0.41762  1.0000
  H   H3579     1.0  0.45345  0.50004  0.46796  1.0000
  H   H3580     1.0  0.54768  0.48718  0.44867  1.0000
  H   H3581     1.0  0.63990  0.79148  0.22229  1.0000
  C   C1998     1.0  0.32225  0.55708  0.27546  1.0000
  H   H3582     1.0  0.54688  0.98491  0.41927  1.0000
  H   H3583     1.0  0.53473  0.97742  0.46999  1.0000
  H   H3584     1.0  0.32188  0.55889  0.42797  1.0000
  Fe  Fe225     1.0  0.57621  0.89150  0.51529  1.0000
  S   S443      1.0  0.54499  0.89061  0.52929  1.0000
  S   S444      1.0  0.58526  0.88559  0.48954  1.0000
  Fe  Fe226     1.0  0.59534  0.89743  0.54382  1.0000
  S   S445      1.0  0.56545  0.89717  0.55991  1.0000
  S   S446      1.0  0.62608  0.89518  0.55272  1.0000
  Fe  Fe227     1.0  0.56068  0.87068  0.54872  1.0000
  S   S447      1.0  0.54636  0.84613  0.56669  1.0000
  Fe  Fe228     1.0  0.55146  0.91715  0.53960  1.0000
  S   S448      1.0  0.52374  0.94022  0.54631  1.0000
  S   S449      1.0  0.59159  0.86935  0.53395  1.0000
  S   S450      1.0  0.58180  0.91962  0.52414  1.0000
  Fe  Fe229     1.0  0.38322  0.57415  0.54427  1.0000
  S   S451      1.0  0.40094  0.60064  0.53555  1.0000
  S   S452      1.0  0.34878  0.57646  0.54491  1.0000
  Fe  Fe230     1.0  0.42198  0.54283  0.54668  1.0000
  S   S453      1.0  0.44263  0.56656  0.53855  1.0000
  S   S454      1.0  0.42997  0.50817  0.55102  1.0000
  Fe  Fe231     1.0  0.42063  0.58632  0.55451  1.0000
  S   S455      1.0  0.43208  0.60227  0.57225  1.0000
  Fe  Fe232     1.0  0.42179  0.57930  0.52019  1.0000
  S   S456      1.0  0.43725  0.58622  0.49474  1.0000
  S   S457      1.0  0.40133  0.56120  0.56430  1.0000
  S   S458      1.0  0.40270  0.55431  0.52723  1.0000
  H   H3585     1.0  0.50499  0.82817  0.49344  1.0000
  S   S459      1.0  0.63505  0.65104  0.65032  1.0000
  S   S460      1.0  0.62777  0.68884  0.61040  1.0000
  H   H3586     1.0  0.58018  0.62015  0.68202  1.0000
  C   C1999     1.0  0.37871  0.70259  0.59850  1.0000
  H   H3587     1.0  0.52834  0.81210  0.49546  1.0000
  S   S461      1.0  0.35347  0.77366  0.61845  1.0000
  H   H3588     1.0  0.58068  0.95825  0.56084  1.0000
  N   N110      1.0  0.33264  0.84664  0.59337  1.0000
  H   H3589     1.0  0.61463  0.81811  0.56245  1.0000
  Fe  Fe233     1.0  0.48088  0.70356  0.57899  1.0000
  S   S462      1.0  0.47894  0.69789  0.60570  1.0000
  S   S463      1.0  0.46464  0.68827  0.56372  1.0000
  Fe  Fe234     1.0  0.50537  0.73942  0.57634  1.0000
  S   S464      1.0  0.50473  0.73623  0.60290  1.0000
  S   S465      1.0  0.52347  0.76073  0.55791  1.0000
  Fe  Fe235     1.0  0.51191  0.70251  0.60186  1.0000
  S   S466      1.0  0.53378  0.68152  0.61717  1.0000
  Fe  Fe236     1.0  0.47180  0.73207  0.60448  1.0000
  S   S467      1.0  0.44785  0.74556  0.62349  1.0000
  S   S468      1.0  0.51450  0.70566  0.57514  1.0000
  S   S469      1.0  0.47188  0.73776  0.57794  1.0000
  C   C2000     1.0  0.37980  0.76695  0.61994  1.0000
  C   C2001     1.0  0.39378  0.76442  0.60604  1.0000
  C   C2002     1.0  0.41470  0.75806  0.60689  1.0000
  C   C2003     1.0  0.42183  0.75428  0.62167  1.0000
  C   C2004     1.0  0.40790  0.75739  0.63549  1.0000
  C   C2005     1.0  0.38698  0.76358  0.63467  1.0000
  H   H3590     1.0  0.38840  0.76726  0.59457  1.0000
  H   H3591     1.0  0.42535  0.75613  0.59615  1.0000
  H   H3592     1.0  0.41329  0.75468  0.64697  1.0000
  H   H3593     1.0  0.37641  0.76554  0.64546  1.0000
  H   H3594     1.0  0.48864  0.51972  0.47469  1.0000
  H   H3595     1.0  0.42600  0.67362  0.59631  1.0000
  C   C2006     1.0  0.49021  0.53429  0.50242  1.0000
  C   C2007     1.0  0.60197  0.68564  0.61178  1.0000
  C   C2008     1.0  0.59308  0.67184  0.62383  1.0000
  C   C2009     1.0  0.57224  0.67052  0.62516  1.0000
  C   C2010     1.0  0.56004  0.68311  0.61456  1.0000
  C   C2011     1.0  0.56904  0.69644  0.60217  1.0000
  C   C2012     1.0  0.59001  0.69740  0.60066  1.0000
  H   H3596     1.0  0.60225  0.66211  0.63205  1.0000
  H   H3597     1.0  0.56545  0.65983  0.63455  1.0000
  H   H3598     1.0  0.55987  0.70573  0.59365  1.0000
  H   H3599     1.0  0.59703  0.70715  0.59076  1.0000
  H   H3600     1.0  0.43193  0.65556  0.47462  1.0000
  H   H3601     1.0  0.36254  0.51223  0.60233  1.0000
  S   S470      1.0  0.63409  0.67927  0.68736  1.0000
  C   C2013     1.0  0.44225  0.62571  0.56901  1.0000
  C   C2014     1.0  0.45313  0.62988  0.58048  1.0000
  C   C2015     1.0  0.46021  0.64882  0.57906  1.0000
  C   C2016     1.0  0.45660  0.66385  0.56605  1.0000
  C   C2017     1.0  0.44594  0.65961  0.55448  1.0000
  C   C2018     1.0  0.43883  0.64068  0.55591  1.0000
  H   H3602     1.0  0.45599  0.61839  0.59061  1.0000
  H   H3603     1.0  0.46845  0.65177  0.58803  1.0000
  H   H3604     1.0  0.44310  0.67107  0.54433  1.0000
  H   H3605     1.0  0.43048  0.63778  0.54700  1.0000
  H   H3606     1.0  0.36759  0.52680  0.57484  1.0000
  H   H3607     1.0  0.49434  0.49335  0.49528  1.0000
  C   C2019     1.0  0.33619  0.55661  0.57505  1.0000
  C   C2020     1.0  0.33227  0.56264  0.55933  1.0000
  H   H3608     1.0  0.58290  0.66276  0.58487  1.0000
  H   H3609     1.0  0.39313  0.69400  0.62582  1.0000
  H   H3610     1.0  0.55546  0.71040  0.69108  1.0000
  H   H3611     1.0  0.34974  0.56016  0.57856  1.0000
  H   H3612     1.0  0.43860  0.50724  0.51137  1.0000
  H   H3613     1.0  0.37246  0.83791  0.67861  1.0000
  C   C2021     1.0  0.53293  0.97754  0.53003  1.0000
  H   H3614     1.0  0.53534  0.87322  0.49799  1.0000
  C   C2022     1.0  0.51224  0.82310  0.51724  1.0000
  H   H3615     1.0  0.39483  0.58470  0.49261  1.0000
  C   C2023     1.0  0.53965  0.82272  0.56384  1.0000
  C   C2024     1.0  0.54745  0.81374  0.55013  1.0000
  C   C2025     1.0  0.54229  0.79479  0.54850  1.0000
  C   C2026     1.0  0.52927  0.78462  0.56058  1.0000
  C   C2027     1.0  0.52175  0.79341  0.57445  1.0000
  C   C2028     1.0  0.52698  0.81235  0.57607  1.0000
  H   H3616     1.0  0.55782  0.82124  0.54101  1.0000
  H   H3617     1.0  0.54849  0.78790  0.53786  1.0000
  H   H3618     1.0  0.51184  0.78568  0.58390  1.0000
  H   H3619     1.0  0.52105  0.81907  0.58684  1.0000
  C   C2029     1.0  0.58740  0.63350  0.67573  1.0000
  H   H3620     1.0  0.55704  0.68998  0.65205  1.0000
  C   C2030     1.0  0.57360  0.65326  0.67928  1.0000
  C   C2031     1.0  0.63823  0.91350  0.55887  1.0000
  C   C2032     1.0  0.62985  0.93412  0.55799  1.0000
  H   H3621     1.0  0.54197  0.68408  0.67053  1.0000
  C   C2033     1.0  0.54453  0.95986  0.58235  1.0000
  H   H3622     1.0  0.43262  0.68128  0.61868  1.0000
  H   H3623     1.0  0.61543  0.93914  0.55362  1.0000
  H   H3624     1.0  0.64194  0.72574  0.67781  1.0000
  H   H3625     1.0  0.53648  0.76884  0.61646  1.0000
  C   C2034     1.0  0.45567  0.49637  0.54854  1.0000
  H   H3626     1.0  0.58983  0.63273  0.66271  1.0000
  H   H3627     1.0  0.60202  0.58512  0.62892  1.0000
  H   H3628     1.0  0.54532  0.91060  0.49045  1.0000
  C   C2035     1.0  0.52456  0.86196  0.50186  1.0000
  C   C2036     1.0  0.56812  0.97092  0.55869  1.0000
  C   C2037     1.0  0.32813  0.86410  0.71548  1.0000
  C   C2038     1.0  0.51895  0.96689  0.54061  1.0000
  C   C2039     1.0  0.34361  0.81383  0.57945  1.0000
  N   N111      1.0  0.36486  0.49608  0.57166  1.0000
  C   C2040     1.0  0.42081  0.72900  0.55911  1.0000
  H   H3629     1.0  0.60663  0.97157  0.53868  1.0000
  C   C2041     1.0  0.64036  0.94821  0.56254  1.0000
  C   C2042     1.0  0.50082  0.96179  0.50266  1.0000
  C   C2043     1.0  0.36846  0.51906  0.54396  1.0000
  H   H3630     1.0  0.61824  0.96748  0.59613  1.0000
  H   H3631     1.0  0.54686  0.96929  0.52455  1.0000
  C   C2044     1.0  0.36180  0.82833  0.67607  1.0000
  H   H3632     1.0  0.53532  0.96387  0.59369  1.0000
  N   N112      1.0  0.40110  0.69838  0.60003  1.0000
  C   C2045     1.0  0.41306  0.71222  0.58774  1.0000
  H   H3633     1.0  0.59039  0.81398  0.49747  1.0000
  N   N113      1.0  0.46531  0.51316  0.49459  1.0000
  H   H3634     1.0  0.59417  0.61812  0.57873  1.0000
  C   C2046     1.0  0.60171  0.62584  0.60074  1.0000
  H   H3635     1.0  0.34643  0.88723  0.59070  1.0000
  H   H3636     1.0  0.38324  0.50994  0.54008  1.0000
  H   H3637     1.0  0.43718  0.72718  0.56042  1.0000
  C   C2047     1.0  0.50075  0.97774  0.54743  1.0000
  H   H3638     1.0  0.36044  0.83133  0.66316  1.0000
  H   H3639     1.0  0.35785  0.78908  0.56618  1.0000
  H   H3640     1.0  0.41760  0.69736  0.56619  1.0000
  H   H3641     1.0  0.34348  0.85959  0.70900  1.0000
  C   C2048     1.0  0.65339  0.49220  0.65624  1.0000
  C   C2049     1.0  0.44306  0.51069  0.49818  1.0000
  H   H3642     1.0  0.54388  0.74442  0.62778  1.0000
  H   H3643     1.0  0.56568  0.64400  0.58963  1.0000
  C   C2050     1.0  0.61912  0.59109  0.59815  1.0000
  C   C2051     1.0  0.61815  0.76324  0.59657  1.0000
  H   H3644     1.0  0.45991  0.54532  0.49721  1.0000
  H   H3645     1.0  0.42794  0.54252  0.49790  1.0000
  H   H3646     1.0  0.35859  0.84085  0.57524  1.0000
  C   C2052     1.0  0.54932  0.90511  0.47901  1.0000
  H   H3647     1.0  0.40375  0.66140  0.62248  1.0000
  H   H3648     1.0  0.34101  0.85616  0.61388  1.0000
  H   H3649     1.0  0.48145  0.56605  0.50658  1.0000
  H   H3650     1.0  0.49936  0.80073  0.53568  1.0000
  Fe  Fe237     1.0  0.64712  0.67250  0.62943  1.0000
  H   H3651     1.0  0.59855  0.67106  0.67484  1.0000
  H   H3652     1.0  0.55840  0.82457  0.48469  1.0000
  H   H3653     1.0  0.59260  0.95428  0.58494  1.0000
  H   H3654     1.0  0.46840  0.52427  0.54514  1.0000
  H   H3655     1.0  0.61645  0.60584  0.65350  1.0000
  C   C2053     1.0  0.61157  0.59284  0.64939  1.0000
  H   H3656     1.0  0.44003  0.49747  0.49326  1.0000
  Fe  Fe238     1.0  0.33004  0.78065  0.64003  1.0000
  H   H3657     1.0  0.60240  0.69663  0.64479  1.0000
  H   H3658     1.0  0.49946  0.83507  0.52067  1.0000
  H   H3659     1.0  0.57091  0.65297  0.69242  1.0000
  H   H3660     1.0  0.46453  0.53393  0.47237  1.0000
  C   C2054     1.0  0.59768  0.63156  0.58316  1.0000
  H   H3661     1.0  0.61095  0.63705  0.57521  1.0000
  N   N114      1.0  0.58787  0.76534  0.58080  1.0000
  C   C2055     1.0  0.57191  0.76996  0.59483  1.0000
  C   C2056     1.0  0.59199  0.78494  0.57003  1.0000
  C   C2057     1.0  0.57937  0.75247  0.57138  1.0000
  C   C2058     1.0  0.60732  0.75333  0.58599  1.0000
  H   H3662     1.0  0.56780  0.93350  0.57674  1.0000
  C   C2059     1.0  0.56437  0.75128  0.60602  1.0000
  C   C2060     1.0  0.59221  0.74790  0.55524  1.0000
  C   C2061     1.0  0.58985  0.80454  0.57797  1.0000
  C   C2062     1.0  0.59799  0.82193  0.56614  1.0000
  H   H3663     1.0  0.39432  0.71498  0.56830  1.0000
  H   H3664     1.0  0.49749  0.53848  0.49002  1.0000
  C   C2063     1.0  0.58089  0.73651  0.54634  1.0000
  H   H3665     1.0  0.55820  0.77958  0.59039  1.0000
  H   H3666     1.0  0.57724  0.77922  0.60241  1.0000
  H   H3667     1.0  0.60739  0.78274  0.56288  1.0000
  H   H3668     1.0  0.58116  0.78908  0.56111  1.0000
  H   H3669     1.0  0.56387  0.75982  0.56891  1.0000
  H   H3670     1.0  0.57738  0.73730  0.57840  1.0000
  H   H3671     1.0  0.60470  0.73805  0.59239  1.0000
  H   H3672     1.0  0.61873  0.75028  0.57540  1.0000
  H   H3673     1.0  0.55739  0.84275  0.51548  1.0000
  H   H3674     1.0  0.55753  0.76528  0.62788  1.0000
  H   H3675     1.0  0.55584  0.74312  0.59973  1.0000
  H   H3676     1.0  0.57721  0.74045  0.61054  1.0000
  H   H3677     1.0  0.60683  0.73806  0.55723  1.0000
  H   H3678     1.0  0.59554  0.76207  0.54727  1.0000
  H   H3679     1.0  0.57354  0.80974  0.58208  1.0000
  H   H3680     1.0  0.59793  0.80214  0.58848  1.0000
  C   C2064     1.0  0.34099  0.83268  0.68610  1.0000
  H   H3681     1.0  0.59011  0.82506  0.55540  1.0000
  H   H3682     1.0  0.59513  0.83608  0.57180  1.0000
  C   C2065     1.0  0.40907  0.67656  0.59753  1.0000
  H   H3683     1.0  0.50676  0.55478  0.51050  1.0000
  C   C2066     1.0  0.35766  0.52646  0.52926  1.0000
  H   H3684     1.0  0.58942  0.67537  0.70065  1.0000
  H   H3685     1.0  0.56653  0.74612  0.54328  1.0000
  H   H3686     1.0  0.59052  0.73280  0.53508  1.0000
  H   H3687     1.0  0.57720  0.72204  0.55375  1.0000
  H   H3688     1.0  0.33780  0.50334  0.58825  1.0000
  H   H3689     1.0  0.64449  0.75620  0.60921  1.0000
  H   H3690     1.0  0.51739  0.78976  0.52037  1.0000
  H   H3691     1.0  0.40172  0.51920  0.50808  1.0000
  H   H3692     1.0  0.32957  0.85705  0.66886  1.0000
  H   H3693     1.0  0.37383  0.80810  0.56582  1.0000
  H   H3694     1.0  0.55615  0.81648  0.51347  1.0000
  S   S471      1.0  0.32979  0.80692  0.65331  1.0000
  H   H3695     1.0  0.36687  0.53641  0.52033  1.0000
  C   C2067     1.0  0.49642  0.88809  0.51347  1.0000
  C   C2068     1.0  0.63963  0.68363  0.71754  1.0000
  H   H3696     1.0  0.49202  0.80123  0.51634  1.0000
  H   H3697     1.0  0.64166  0.64313  0.60787  1.0000
  H   H3698     1.0  0.36823  0.81200  0.67908  1.0000
  C   C2069     1.0  0.54342  0.92267  0.59352  1.0000
  H   H3699     1.0  0.53306  0.72088  0.67401  1.0000
  H   H3700     1.0  0.35228  0.60457  0.58972  1.0000
  C   C2070     1.0  0.59295  0.98017  0.53372  1.0000
  C   C2071     1.0  0.52635  0.85214  0.47546  1.0000
  H   H3701     1.0  0.63428  0.88380  0.47734  1.0000
  H   H3702     1.0  0.33494  0.84428  0.56813  1.0000
  C   C2072     1.0  0.42541  0.69688  0.62080  1.0000
  C   C2073     1.0  0.40373  0.58327  0.48102  1.0000
  H   H3703     1.0  0.44150  0.69572  0.64089  1.0000
  H   H3704     1.0  0.41735  0.68634  0.64615  1.0000
  H   H3705     1.0  0.50698  0.89954  0.51186  1.0000
  H   H3706     1.0  0.63405  0.96421  0.56145  1.0000
  H   H3707     1.0  0.59161  0.84023  0.49925  1.0000
  H   H3708     1.0  0.48084  0.89634  0.51239  1.0000
  H   H3709     1.0  0.34422  0.59851  0.57234  1.0000
  H   H3710     1.0  0.49634  0.87926  0.52564  1.0000
  H   H3711     1.0  0.44118  0.98075  0.47768  1.0000
  C   C2074     1.0  0.34027  0.60847  0.58183  1.0000
  C   C2075     1.0  0.63355  0.55394  0.59580  1.0000
  H   H3712     1.0  0.59160  0.61038  0.63344  1.0000
  C   C2076     1.0  0.64167  0.64118  0.59530  1.0000
  C   C2077     1.0  0.34275  0.83727  0.57863  1.0000
  H   H3713     1.0  0.60715  0.72931  0.62817  1.0000
  H   H3714     1.0  0.52063  0.91827  0.47098  1.0000
  H   H3715     1.0  0.32548  0.54189  0.59852  1.0000
  C   C2078     1.0  0.32542  0.78703  0.71612  1.0000
  H   H3716     1.0  0.58643  0.97005  0.52754  1.0000
  C   C2079     1.0  0.34603  0.72762  0.59645  1.0000
  H   H3717     1.0  0.37162  0.53275  0.54821  1.0000
  C   C2080     1.0  0.39178  0.52202  0.59863  1.0000
  C   C2081     1.0  0.55726  0.93889  0.58704  1.0000
  H   H3718     1.0  0.59051  0.82131  0.51674  1.0000
  C   C2082     1.0  0.55254  0.69474  0.66411  1.0000
  H   H3719     1.0  0.38536  0.53831  0.59553  1.0000
  C   C2083     1.0  0.37150  0.82881  0.62409  1.0000
  H   H3720     1.0  0.34123  0.51760  0.56107  1.0000
  H   H3721     1.0  0.36997  0.69374  0.60866  1.0000
  C   C2084     1.0  0.33903  0.88353  0.58110  1.0000
  H   H3722     1.0  0.33134  0.82200  0.68382  1.0000
  C   C2085     1.0  0.55339  0.83772  0.49147  1.0000
  C   C2086     1.0  0.37568  0.51103  0.57724  1.0000
  H   H3723     1.0  0.50418  0.50732  0.54025  1.0000
  H   H3724     1.0  0.56204  0.97970  0.59770  1.0000
  C   C2087     1.0  0.56805  0.89294  0.47550  1.0000
  H   H3725     1.0  0.40468  0.51199  0.48830  1.0000
  H   H3726     1.0  0.49959  0.52056  0.50799  1.0000
  H   H3727     1.0  0.58718  0.67029  0.65795  1.0000
  H   H3728     1.0  0.59088  0.70226  0.69743  1.0000
  H   H3729     1.0  0.51323  0.95850  0.51017  1.0000
  H   H3730     1.0  0.53347  0.95759  0.57467  1.0000
  H   H3731     1.0  0.34648  0.81685  0.61871  1.0000
  H   H3732     1.0  0.36236  0.83717  0.63364  1.0000
  H   H3733     1.0  0.37824  0.81356  0.62970  1.0000
  H   H3734     1.0  0.38409  0.83729  0.61803  1.0000
  H   H3735     1.0  0.46299  0.97355  0.49611  1.0000
  N   N115      1.0  0.57089  0.69266  0.67260  1.0000
  H   H3736     1.0  0.53300  0.92683  0.60433  1.0000
  H   H3737     1.0  0.41333  0.74431  0.56194  1.0000
  C   C2088     1.0  0.50284  0.87386  0.50077  1.0000
  H   H3738     1.0  0.34017  0.62460  0.57616  1.0000
  Fe  Fe239     1.0  0.65045  0.66695  0.66489  1.0000
  C   C2089     1.0  0.64575  0.67217  0.70483  1.0000
  H   H3739     1.0  0.36098  0.85469  0.59760  1.0000
  C   C2090     1.0  0.40610  0.52421  0.49515  1.0000
  H   H3740     1.0  0.40936  0.72816  0.59038  1.0000
  H   H3741     1.0  0.39542  0.53806  0.49138  1.0000
  H   H3742     1.0  0.33949  0.91458  0.56900  1.0000
  H   H3743     1.0  0.34951  0.49549  0.55147  1.0000
  C   C2091     1.0  0.63742  0.74923  0.60105  1.0000
  C   C2092     1.0  0.42475  0.58334  0.47894  1.0000
  C   C2093     1.0  0.32839  0.90367  0.57308  1.0000
  C   C2094     1.0  0.56174  0.83082  0.50753  1.0000
  H   H3744     1.0  0.56605  0.93980  0.59667  1.0000
  C   C2095     1.0  0.32236  0.54633  0.58636  1.0000
  C   C2096     1.0  0.56939  0.98223  0.58506  1.0000
  C   C2097     1.0  0.40046  0.65999  0.61051  1.0000
  H   H3745     1.0  0.50782  0.96271  0.48996  1.0000
  C   C2098     1.0  0.58499  0.82631  0.50501  1.0000
  C   C2099     1.0  0.63950  0.61892  0.59395  1.0000
  S   S472      1.0  0.32273  0.75869  0.66212  1.0000
  C   C2100     1.0  0.51917  0.82656  0.49892  1.0000
  H   H3746     1.0  0.38367  0.49227  0.59990  1.0000
  H   H3747     1.0  0.52454  0.82368  0.52410  1.0000
  C   C2101     1.0  0.49193  0.49822  0.54283  1.0000
  H   H3748     1.0  0.64562  0.54125  0.59931  1.0000
  H   H3749     1.0  0.35316  0.81350  0.55390  1.0000
  H   H3750     1.0  0.40563  0.67367  0.58592  1.0000
  C   C2102     1.0  0.49083  0.55184  0.51152  1.0000
  C   C2103     1.0  0.42553  0.69819  0.63838  1.0000
  H   H3751     1.0  0.43496  0.70798  0.61360  1.0000
  H   H3752     1.0  0.62313  0.77757  0.58997  1.0000
  H   H3753     1.0  0.33919  0.74391  0.59650  1.0000
  H   H3754     1.0  0.39874  0.71857  0.61770  1.0000
  C   C2104     1.0  0.58036  0.69075  0.70098  1.0000
  H   H3755     1.0  0.62002  0.59301  0.58493  1.0000
  H   H3756     1.0  0.57860  0.71159  0.64039  1.0000
  H   H3757     1.0  0.34259  0.53555  0.53253  1.0000
  C   C2105     1.0  0.42784  0.52919  0.49189  1.0000
  H   H3758     1.0  0.56160  0.85034  0.48481  1.0000
  S   S473      1.0  0.33586  0.77912  0.69747  1.0000
  N   N116      1.0  0.62075  0.61104  0.60344  1.0000
  C   C2106     1.0  0.57948  0.64848  0.58168  1.0000
  H   H3759     1.0  0.53423  0.92094  0.58432  1.0000
  H   H3760     1.0  0.39339  0.51923  0.61152  1.0000
  H   H3761     1.0  0.65111  0.57670  0.59809  1.0000
  C   C2107     1.0  0.41051  0.71223  0.57010  1.0000
  C   C2108     1.0  0.47215  0.51848  0.47695  1.0000
  H   H3762     1.0  0.60236  0.63261  0.67987  1.0000
  C   C2109     1.0  0.37769  0.50815  0.59530  1.0000
  H   H3763     1.0  0.55207  0.68444  0.69504  1.0000
  C   C2110     1.0  0.53957  0.71621  0.66220  1.0000
  H   H3764     1.0  0.62352  0.62312  0.62474  1.0000
  H   H3765     1.0  0.50244  0.88354  0.48895  1.0000
  H   H3766     1.0  0.57615  0.65160  0.56919  1.0000
  H   H3767     1.0  0.63540  0.55701  0.58256  1.0000
  H   H3768     1.0  0.60813  0.76633  0.60780  1.0000
  H   H3769     1.0  0.34191  0.86540  0.68267  1.0000
  H   H3770     1.0  0.49186  0.94889  0.50569  1.0000
  C   C2111     1.0  0.59132  0.71035  0.64735  1.0000
  H   H3771     1.0  0.53291  0.86644  0.47093  1.0000
  H   H3772     1.0  0.60392  0.58639  0.60276  1.0000
  C   C2112     1.0  0.34808  0.84698  0.60420  1.0000
  C   C2113     1.0  0.58396  0.70899  0.66556  1.0000
  H   H3773     1.0  0.42635  0.63594  0.60812  1.0000
  N   N117      1.0  0.53067  0.84435  0.49231  1.0000
  H   H3774     1.0  0.41971  0.72807  0.54650  1.0000
  H   H3775     1.0  0.60167  0.64010  0.60574  1.0000
  H   H3776     1.0  0.34335  0.82908  0.69880  1.0000
  H   H3777     1.0  0.41825  0.71349  0.64133  1.0000
  C   C2114     1.0  0.60213  0.72891  0.64118  1.0000
  H   H3778     1.0  0.40779  0.63629  0.59496  1.0000
  H   H3779     1.0  0.46078  0.52854  0.51548  1.0000
  C   C2115     1.0  0.63566  0.57289  0.60273  1.0000
  H   H3780     1.0  0.42967  0.70796  0.58837  1.0000
  C   C2116     1.0  0.60563  0.59895  0.63264  1.0000
  H   H3781     1.0  0.51272  0.73180  0.65183  1.0000
  C   C2117     1.0  0.52185  0.71633  0.65308  1.0000
  H   H3782     1.0  0.43148  0.53364  0.47882  1.0000
  H   H3783     1.0  0.61577  0.72789  0.64716  1.0000
  H   H3784     1.0  0.59807  0.70637  0.67124  1.0000
  C   C2118     1.0  0.50480  0.80244  0.52264  1.0000
  H   H3785     1.0  0.57604  0.72423  0.66829  1.0000
  H   H3786     1.0  0.62430  0.57991  0.64947  1.0000
  C   C2119     1.0  0.46795  0.53066  0.50274  1.0000
  H   H3787     1.0  0.34420  0.72294  0.58501  1.0000
  H   H3788     1.0  0.51171  0.70529  0.65953  1.0000
  H   H3789     1.0  0.37589  0.73530  0.58823  1.0000
  H   H3790     1.0  0.40251  0.62701  0.61593  1.0000
  C   C2120     1.0  0.58350  0.67213  0.67077  1.0000
  C   C2121     1.0  0.62290  0.60824  0.62091  1.0000
  H   H3791     1.0  0.52758  0.71229  0.64093  1.0000
  H   H3792     1.0  0.58803  0.61948  0.60743  1.0000
  C   C2122     1.0  0.47166  0.50789  0.54547  1.0000
  C   C2123     1.0  0.48727  0.98184  0.50590  1.0000
  H   H3793     1.0  0.37583  0.69704  0.58768  1.0000
  H   H3794     1.0  0.48979  0.96957  0.55553  1.0000
  C   C2124     1.0  0.35499  0.50673  0.55729  1.0000
  C   C2125     1.0  0.56359  0.69472  0.68993  1.0000
  H   H3795     1.0  0.65349  0.60916  0.59771  1.0000
  H   H3796     1.0  0.54872  0.72789  0.65544  1.0000
  H   H3797     1.0  0.55888  0.65314  0.67515  1.0000
  H   H3798     1.0  0.49150  0.86328  0.50219  1.0000
  H   H3799     1.0  0.52595  0.85700  0.51467  1.0000
  H   H3800     1.0  0.38376  0.66117  0.61094  1.0000
  H   H3801     1.0  0.55282  0.90772  0.59677  1.0000
  H   H3802     1.0  0.50967  0.85626  0.47520  1.0000
  C   C2126     1.0  0.40987  0.63854  0.60709  1.0000
  H   H3803     1.0  0.36934  0.73067  0.60959  1.0000
  H   H3804     1.0  0.39110  0.51140  0.57022  1.0000
  C   C2127     1.0  0.54970  0.75797  0.62042  1.0000
  H   H3805     1.0  0.34875  0.80518  0.59052  1.0000
  H   H3806     1.0  0.33769  0.71835  0.60656  1.0000
  H   H3807     1.0  0.40715  0.51891  0.59164  1.0000
  H   H3808     1.0  0.48042  0.97993  0.51864  1.0000
  C   C2128     1.0  0.36853  0.72518  0.59826  1.0000
  C   C2129     1.0  0.40352  0.70216  0.61642  1.0000
  H   H3809     1.0  0.59839  0.58796  0.65790  1.0000
  H   H3810     1.0  0.59441  0.96915  0.60934  1.0000
  H   H3811     1.0  0.63446  0.56867  0.61588  1.0000
  H   H3812     1.0  0.48509  0.54792  0.52437  1.0000
  H   H3813     1.0  0.36807  0.81766  0.60300  1.0000
  C   C2130     1.0  0.47836  0.49406  0.50145  1.0000
  H   H3814     1.0  0.59169  0.74323  0.64319  1.0000
  H   H3815     1.0  0.33079  0.89100  0.62684  1.0000
  H   H3816     1.0  0.55834  0.96446  0.55217  1.0000
  H   H3817     1.0  0.63770  0.59885  0.62308  1.0000
  H   H3818     1.0  0.35559  0.51331  0.52369  1.0000
  C   C2131     1.0  0.34809  0.48954  0.58454  1.0000
  N   N118      1.0  0.55617  0.97694  0.57415  1.0000
  C   C2132     1.0  0.64487  0.51133  0.54653  1.0000
  H   H3819     1.0  0.61849  0.54901  0.60041  1.0000
  C   C2133     1.0  0.33095  0.85510  0.68179  1.0000
  C   C2134     1.0  0.35801  0.80573  0.56542  1.0000
  H   H3820     1.0  0.63389  0.73406  0.60716  1.0000
  C   C2135     1.0  0.35807  0.82611  0.61211  1.0000
  H   H3821     1.0  0.35097  0.87686  0.57209  1.0000
  H   H3822     1.0  0.62911  0.65224  0.59057  1.0000
  H   H3823     1.0  0.63432  0.51581  0.55720  1.0000
  C   C2136     1.0  0.59165  0.97101  0.58415  1.0000
  H   H3824     1.0  0.64047  0.61774  0.58105  1.0000
  H   H3825     1.0  0.32828  0.81015  0.57901  1.0000
  C   C2137     1.0  0.60218  0.97519  0.59748  1.0000
  H   H3826     1.0  0.60061  0.97650  0.57268  1.0000
  H   H3827     1.0  0.47939  0.49461  0.51417  1.0000
  H   H3828     1.0  0.64866  0.74696  0.59021  1.0000
  C   C2138     1.0  0.57107  0.69215  0.71832  1.0000
  C   C2139     1.0  0.64864  0.48807  0.54769  1.0000
  H   H3829     1.0  0.64290  0.49391  0.66754  1.0000
  H   H3830     1.0  0.63784  0.51831  0.53570  1.0000
  H   H3831     1.0  0.62787  0.69676  0.71651  1.0000
  H   H3832     1.0  0.56232  0.70756  0.71951  1.0000
  H   H3833     1.0  0.64668  0.94996  0.52574  1.0000
  H   H3834     1.0  0.32511  0.88100  0.71443  1.0000
  H   H3835     1.0  0.64489  0.49870  0.64606  1.0000
  C   C2140     1.0  0.32363  0.86856  0.58831  1.0000
  H   H3836     1.0  0.32194  0.90120  0.56258  1.0000
  H   H3837     1.0  0.43053  0.63026  0.47091  1.0000
  H   H3838     1.0  0.42108  0.49747  0.90196  1.0000
  H   H3839     1.0  0.55863  0.68694  0.92351  1.0000
  S   S474      1.0  0.48203  0.82342  0.94544  1.0000
  S   S475      1.0  0.50877  0.62230  0.94435  1.0000
  Fe  Fe240     1.0  0.50478  0.74808  0.88132  1.0000
  S   S476      1.0  0.47134  0.74695  0.88594  1.0000
  S   S477      1.0  0.52252  0.76165  0.89632  1.0000
  Fe  Fe241     1.0  0.51172  0.72320  0.85367  1.0000
  S   S478      1.0  0.47834  0.72002  0.85621  1.0000
  S   S479      1.0  0.53445  0.70621  0.83570  1.0000
  Fe  Fe242     1.0  0.47191  0.75317  0.85926  1.0000
  S   S480      1.0  0.44560  0.77703  0.85121  1.0000
  Fe  Fe243     1.0  0.47968  0.71406  0.88256  1.0000
  S   S481      1.0  0.46105  0.69265  0.89964  1.0000
  S   S482      1.0  0.50519  0.75704  0.85473  1.0000
  S   S483      1.0  0.51326  0.71448  0.87992  1.0000
  C   C2141     1.0  0.55972  0.50139  0.96466  1.0000
  Fe  Fe244     1.0  0.36529  0.50229  0.94714  1.0000
  S   S484      1.0  0.38608  0.52702  0.94203  1.0000
  H   H3840     1.0  0.44549  0.50021  0.87325  1.0000
  H   H3841     1.0  0.45165  0.85774  0.93578  1.0000
  C   C2142     1.0  0.34488  0.92881  0.89667  1.0000
  H   H3842     1.0  0.52299  0.69075  0.91716  1.0000
  H   H3843     1.0  0.34184  0.72999  0.77172  1.0000
  H   H3844     1.0  0.43192  0.57046  0.95427  1.0000
  C   C2143     1.0  0.41202  0.55096  0.94904  1.0000
  H   H3845     1.0  0.60372  0.92955  0.95030  1.0000
  S   S485      1.0  0.62580  0.72032  0.80763  1.0000
  C   C2144     1.0  0.41805  0.73703  0.88077  1.0000
  H   H3846     1.0  0.45549  0.72369  0.94618  1.0000
  Fe  Fe245     1.0  0.34504  0.77732  0.80938  1.0000
  H   H3847     1.0  0.52020  0.72542  0.96602  1.0000
  S   S486      1.0  0.37867  0.76378  0.81029  1.0000
  H   H3848     1.0  0.34928  0.89793  0.89175  1.0000
  H   H3849     1.0  0.54551  0.67269  0.86448  1.0000
  H   H3850     1.0  0.33605  0.71470  0.79075  1.0000
  H   H3851     1.0  0.44513  0.86013  0.96426  1.0000
  H   H3852     1.0  0.53886  0.63823  0.95885  1.0000
  H   H3853     1.0  0.49635  0.73438  0.95841  1.0000
  H   H3854     1.0  0.41040  0.87696  0.96645  1.0000
  H   H3855     1.0  0.33262  0.83873  0.73472  1.0000
  C   C2145     1.0  0.52835  0.95865  0.94694  1.0000
  H   H3856     1.0  0.45840  0.70581  0.93207  1.0000
  H   H3857     1.0  0.58031  0.91299  0.93875  1.0000
  C   C2146     1.0  0.42692  0.77283  0.84011  1.0000
  C   C2147     1.0  0.43137  0.75885  0.82918  1.0000
  C   C2148     1.0  0.41645  0.75646  0.82014  1.0000
  C   C2149     1.0  0.39680  0.76782  0.82198  1.0000
  C   C2150     1.0  0.39229  0.78174  0.83299  1.0000
  C   C2151     1.0  0.40734  0.78437  0.84186  1.0000
  H   H3858     1.0  0.44643  0.75008  0.82748  1.0000
  H   H3859     1.0  0.42017  0.74576  0.81159  1.0000
  H   H3860     1.0  0.37730  0.79066  0.83450  1.0000
  H   H3861     1.0  0.40376  0.79543  0.85012  1.0000
  C   C2152     1.0  0.55982  0.71045  0.82808  1.0000
  C   C2153     1.0  0.56903  0.72470  0.83342  1.0000
  C   C2154     1.0  0.58924  0.72746  0.82706  1.0000
  C   C2155     1.0  0.60054  0.71591  0.81543  1.0000
  C   C2156     1.0  0.59134  0.70164  0.81010  1.0000
  C   C2157     1.0  0.57112  0.69890  0.81644  1.0000
  H   H3862     1.0  0.56054  0.73372  0.84234  1.0000
  H   H3863     1.0  0.59615  0.73870  0.83114  1.0000
  H   H3864     1.0  0.59972  0.69287  0.80099  1.0000
  H   H3865     1.0  0.56408  0.68791  0.81217  1.0000
  C   C2158     1.0  0.64755  0.94968  0.91015  1.0000
  H   H3866     1.0  0.48534  0.73852  0.93160  1.0000
  H   H3867     1.0  0.41024  0.55952  0.93738  1.0000
  H   H3868     1.0  0.57900  0.68308  0.85898  1.0000
  C   C2159     1.0  0.49502  0.64159  0.93207  1.0000
  C   C2160     1.0  0.50563  0.65171  0.91842  1.0000
  C   C2161     1.0  0.49535  0.66743  0.90845  1.0000
  C   C2162     1.0  0.47432  0.67300  0.91198  1.0000
  C   C2163     1.0  0.46365  0.66283  0.92559  1.0000
  C   C2164     1.0  0.47400  0.64725  0.93569  1.0000
  H   H3869     1.0  0.52187  0.64724  0.91548  1.0000
  H   H3870     1.0  0.50363  0.67490  0.89785  1.0000
  H   H3871     1.0  0.44735  0.66702  0.92835  1.0000
  H   H3872     1.0  0.46569  0.63949  0.94616  1.0000
  H   H3873     1.0  0.64013  0.64511  0.86624  1.0000
  H   H3874     1.0  0.57572  0.69688  0.89673  1.0000
  H   H3875     1.0  0.33542  0.87335  0.88372  1.0000
  C   C2165     1.0  0.40978  0.69511  0.88118  1.0000
  H   H3876     1.0  0.41997  0.72405  0.84451  1.0000
  H   H3877     1.0  0.46503  0.79884  0.92846  1.0000
  H   H3878     1.0  0.52243  0.71739  0.91196  1.0000
  C   C2166     1.0  0.58318  0.49574  0.96131  1.0000
  C   C2167     1.0  0.49373  0.80649  0.93171  1.0000
  C   C2168     1.0  0.51484  0.80298  0.92730  1.0000
  C   C2169     1.0  0.52344  0.78931  0.91634  1.0000
  C   C2170     1.0  0.51106  0.77906  0.90973  1.0000
  C   C2171     1.0  0.48999  0.78248  0.91422  1.0000
  C   C2172     1.0  0.48137  0.79625  0.92506  1.0000
  H   H3879     1.0  0.52451  0.81076  0.93234  1.0000
  H   H3880     1.0  0.53979  0.78665  0.91300  1.0000
  H   H3881     1.0  0.48039  0.77435  0.90945  1.0000
  C   C2173     1.0  0.59408  0.91952  0.95797  1.0000
  H   H3882     1.0  0.64785  0.63964  0.84664  1.0000
  H   H3883     1.0  0.34666  0.71973  0.85226  1.0000
  N   N119      1.0  0.54161  0.98038  0.96413  1.0000
  H   H3884     1.0  0.43080  0.65686  0.89232  1.0000
  C   C2174     1.0  0.64867  0.67817  0.73161  1.0000
  H   H3885     1.0  0.60922  0.50730  0.94638  1.0000
  H   H3886     1.0  0.53485  0.66509  0.93594  1.0000
  H   H3887     1.0  0.35108  0.85173  0.85376  1.0000
  H   H3888     1.0  0.41259  0.96850  0.94782  1.0000
  H   H3889     1.0  0.60605  0.66861  0.82835  1.0000
  H   H3890     1.0  0.58739  0.50925  0.93628  1.0000
  H   H3891     1.0  0.50638  0.76752  0.94809  1.0000
  C   C2175     1.0  0.43388  0.85355  0.95930  1.0000
  C   C2176     1.0  0.64201  0.68230  0.84303  1.0000
  S   S487      1.0  0.49689  0.87239  0.95876  1.0000
  Fe  Fe246     1.0  0.52829  0.86553  0.96623  1.0000
  H   H3892     1.0  0.58342  0.96548  0.95250  1.0000
  C   C2177     1.0  0.64485  0.70334  0.84612  1.0000
  H   H3893     1.0  0.39068  0.72268  0.83635  1.0000
  S   S488      1.0  0.53046  0.83156  0.96607  1.0000
  C   C2178     1.0  0.46110  0.72116  0.93365  1.0000
  C   C2179     1.0  0.32936  0.78803  0.74378  1.0000
  C   C2180     1.0  0.33631  0.91032  0.89372  1.0000
  C   C2181     1.0  0.43850  0.50276  0.92835  1.0000
  C   C2182     1.0  0.43401  0.48551  0.90519  1.0000
  H   H3894     1.0  0.42582  0.85411  0.93562  1.0000
  H   H3895     1.0  0.64526  0.70330  0.85900  1.0000
  H   H3896     1.0  0.52073  0.93680  0.93371  1.0000
  H   H3897     1.0  0.40150  0.70019  0.89255  1.0000
  H   H3898     1.0  0.55386  0.94903  0.96037  1.0000
  H   H3899     1.0  0.37542  0.73925  0.84971  1.0000
  C   C2183     1.0  0.65495  0.91813  0.93049  1.0000
  C   C2184     1.0  0.52810  0.66890  0.94795  1.0000
  S   S489      1.0  0.33123  0.81006  0.80213  1.0000
  H   H3900     1.0  0.36191  0.70297  0.83883  1.0000
  H   H3901     1.0  0.56932  0.96584  0.93652  1.0000
  H   H3902     1.0  0.49004  0.70537  0.95227  1.0000
  H   H3903     1.0  0.40834  0.76996  0.87764  1.0000
  H   H3904     1.0  0.51806  0.74003  0.93008  1.0000
  H   H3905     1.0  0.58342  0.68939  0.72589  1.0000
  H   H3906     1.0  0.64503  0.87077  0.94148  1.0000
  H   H3907     1.0  0.51182  0.96426  0.94958  1.0000
  H   H3908     1.0  0.61763  0.64226  0.80368  1.0000
  H   H3909     1.0  0.59875  0.62540  0.80956  1.0000
  C   C2185     1.0  0.61580  0.65475  0.83329  1.0000
  C   C2186     1.0  0.59732  0.65239  0.86133  1.0000
  C   C2187     1.0  0.35941  0.71853  0.84227  1.0000
  C   C2188     1.0  0.40181  0.53393  0.95448  1.0000
  H   H3910     1.0  0.55994  0.65949  0.88003  1.0000
  C   C2189     1.0  0.48370  0.72310  0.92947  1.0000
  C   C2190     1.0  0.41127  0.75723  0.88743  1.0000
  H   H3911     1.0  0.42204  0.72521  0.89087  1.0000
  H   H3912     1.0  0.43206  0.73863  0.87211  1.0000
  C   C2191     1.0  0.57813  0.66738  0.85693  1.0000
  H   H3913     1.0  0.49433  0.69136  0.93609  1.0000
  H   H3914     1.0  0.57628  0.66783  0.84428  1.0000
  H   H3915     1.0  0.58771  0.52664  0.95020  1.0000
  C   C2192     1.0  0.56835  0.89675  0.96125  1.0000
  H   H3916     1.0  0.40947  0.64305  0.89507  1.0000
  H   H3917     1.0  0.64279  0.68289  0.82996  1.0000
  H   H3918     1.0  0.62035  0.67839  0.86461  1.0000
  Fe  Fe247     1.0  0.49822  0.83829  0.96078  1.0000
  C   C2193     1.0  0.53024  0.93700  0.94306  1.0000
  S   S490      1.0  0.55200  0.88507  0.95249  1.0000
  C   C2194     1.0  0.42267  0.71079  0.85386  1.0000
  C   C2195     1.0  0.42857  0.69134  0.84571  1.0000
  H   H3919     1.0  0.34467  0.83915  0.87395  1.0000
  H   H3920     1.0  0.51211  0.66589  0.95030  1.0000
  C   C2196     1.0  0.40439  0.67344  0.88162  1.0000
  C   C2197     1.0  0.44437  0.69467  0.83088  1.0000
  H   H3921     1.0  0.53187  0.75924  0.95307  1.0000
  H   H3922     1.0  0.38693  0.69261  0.85799  1.0000
  H   H3923     1.0  0.38656  0.73344  0.88093  1.0000
  H   H3924     1.0  0.62012  0.62238  0.83063  1.0000
  C   C2198     1.0  0.60819  0.63592  0.82940  1.0000
  C   C2199     1.0  0.63449  0.64006  0.85625  1.0000
  H   H3925     1.0  0.41530  0.68685  0.84183  1.0000
  H   H3926     1.0  0.43559  0.67862  0.85401  1.0000
  H   H3927     1.0  0.53471  0.96843  0.93618  1.0000
  H   H3928     1.0  0.51038  0.76113  0.96857  1.0000
  H   H3929     1.0  0.55602  0.64620  0.86436  1.0000
  H   H3930     1.0  0.38761  0.67387  0.88427  1.0000
  H   H3931     1.0  0.40965  0.66740  0.87018  1.0000
  H   H3932     1.0  0.40860  0.66343  0.90656  1.0000
  H   H3933     1.0  0.45830  0.69882  0.83409  1.0000
  C   C2200     1.0  0.55178  0.70129  0.91674  1.0000
  H   H3934     1.0  0.43805  0.70702  0.82192  1.0000
  S   S491      1.0  0.35860  0.98473  0.95503  1.0000
  S   S492      1.0  0.38494  0.92932  0.96102  1.0000
  H   H3935     1.0  0.60946  0.68854  0.84690  1.0000
  H   H3936     1.0  0.37279  0.70876  0.87146  1.0000
  H   H3937     1.0  0.54624  0.93145  0.93844  1.0000
  C   C2201     1.0  0.38563  0.70801  0.86144  1.0000
  H   H3938     1.0  0.33252  0.83450  0.85797  1.0000
  C   C2202     1.0  0.42439  0.55719  0.95858  1.0000
  H   H3939     1.0  0.42346  0.76040  0.89351  1.0000
  C   C2203     1.0  0.43567  0.86143  0.94143  1.0000
  C   C2204     1.0  0.63096  0.61743  0.86159  1.0000
  C   C2205     1.0  0.41481  0.98070  0.95438  1.0000
  H   H3940     1.0  0.65133  0.59546  0.80816  1.0000
  H   H3941     1.0  0.64777  0.91088  0.92251  1.0000
  C   C2206     1.0  0.57487  0.97563  0.94357  1.0000
  H   H3942     1.0  0.45441  0.50502  0.92345  1.0000
  H   H3943     1.0  0.55248  0.68788  0.89515  1.0000
  H   H3944     1.0  0.63229  0.71515  0.84218  1.0000
  H   H3945     1.0  0.59145  0.65236  0.81029  1.0000
  N   N120      1.0  0.61704  0.65545  0.85057  1.0000
  S   S493      1.0  0.33173  0.50944  0.94506  1.0000
  H   H3946     1.0  0.45226  0.73274  0.92561  1.0000
  H   H3947     1.0  0.36237  0.55659  0.96589  1.0000
  H   H3948     1.0  0.42627  0.69345  0.88230  1.0000
  C   C2207     1.0  0.55878  0.66098  0.86713  1.0000
  C   C2208     1.0  0.52904  0.69141  0.94942  1.0000
  H   H3949     1.0  0.43658  0.71287  0.85837  1.0000
  H   H3950     1.0  0.42548  0.91200  0.94973  1.0000
  H   H3951     1.0  0.55386  0.50631  0.95302  1.0000
  N   N121      1.0  0.40489  0.71099  0.86706  1.0000
  H   H3952     1.0  0.35501  0.72967  0.83186  1.0000
  N   N122      1.0  0.51921  0.70735  0.93735  1.0000
  C   C2209     1.0  0.55885  0.70016  0.89900  1.0000
  C   C2210     1.0  0.49676  0.70598  0.93948  1.0000
  H   H3953     1.0  0.59884  0.65377  0.87383  1.0000
  H   H3954     1.0  0.53943  0.72841  0.93920  1.0000
  N   N123      1.0  0.48849  0.82773  0.86682  1.0000
  C   C2211     1.0  0.47656  0.84566  0.85764  1.0000
  C   C2212     1.0  0.49681  0.83498  0.87986  1.0000
  C   C2213     1.0  0.50649  0.81976  0.85529  1.0000
  C   C2214     1.0  0.47606  0.81072  0.87364  1.0000
  C   C2215     1.0  0.45297  0.81723  0.87916  1.0000
  C   C2216     1.0  0.46992  0.84118  0.84221  1.0000
  C   C2217     1.0  0.52249  0.80289  0.86255  1.0000
  C   C2218     1.0  0.48123  0.84494  0.89277  1.0000
  C   C2219     1.0  0.49196  0.85441  0.90346  1.0000
  C   C2220     1.0  0.44324  0.79976  0.88957  1.0000
  C   C2221     1.0  0.45286  0.85748  0.83653  1.0000
  C   C2222     1.0  0.53872  0.79464  0.84955  1.0000
  H   H3955     1.0  0.48569  0.85847  0.85405  1.0000
  H   H3956     1.0  0.46274  0.85208  0.86518  1.0000
  H   H3957     1.0  0.50570  0.82197  0.88677  1.0000
  H   H3958     1.0  0.50762  0.84593  0.87445  1.0000
  H   H3959     1.0  0.51473  0.83251  0.84894  1.0000
  H   H3960     1.0  0.50124  0.81317  0.84589  1.0000
  H   H3961     1.0  0.47681  0.80012  0.86477  1.0000
  H   H3962     1.0  0.48283  0.80097  0.88380  1.0000
  H   H3963     1.0  0.44480  0.82193  0.86861  1.0000
  H   H3964     1.0  0.44998  0.83020  0.88603  1.0000
  H   H3965     1.0  0.48303  0.84104  0.83245  1.0000
  H   H3966     1.0  0.46463  0.82608  0.84400  1.0000
  H   H3967     1.0  0.51497  0.79009  0.86935  1.0000
  H   H3968     1.0  0.53067  0.80881  0.87060  1.0000
  H   H3969     1.0  0.47006  0.85727  0.88757  1.0000
  H   H3970     1.0  0.47309  0.83312  0.90060  1.0000
  H   H3971     1.0  0.50363  0.84285  0.90894  1.0000
  H   H3972     1.0  0.49941  0.86728  0.89650  1.0000
  H   H3973     1.0  0.48071  0.86032  0.91324  1.0000
  H   H3974     1.0  0.42662  0.80463  0.89255  1.0000
  H   H3975     1.0  0.44549  0.78644  0.88306  1.0000
  H   H3976     1.0  0.44990  0.79525  0.90085  1.0000
  H   H3977     1.0  0.43896  0.85752  0.84555  1.0000
  H   H3978     1.0  0.45770  0.87283  0.83429  1.0000
  H   H3979     1.0  0.44901  0.85411  0.82523  1.0000
  H   H3980     1.0  0.54758  0.80681  0.84318  1.0000
  H   H3981     1.0  0.54935  0.78193  0.85509  1.0000
  H   H3982     1.0  0.53173  0.78868  0.84077  1.0000
  C   C2223     1.0  0.52287  0.72805  0.93990  1.0000
  C   C2224     1.0  0.60378  0.63926  0.81217  1.0000
  H   H3983     1.0  0.64503  0.60738  0.85724  1.0000
  C   C2225     1.0  0.62125  0.67651  0.85184  1.0000
  H   H3984     1.0  0.65208  0.90173  0.96245  1.0000
  C   C2226     1.0  0.41391  0.65832  0.89471  1.0000
  H   H3985     1.0  0.61866  0.61312  0.85641  1.0000
  C   C2227     1.0  0.40108  0.73178  0.87253  1.0000
  H   H3986     1.0  0.32526  0.52551  0.86757  1.0000
  H   H3987     1.0  0.55801  0.71419  0.91972  1.0000
  H   H3988     1.0  0.43129  0.87827  0.93935  1.0000
  C   C2228     1.0  0.37881  0.72336  0.84697  1.0000
  H   H3989     1.0  0.48816  0.72209  0.91655  1.0000
  H   H3990     1.0  0.39727  0.75647  0.89627  1.0000
  C   C2229     1.0  0.33354  0.71737  0.77805  1.0000
  H   H3991     1.0  0.55390  0.71498  0.89176  1.0000
  C   C2230     1.0  0.42453  0.91214  0.96242  1.0000
  C   C2231     1.0  0.52819  0.70413  0.92049  1.0000
  H   H3992     1.0  0.43835  0.83680  0.96078  1.0000
  H   H3993     1.0  0.52199  0.49720  0.96229  1.0000
  H   H3994     1.0  0.52508  0.92646  0.95383  1.0000
  H   H3995     1.0  0.59372  0.63681  0.86194  1.0000
  H   H3996     1.0  0.39914  0.74415  0.86228  1.0000
  C   C2232     1.0  0.33857  0.84631  0.86275  1.0000
  C   C2233     1.0  0.58079  0.91011  0.95146  1.0000
  H   H3997     1.0  0.59394  0.63260  0.83717  1.0000
  H   H3998     1.0  0.63099  0.65540  0.82602  1.0000
  H   H3999     1.0  0.44869  0.68042  0.82539  1.0000
  H   H4000     1.0  0.62537  0.59535  0.88277  1.0000
  H   H4001     1.0  0.52160  0.69359  0.96170  1.0000
  Fe  Fe248     1.0  0.32480  0.98409  0.95777  1.0000
  C   C2234     1.0  0.51292  0.73506  0.95610  1.0000
  C   C2235     1.0  0.33676  0.78134  0.72891  1.0000
  C   C2236     1.0  0.59234  0.51069  0.94770  1.0000
  C   C2237     1.0  0.53907  0.95929  0.96151  1.0000
  H   H4002     1.0  0.60237  0.97716  0.92646  1.0000
  S   S494      1.0  0.63572  0.97138  0.95156  1.0000
  H   H4003     1.0  0.55592  0.65630  0.95829  1.0000
  Fe  Fe249     1.0  0.49374  0.60565  0.96724  1.0000
  H   H4004     1.0  0.41537  0.81648  0.96726  1.0000
  H   H4005     1.0  0.56086  0.68044  0.72274  1.0000
  C   C2238     1.0  0.51564  0.75706  0.95643  1.0000
  H   H4006     1.0  0.43591  0.48996  0.84912  1.0000
  H   H4007     1.0  0.44817  0.49193  0.89982  1.0000
  H   H4008     1.0  0.34267  0.88536  0.86431  1.0000
  C   C2239     1.0  0.53964  0.65424  0.96018  1.0000
  C   C2240     1.0  0.64008  0.88175  0.95016  1.0000
  H   H4009     1.0  0.35148  0.77194  0.72725  1.0000
  H   H4010     1.0  0.34044  0.86200  0.73767  1.0000
  H   H4011     1.0  0.65314  0.62125  0.81049  1.0000
  H   H4012     1.0  0.58984  0.55814  0.96459  1.0000
  H   H4013     1.0  0.35304  0.92464  0.90725  1.0000
  H   H4014     1.0  0.64377  0.68696  0.74141  1.0000
  C   C2241     1.0  0.32917  0.88081  0.87262  1.0000
  C   C2242     1.0  0.32870  0.85565  0.73312  1.0000
  H   H4015     1.0  0.33840  0.78386  0.75346  1.0000
  H   H4016     1.0  0.33238  0.94156  0.89904  1.0000
  H   H4017     1.0  0.54523  0.69320  0.94912  1.0000
  H   H4018     1.0  0.62824  0.89373  0.94542  1.0000
  H   H4019     1.0  0.32627  0.90526  0.90477  1.0000
  H   H4020     1.0  0.45479  0.89562  0.96373  1.0000
  H   H4021     1.0  0.64218  0.92420  0.93932  1.0000
  H   H4022     1.0  0.43679  0.50134  0.94158  1.0000
  C   C2243     1.0  0.32472  0.91573  0.87901  1.0000
  H   H4023     1.0  0.61296  0.62083  0.88501  1.0000
  Fe  Fe250     1.0  0.65199  0.69947  0.79534  1.0000
  H   H4024     1.0  0.33065  0.90493  0.84403  1.0000
  H   H4025     1.0  0.35573  0.93410  0.88618  1.0000
  H   H4026     1.0  0.44176  0.96385  0.96273  1.0000
  H   H4027     1.0  0.64542  0.94060  0.90101  1.0000
  H   H4028     1.0  0.42794  0.51638  0.92399  1.0000
  S   S495      1.0  0.32860  0.76521  0.79279  1.0000
  H   H4029     1.0  0.33621  0.91990  0.86860  1.0000
  H   H4030     1.0  0.65325  0.96391  0.90393  1.0000
  Fe  Fe251     1.0  0.32816  0.48584  0.96701  1.0000
  C   C2244     1.0  0.62707  0.61177  0.87975  1.0000
  C   C2245     1.0  0.42680  0.97133  0.96809  1.0000
  H   H4031     1.0  0.64012  0.61424  0.88524  1.0000
  H   H4032     1.0  0.33980  0.70323  0.77271  1.0000
  H   H4033     1.0  0.34385  0.54558  0.95828  1.0000
  H   H4034     1.0  0.40097  0.85690  0.96052  1.0000
  H   H4035     1.0  0.63269  0.95390  0.91749  1.0000
  C   C2246     1.0  0.34586  0.55654  0.96606  1.0000
  S   S496      1.0  0.65359  0.66589  0.79480  1.0000
  H   H4036     1.0  0.46242  0.49279  0.84684  1.0000
  C   C2247     1.0  0.41204  0.86005  0.96778  1.0000
  H   H4037     1.0  0.33897  0.57205  0.96114  1.0000
  C   C2248     1.0  0.40439  0.52299  0.96955  1.0000
  H   H4038     1.0  0.64068  0.85641  0.96970  1.0000
  C   C2249     1.0  0.44111  0.90278  0.97034  1.0000
  Fe  Fe252     1.0  0.35988  0.95368  0.96981  1.0000
  C   C2250     1.0  0.63012  0.87011  0.96550  1.0000
  H   H4039     1.0  0.61608  0.86513  0.96324  1.0000
  H   H4040     1.0  0.55698  0.51553  0.97035  1.0000
  H   H4041     1.0  0.65504  0.67127  0.84704  1.0000
  H   H4042     1.0  0.48893  0.94480  0.97038  1.0000
  Fe  Fe253     1.0  0.77335  0.45343  0.10561  1.0000
  H   H4043     1.0  0.74720  0.06906  0.02179  1.0000
  S   S497      1.0  0.76454  0.42404  0.12031  1.0000
  S   S498      1.0  0.79013  0.45723  0.08061  1.0000
  Fe  Fe254     1.0  0.81344  0.29187  0.17530  1.0000
  S   S499      1.0  0.84059  0.30407  0.16023  1.0000
  S   S500      1.0  0.80005  0.30033  0.19976  1.0000
  Fe  Fe255     1.0  0.80529  0.26949  0.14943  1.0000
  S   S501      1.0  0.83167  0.28008  0.13225  1.0000
  S   S502      1.0  0.78966  0.24596  0.14194  1.0000
  Fe  Fe256     1.0  0.84909  0.27263  0.15302  1.0000
  S   S503      1.0  0.88010  0.25288  0.15223  1.0000
  Fe  Fe257     1.0  0.82097  0.31074  0.14061  1.0000
  S   S504      1.0  0.82284  0.33864  0.12163  1.0000
  S   S505      1.0  0.82342  0.25988  0.16982  1.0000
  S   S506      1.0  0.79308  0.30070  0.15608  1.0000
  H   H4044     1.0  0.70595  0.01250  0.18568  1.0000
  H   H4045     1.0  0.93016  0.01047  0.01053  1.0000
  Fe  Fe258     1.0  0.72357  0.03900  0.10510  1.0000
  S   S507      1.0  0.75578  0.02329  0.10521  1.0000
  S   S508      1.0  0.70737  0.05673  0.12502  1.0000
  Fe  Fe259     1.0  0.75962  0.03095  0.07854  1.0000
  S   S509      1.0  0.78421  0.04532  0.06085  1.0000
  H   H4046     1.0  0.96756  0.17192  0.08177  1.0000
  S   S510      1.0  0.72827  0.04916  0.07878  1.0000
  S   S511      1.0  0.71066  0.01104  0.10291  1.0000
  Fe  Fe260     1.0  0.92350  0.08279  0.02129  1.0000
  S   S512      1.0  0.92233  0.05018  0.03252  1.0000
  S   S513      1.0  0.93279  0.09175  0.99469  1.0000
  Fe  Fe261     1.0  0.92789  0.09695  0.05287  1.0000
  S   S514      1.0  0.92781  0.06496  0.06593  1.0000
  S   S515      1.0  0.93123  0.12119  0.06782  1.0000
  Fe  Fe262     1.0  0.94821  0.05380  0.04471  1.0000
  Fe  Fe263     1.0  0.90164  0.06390  0.05281  1.0000
  S   S516      1.0  0.87590  0.04936  0.06906  1.0000
  S   S517      1.0  0.95015  0.08585  0.03280  1.0000
  S   S518      1.0  0.90077  0.09658  0.04068  1.0000
  Fe  Fe264     1.0  0.98087  0.24452  0.09026  1.0000
  C   C2251     1.0  0.84154  0.44771  0.17345  1.0000
  S   S519      1.0  0.95297  0.26752  0.09632  1.0000
  S   S520      1.0  0.67012  0.44145  0.98671  1.0000
  H   H4047     1.0  0.84696  0.46254  0.16862  1.0000
  Fe  Fe265     1.0  0.68819  0.17231  0.13565  1.0000
  H   H4048     1.0  0.92618  0.03989  0.97927  1.0000
  S   S521      1.0  0.71149  0.15085  0.12168  1.0000
  Fe  Fe266     1.0  0.68224  0.21566  0.14418  1.0000
  S   S522      1.0  0.69489  0.24397  0.14699  1.0000
  S   S523      1.0  0.69154  0.18482  0.15776  1.0000
  H   H4049     1.0  0.95674  0.00545  0.06296  1.0000
  C   C2252     1.0  0.96143  0.34771  0.06987  1.0000
  H   H4050     1.0  0.97332  0.33120  0.04234  1.0000
  H   H4051     1.0  0.72491  0.03997  0.15637  1.0000
  C   C2253     1.0  0.98711  0.48093  0.99458  1.0000
  C   C2254     1.0  0.68413  0.23927  0.19217  1.0000
  H   H4052     1.0  0.68443  0.16259  0.19280  1.0000
  H   H4053     1.0  0.84762  0.45426  0.04039  1.0000
  C   C2255     1.0  0.94681  0.14083  0.06300  1.0000
  C   C2256     1.0  0.95376  0.14841  0.04722  1.0000
  C   C2257     1.0  0.96558  0.16443  0.04393  1.0000
  C   C2258     1.0  0.97051  0.17317  0.05634  1.0000
  C   C2259     1.0  0.96361  0.16555  0.07213  1.0000
  C   C2260     1.0  0.95173  0.14956  0.07543  1.0000
  H   H4054     1.0  0.94978  0.14214  0.03753  1.0000
  H   H4055     1.0  0.95736  0.10308  0.09358  1.0000
  H   H4056     1.0  0.94639  0.14385  0.08768  1.0000
  C   C2261     1.0  0.70713  0.08326  0.12336  1.0000
  C   C2262     1.0  0.69695  0.09371  0.13595  1.0000
  C   C2263     1.0  0.69748  0.11469  0.13533  1.0000
  C   C2264     1.0  0.70853  0.12518  0.12223  1.0000
  C   C2265     1.0  0.71821  0.11485  0.10945  1.0000
  C   C2266     1.0  0.71725  0.09401  0.10990  1.0000
  H   H4057     1.0  0.71442  0.01537  0.14465  1.0000
  H   H4058     1.0  0.68810  0.24750  0.17996  1.0000
  H   H4059     1.0  0.72643  0.12303  0.09917  1.0000
  H   H4060     1.0  0.72462  0.08614  0.09998  1.0000
  C   C2267     1.0  0.80984  0.04567  0.06321  1.0000
  C   C2268     1.0  0.81768  0.03685  0.07728  1.0000
  C   C2269     1.0  0.83794  0.03812  0.07879  1.0000
  C   C2270     1.0  0.85056  0.04826  0.06634  1.0000
  C   C2271     1.0  0.84262  0.05728  0.05234  1.0000
  C   C2272     1.0  0.82238  0.05596  0.05080  1.0000
  H   H4061     1.0  0.80820  0.02898  0.08695  1.0000
  H   H4062     1.0  0.84395  0.03110  0.08967  1.0000
  H   H4063     1.0  0.85211  0.06518  0.04270  1.0000
  H   H4064     1.0  0.81639  0.06298  0.03992  1.0000
  C   C2273     1.0  0.92129  0.08538  0.97956  1.0000
  H   H4065     1.0  0.88709  0.33719  0.08568  1.0000
  H   H4066     1.0  0.76669  0.46329  0.15691  1.0000
  C   C2274     1.0  0.90016  0.25711  0.13655  1.0000
  C   C2275     1.0  0.91863  0.24368  0.13645  1.0000
  C   C2276     1.0  0.93489  0.24645  0.12406  1.0000
  C   C2277     1.0  0.93284  0.26288  0.11182  1.0000
  C   C2278     1.0  0.91442  0.27635  0.11195  1.0000
  C   C2279     1.0  0.89806  0.27341  0.12420  1.0000
  H   H4067     1.0  0.92037  0.23109  0.14603  1.0000
  H   H4068     1.0  0.94911  0.23616  0.12414  1.0000
  H   H4069     1.0  0.91279  0.28915  0.10258  1.0000
  H   H4070     1.0  0.88391  0.28387  0.12421  1.0000
  C   C2280     1.0  0.76320  0.24508  0.14503  1.0000
  C   C2281     1.0  0.75636  0.22772  0.14189  1.0000
  C   C2282     1.0  0.73546  0.22703  0.14275  1.0000
  C   C2283     1.0  0.72121  0.24384  0.14658  1.0000
  C   C2284     1.0  0.72800  0.26108  0.15004  1.0000
  C   C2285     1.0  0.74892  0.26161  0.14949  1.0000
  H   H4071     1.0  0.76732  0.21487  0.13844  1.0000
  H   H4072     1.0  0.73039  0.21369  0.14007  1.0000
  H   H4073     1.0  0.71701  0.27409  0.15310  1.0000
  H   H4074     1.0  0.75401  0.27496  0.15209  1.0000
  H   H4075     1.0  0.88955  0.04371  0.98923  1.0000
  S   S524      1.0  0.74959  0.00200  0.07487  1.0000
  C   C2286     1.0  0.71106  0.45937  0.04529  1.0000
  C   C2287     1.0  0.98154  0.31000  0.09812  1.0000
  H   H4076     1.0  0.70464  0.44603  0.05149  1.0000
  H   H4077     1.0  0.74435  0.06617  0.04325  1.0000
  C   C2288     1.0  0.78057  0.40021  0.12026  1.0000
  C   C2289     1.0  0.79736  0.39709  0.10849  1.0000
  C   C2290     1.0  0.81001  0.37805  0.10904  1.0000
  C   C2291     1.0  0.80621  0.36209  0.12145  1.0000
  C   C2292     1.0  0.78943  0.36521  0.13325  1.0000
  C   C2293     1.0  0.77652  0.38411  0.13252  1.0000
  H   H4078     1.0  0.80057  0.40932  0.09895  1.0000
  H   H4079     1.0  0.82294  0.37575  0.09985  1.0000
  H   H4080     1.0  0.78640  0.35307  0.14291  1.0000
  H   H4081     1.0  0.76351  0.38639  0.14164  1.0000
  C   C2294     1.0  0.84212  0.42003  0.11282  1.0000
  C   C2295     1.0  0.67652  0.16611  0.20427  1.0000
  H   H4082     1.0  0.97753  0.46009  0.98120  1.0000
  H   H4083     1.0  0.83734  0.27177  0.20380  1.0000
  Fe  Fe267     1.0  0.66835  0.46687  0.00141  1.0000
  H   H4084     1.0  0.75101  0.45336  0.17462  1.0000
  C   C2296     1.0  0.98171  0.08525  0.06762  1.0000
  C   C2297     1.0  0.66357  0.11751  0.09889  1.0000
  H   H4085     1.0  0.73280  0.18387  0.16715  1.0000
  H   H4086     1.0  0.68589  0.20925  0.21754  1.0000
  H   H4087     1.0  0.74367  0.04004  0.00854  1.0000
  H   H4088     1.0  0.74584  0.26299  0.20450  1.0000
  S   S525      1.0  0.68158  0.20341  0.12159  1.0000
  N   N124      1.0  0.81264  0.41211  0.15648  1.0000
  C   C2298     1.0  0.79376  0.42714  0.15356  1.0000
  C   C2299     1.0  0.82524  0.40761  0.14077  1.0000
  C   C2300     1.0  0.80571  0.39245  0.16525  1.0000
  C   C2301     1.0  0.82518  0.41943  0.16680  1.0000
  H   H4089     1.0  0.75555  0.98945  0.17026  1.0000
  C   C2302     1.0  0.77931  0.43342  0.16855  1.0000
  C   C2303     1.0  0.82258  0.37365  0.16739  1.0000
  H   H4090     1.0  0.72291  0.06478  0.03362  1.0000
  H   H4091     1.0  0.72772  0.16893  0.18663  1.0000
  H   H4092     1.0  0.67732  0.25132  0.19975  1.0000
  S   S526      1.0  0.97970  0.03482  0.04156  1.0000
  C   C2304     1.0  0.81345  0.35480  0.17613  1.0000
  H   H4093     1.0  0.78468  0.42073  0.14645  1.0000
  H   H4094     1.0  0.96638  0.45772  0.00200  1.0000
  H   H4095     1.0  0.84125  0.40134  0.14254  1.0000
  H   H4096     1.0  0.81950  0.39538  0.13619  1.0000
  H   H4097     1.0  0.79424  0.38797  0.15905  1.0000
  H   H4098     1.0  0.79788  0.39455  0.17747  1.0000
  H   H4099     1.0  0.81686  0.41972  0.17913  1.0000
  H   H4100     1.0  0.83931  0.40841  0.16827  1.0000
  C   C2305     1.0  0.69150  0.44711  0.10614  1.0000
  H   H4101     1.0  0.80581  0.01354  0.99048  1.0000
  H   H4102     1.0  0.77293  0.42011  0.17581  1.0000
  H   H4103     1.0  0.77744  0.99182  0.13409  1.0000
  H   H4104     1.0  0.83381  0.37651  0.17453  1.0000
  H   H4105     1.0  0.72818  0.28626  0.20569  1.0000
  H   H4106     1.0  0.84422  0.43923  0.15022  1.0000
  H   H4107     1.0  0.70094  0.27048  0.19921  1.0000
  C   C2306     1.0  0.71922  0.24076  0.19514  1.0000
  C   C2307     1.0  0.76132  0.44920  0.16376  1.0000
  H   H4108     1.0  0.69941  0.99970  0.99398  1.0000
  H   H4109     1.0  0.93248  0.00128  0.99194  1.0000
  C   C2308     1.0  0.98296  0.35356  0.06853  1.0000
  S   S527      1.0  0.74790  0.47919  0.10050  1.0000
  C   C2309     1.0  0.97117  0.99741  0.05808  1.0000
  H   H4110     1.0  0.80507  0.35763  0.18802  1.0000
  N   N125      1.0  0.78712  0.09710  0.09224  1.0000
  C   C2310     1.0  0.80923  0.09025  0.09424  1.0000
  C   C2311     1.0  0.77418  0.08222  0.10251  1.0000
  C   C2312     1.0  0.78512  0.09702  0.07495  1.0000
  C   C2313     1.0  0.77983  0.11861  0.09591  1.0000
  C   C2314     1.0  0.77930  0.12228  0.11329  1.0000
  C   C2315     1.0  0.82502  0.10138  0.08218  1.0000
  C   C2316     1.0  0.76315  0.09845  0.07096  1.0000
  C   C2317     1.0  0.78039  0.07261  0.11912  1.0000
  C   C2318     1.0  0.76237  0.06514  0.13055  1.0000
  C   C2319     1.0  0.77307  0.14492  0.11490  1.0000
  C   C2320     1.0  0.84628  0.09552  0.08709  1.0000
  C   C2321     1.0  0.76302  0.10153  0.05293  1.0000
  H   H4111     1.0  0.81337  0.07369  0.09309  1.0000
  H   H4112     1.0  0.81201  0.09156  0.10636  1.0000
  H   H4113     1.0  0.75809  0.08962  0.10423  1.0000
  H   H4114     1.0  0.77430  0.06883  0.09631  1.0000
  H   H4115     1.0  0.79387  0.08282  0.07080  1.0000
  H   H4116     1.0  0.79206  0.10979  0.06720  1.0000
  H   H4117     1.0  0.78889  0.12956  0.08788  1.0000
  H   H4118     1.0  0.76401  0.12376  0.09331  1.0000
  H   H4119     1.0  0.79437  0.11737  0.11737  1.0000
  H   H4120     1.0  0.76772  0.11404  0.12133  1.0000
  H   H4121     1.0  0.82590  0.09697  0.07013  1.0000
  H   H4122     1.0  0.82108  0.11819  0.08131  1.0000
  H   H4123     1.0  0.75265  0.11127  0.07576  1.0000
  H   H4124     1.0  0.75681  0.08415  0.07598  1.0000
  H   H4125     1.0  0.79259  0.05933  0.11763  1.0000
  H   H4126     1.0  0.78642  0.08323  0.12503  1.0000
  H   H4127     1.0  0.75560  0.05431  0.12531  1.0000
  H   H4128     1.0  0.76752  0.05727  0.14193  1.0000
  H   H4129     1.0  0.75043  0.07824  0.13321  1.0000
  H   H4130     1.0  0.78434  0.15412  0.10746  1.0000
  H   H4131     1.0  0.75779  0.15059  0.11124  1.0000
  H   H4132     1.0  0.77228  0.14710  0.12755  1.0000
  H   H4133     1.0  0.85762  0.10211  0.07758  1.0000
  H   H4134     1.0  0.84685  0.10141  0.09833  1.0000
  H   H4135     1.0  0.85062  0.07867  0.08888  1.0000
  H   H4136     1.0  0.74733  0.10171  0.05042  1.0000
  H   H4137     1.0  0.76814  0.11627  0.04733  1.0000
  H   H4138     1.0  0.77317  0.08889  0.04746  1.0000
  C   C2322     1.0  0.66669  0.22708  0.19149  1.0000
  C   C2323     1.0  0.71338  0.00319  0.98584  1.0000
  H   H4139     1.0  0.72207  0.98872  0.98212  1.0000
  C   C2324     1.0  0.67862  0.01882  0.03285  1.0000
  H   H4140     1.0  0.72787  0.05234  0.18160  1.0000
  H   H4141     1.0  0.68415  0.07803  0.09788  1.0000
  H   H4142     1.0  0.67728  0.44180  0.10464  1.0000
  H   H4143     1.0  0.95484  0.33327  0.09934  1.0000
  H   H4144     1.0  0.74198  0.21108  0.17928  1.0000
  C   C2325     1.0  0.79296  0.23862  0.20946  1.0000
  C   C2326     1.0  0.68922  0.47042  0.10318  1.0000
  C   C2327     1.0  0.98488  0.00810  0.04724  1.0000
  H   H4145     1.0  0.78719  0.99747  0.15104  1.0000
  H   H4146     1.0  0.72270  0.03191  0.02223  1.0000
  C   C2328     1.0  0.98036  0.30644  0.11629  1.0000
  H   H4147     1.0  0.98833  0.35031  0.08032  1.0000
  H   H4148     1.0  0.73137  0.45836  0.06264  1.0000
  N   N126      1.0  0.90279  0.20465  0.10200  1.0000
  C   C2329     1.0  0.90599  0.18839  0.09122  1.0000
  C   C2330     1.0  0.91583  0.19804  0.11526  1.0000
  C   C2331     1.0  0.88073  0.20682  0.10959  1.0000
  C   C2332     1.0  0.90678  0.22519  0.09294  1.0000
  C   C2333     1.0  0.92781  0.22611  0.08255  1.0000
  C   C2334     1.0  0.89320  0.19279  0.07724  1.0000
  C   C2335     1.0  0.87459  0.22129  0.12255  1.0000
  C   C2336     1.0  0.93719  0.18566  0.11110  1.0000
  C   C2337     1.0  0.94985  0.18315  0.12471  1.0000
  C   C2338     1.0  0.92767  0.24603  0.07095  1.0000
  C   C2339     1.0  0.89984  0.17667  0.06602  1.0000
  C   C2340     1.0  0.85226  0.22148  0.12983  1.0000
  H   H4149     1.0  0.90271  0.17357  0.09838  1.0000
  H   H4150     1.0  0.92213  0.18526  0.08580  1.0000
  H   H4151     1.0  0.91788  0.21153  0.12044  1.0000
  H   H4152     1.0  0.90802  0.18811  0.12532  1.0000
  H   H4153     1.0  0.87664  0.19155  0.11514  1.0000
  H   H4154     1.0  0.87047  0.21276  0.10042  1.0000
  H   H4155     1.0  0.89471  0.23162  0.08531  1.0000
  H   H4156     1.0  0.90556  0.23646  0.10133  1.0000
  H   H4157     1.0  0.93246  0.21352  0.07525  1.0000
  H   H4158     1.0  0.93951  0.22569  0.09034  1.0000
  H   H4159     1.0  0.87683  0.19246  0.08180  1.0000
  H   H4160     1.0  0.89501  0.20784  0.07002  1.0000
  H   H4161     1.0  0.87651  0.23724  0.11739  1.0000
  H   H4162     1.0  0.88384  0.21648  0.13246  1.0000
  H   H4163     1.0  0.93566  0.17009  0.10908  1.0000
  H   H4164     1.0  0.94578  0.19302  0.10022  1.0000
  H   H4165     1.0  0.95251  0.19826  0.12688  1.0000
  H   H4166     1.0  0.94204  0.17523  0.13585  1.0000
  H   H4167     1.0  0.96489  0.17392  0.12148  1.0000
  H   H4168     1.0  0.92276  0.25942  0.07746  1.0000
  H   H4169     1.0  0.94324  0.24701  0.06445  1.0000
  H   H4170     1.0  0.91727  0.24656  0.06207  1.0000
  H   H4171     1.0  0.88987  0.17951  0.05655  1.0000
  H   H4172     1.0  0.91576  0.17737  0.06016  1.0000
  H   H4173     1.0  0.89881  0.16110  0.07263  1.0000
  H   H4174     1.0  0.84209  0.22723  0.12060  1.0000
  H   H4175     1.0  0.84940  0.20594  0.13553  1.0000
  H   H4176     1.0  0.84840  0.23173  0.13916  1.0000
  C   C2341     1.0  0.97483  0.31483  0.04742  1.0000
  H   H4177     1.0  0.75129  0.27249  0.11563  1.0000
  H   H4178     1.0  0.75189  0.24119  0.10483  1.0000
  C   C2342     1.0  0.71915  0.01471  0.17618  1.0000
  N   N127      1.0  0.77503  0.30513  0.10139  1.0000
  C   C2343     1.0  0.79544  0.31194  0.10070  1.0000
  C   C2344     1.0  0.76188  0.30854  0.11710  1.0000
  C   C2345     1.0  0.77889  0.28240  0.10067  1.0000
  C   C2346     1.0  0.76428  0.31548  0.08744  1.0000
  C   C2347     1.0  0.76073  0.33912  0.08477  1.0000
  C   C2348     1.0  0.81097  0.30857  0.08552  1.0000
  H   H4179     1.0  0.95132  0.35737  0.07822  1.0000
  C   C2349     1.0  0.76351  0.32790  0.12422  1.0000
  C   C2350     1.0  0.74697  0.33114  0.13847  1.0000
  C   C2351     1.0  0.75331  0.34742  0.06871  1.0000
  C   C2352     1.0  0.83036  0.31741  0.08570  1.0000
  H   H4180     1.0  0.80274  0.30395  0.11122  1.0000
  H   H4181     1.0  0.79378  0.32838  0.10181  1.0000
  H   H4182     1.0  0.74557  0.30852  0.11620  1.0000
  H   H4183     1.0  0.76588  0.29561  0.12658  1.0000
  H   H4184     1.0  0.78889  0.27442  0.10967  1.0000
  H   H4185     1.0  0.78720  0.27914  0.08884  1.0000
  H   H4186     1.0  0.77248  0.31011  0.07618  1.0000
  H   H4187     1.0  0.74891  0.31097  0.08873  1.0000
  H   H4188     1.0  0.77474  0.34564  0.08483  1.0000
  H   H4189     1.0  0.74864  0.34484  0.09409  1.0000
  H   H4190     1.0  0.81560  0.29205  0.08475  1.0000
  H   H4191     1.0  0.80450  0.31612  0.07458  1.0000
  Fe  Fe268     1.0  0.71794  0.01983  0.07625  1.0000
  H   H4192     1.0  0.77846  0.32611  0.12850  1.0000
  H   H4193     1.0  0.76238  0.34196  0.11549  1.0000
  H   H4194     1.0  0.74898  0.34462  0.14367  1.0000
  H   H4195     1.0  0.73164  0.33395  0.13465  1.0000
  H   H4196     1.0  0.74795  0.31758  0.14785  1.0000
  H   H4197     1.0  0.75031  0.36437  0.06730  1.0000
  H   H4198     1.0  0.76504  0.34280  0.05873  1.0000
  H   H4199     1.0  0.73896  0.34175  0.06803  1.0000
  H   H4200     1.0  0.83774  0.30999  0.09629  1.0000
  H   H4201     1.0  0.84127  0.31469  0.07479  1.0000
  H   H4202     1.0  0.82686  0.33414  0.08602  1.0000
  H   H4203     1.0  0.71870  0.99788  0.01769  1.0000
  C   C2353     1.0  0.67288  0.00658  0.02301  1.0000
  H   H4204     1.0  0.72267  0.24578  0.18207  1.0000
  H   H4205     1.0  0.70868  0.01333  0.97506  1.0000
  H   H4206     1.0  0.75949  0.99927  0.04022  1.0000
  H   H4207     1.0  0.67166  0.21548  0.18327  1.0000
  C   C2354     1.0  0.96058  0.31981  0.09297  1.0000
  C   C2355     1.0  0.92012  0.33380  0.08209  1.0000
  Fe  Fe269     1.0  0.65790  0.18430  0.16413  1.0000
  H   H4208     1.0  0.93682  0.32684  0.05957  1.0000
  C   C2356     1.0  0.71281  0.05287  0.17776  1.0000
  H   H4209     1.0  0.95592  0.35313  0.05815  1.0000
  H   H4210     1.0  0.75253  0.44290  0.15633  1.0000
  H   H4211     1.0  0.73592  0.27685  0.18679  1.0000
  H   H4212     1.0  0.91839  0.13315  0.97386  1.0000
  H   H4213     1.0  0.68888  0.08550  0.14632  1.0000
  C   C2357     1.0  0.72619  0.46639  0.05170  1.0000
  H   H4214     1.0  0.83001  0.44994  0.18413  1.0000
  H   H4215     1.0  0.67344  0.08586  0.07945  1.0000
  H   H4216     1.0  0.93741  0.30554  0.07501  1.0000
  H   H4217     1.0  0.66336  0.06655  0.09436  1.0000
  H   H4218     1.0  0.66945  0.14992  0.11222  1.0000
  C   C2358     1.0  0.73969  0.02968  0.01977  1.0000
  C   C2359     1.0  0.97518  0.31161  0.06572  1.0000
  C   C2360     1.0  0.68881  0.00059  0.15685  1.0000
  H   H4219     1.0  0.89871  0.01802  0.98519  1.0000
  H   H4220     1.0  0.73359  0.99737  0.04127  1.0000
  H   H4221     1.0  0.94606  0.08238  0.08928  1.0000
  C   C2361     1.0  0.73218  0.27224  0.19986  1.0000
  C   C2362     1.0  0.68683  0.16202  0.21768  1.0000
  H   H4222     1.0  0.70862  0.06822  0.17098  1.0000
  H   H4223     1.0  0.69864  0.03836  0.16307  1.0000
  H   H4224     1.0  0.70435  0.44044  0.09775  1.0000
  H   H4225     1.0  0.67030  0.47333  0.08494  1.0000
  C   C2363     1.0  0.76565  0.24889  0.10174  1.0000
  C   C2364     1.0  0.65581  0.17404  0.20585  1.0000
  C   C2365     1.0  0.75973  0.27151  0.10348  1.0000
  H   H4226     1.0  0.74918  0.27826  0.09473  1.0000
  H   H4227     1.0  0.89057  0.09077  0.99152  1.0000
  C   C2366     1.0  0.90014  0.32920  0.07824  1.0000
  H   H4228     1.0  0.91996  0.35054  0.07922  1.0000
  H   H4229     1.0  0.66102  0.00846  0.14609  1.0000
  C   C2367     1.0  0.83223  0.44046  0.16071  1.0000
  H   H4230     1.0  0.78393  0.02896  0.01294  1.0000
  N   N128      1.0  0.95837  0.01490  0.99487  1.0000
  H   H4231     1.0  0.69009  0.14580  0.08726  1.0000
  C   C2368     1.0  0.74616  0.03788  0.03380  1.0000
  C   C2369     1.0  0.81362  0.29168  0.21612  1.0000
  H   H4232     1.0  0.94870  0.47843  0.97692  1.0000
  H   H4233     1.0  0.71800  0.98908  0.14446  1.0000
  N   N129      1.0  0.70306  0.22698  0.19819  1.0000
  H   H4234     1.0  0.67224  0.11987  0.08668  1.0000
  H   H4235     1.0  0.81875  0.01134  0.00759  1.0000
  S   S528      1.0  0.79135  0.47299  0.11506  1.0000
  H   H4236     1.0  0.77247  0.24703  0.08927  1.0000
  H   H4237     1.0  0.97353  0.10103  0.06568  1.0000
  H   H4238     1.0  0.96401  0.99411  0.97731  1.0000
  H   H4239     1.0  0.73211  0.01481  0.18270  1.0000
  H   H4240     1.0  0.89863  0.33458  0.06547  1.0000
  H   H4241     1.0  0.68995  0.12257  0.14521  1.0000
  C   C2370     1.0  0.66985  0.08104  0.09250  1.0000
  H   H4242     1.0  0.78734  0.44037  0.17607  1.0000
  C   C2371     1.0  0.75559  0.01092  0.14918  1.0000
  H   H4243     1.0  0.80294  0.35042  0.16901  1.0000
  N   N130      1.0  0.72390  0.99724  0.16642  1.0000
  H   H4244     1.0  0.82579  0.34173  0.17797  1.0000
  H   H4245     1.0  0.79453  0.25490  0.20512  1.0000
  C   C2372     1.0  0.97925  0.07752  0.08585  1.0000
  S   S529      1.0  0.68372  0.46059  0.02432  1.0000
  H   H4246     1.0  0.83078  0.36972  0.15572  1.0000
  C   C2373     1.0  0.71208  0.00083  0.15245  1.0000
  C   C2374     1.0  0.80626  0.00619  0.00303  1.0000
  C   C2375     1.0  0.68933  0.01001  0.04566  1.0000
  H   H4247     1.0  0.97901  0.07183  0.98678  1.0000
  H   H4248     1.0  0.69371  0.18100  0.07398  1.0000
  H   H4249     1.0  0.89939  0.31256  0.08083  1.0000
  H   H4250     1.0  0.84008  0.40575  0.10876  1.0000
  H   H4251     1.0  0.98456  0.99887  0.00593  1.0000
  C   C2376     1.0  0.71377  0.03655  0.16708  1.0000
  C   C2377     1.0  0.82559  0.42536  0.12660  1.0000
  C   C2378     1.0  0.92136  0.03356  0.99176  1.0000
  H   H4252     1.0  0.70084  0.19666  0.19381  1.0000
  C   C2379     1.0  0.90017  0.08670  0.98076  1.0000
  H   H4253     1.0  0.70116  0.05065  0.18843  1.0000
  H   H4254     1.0  0.69643  0.47086  0.07756  1.0000
  C   C2380     1.0  0.73280  0.20007  0.18713  1.0000
  C   C2381     1.0  0.67760  0.00874  0.14250  1.0000
  H   H4255     1.0  0.76270  0.03459  0.03419  1.0000
  H   H4256     1.0  0.92106  0.04554  0.99930  1.0000
  H   H4257     1.0  0.71105  0.25609  0.21663  1.0000
  H   H4258     1.0  0.85745  0.41813  0.11652  1.0000
  H   H4259     1.0  0.80455  0.22903  0.20199  1.0000
  Fe  Fe270     1.0  0.74311  0.99559  0.10186  1.0000
  H   H4260     1.0  0.95728  0.07966  0.10730  1.0000
  H   H4261     1.0  0.97347  0.29532  0.07016  1.0000
  H   H4262     1.0  0.73386  0.23251  0.19867  1.0000
  H   H4263     1.0  0.71704  0.02832  0.99701  1.0000
  H   H4264     1.0  0.92023  0.32938  0.09513  1.0000
  H   H4265     1.0  0.75635  0.02317  0.15620  1.0000
  H   H4266     1.0  0.98499  0.00621  0.97814  1.0000
  C   C2382     1.0  0.96775  0.99957  0.00764  1.0000
  H   H4267     1.0  0.84120  0.43258  0.10261  1.0000
  H   H4268     1.0  0.67668  0.47634  0.11213  1.0000
  C   C2383     1.0  0.93570  0.01401  0.99752  1.0000
  H   H4269     1.0  0.97299  0.07614  0.06220  1.0000
  H   H4270     1.0  0.97079  0.17024  0.03167  1.0000
  C   C2384     1.0  0.93875  0.32216  0.07235  1.0000
  H   H4271     1.0  0.96187  0.30831  0.04478  1.0000
  C   C2385     1.0  0.73972  0.06093  0.03297  1.0000
  H   H4272     1.0  0.70274  0.15546  0.21642  1.0000
  C   C2386     1.0  0.71425  0.26016  0.20348  1.0000
  S   S530      1.0  0.98518  0.19355  0.05141  1.0000
  H   H4273     1.0  0.85471  0.43647  0.17704  1.0000
  C   C2387     1.0  0.96231  0.03572  0.99694  1.0000
  H   H4274     1.0  0.95460  0.04798  0.98871  1.0000
  H   H4275     1.0  0.76706  0.01562  0.99539  1.0000
  N   N131      1.0  0.95942  0.32545  0.07521  1.0000
  C   C2388     1.0  0.76813  0.00589  0.00710  1.0000
  S   S531      1.0  0.98502  0.21016  0.09458  1.0000
  C   C2389     1.0  0.70988  0.20923  0.18879  1.0000
  C   C2390     1.0  0.95871  0.08623  0.09448  1.0000
  H   H4276     1.0  0.66992  0.15668  0.07573  1.0000
  C   C2391     1.0  0.74859  0.99469  0.03364  1.0000
  H   H4277     1.0  0.82745  0.47906  0.13188  1.0000
  H   H4278     1.0  0.68228  0.00985  0.16655  1.0000
  H   H4279     1.0  0.77675  0.24131  0.10990  1.0000
  H   H4280     1.0  0.70672  0.21395  0.17624  1.0000
  S   S532      1.0  0.69651  0.02630  0.05738  1.0000
  H   H4281     1.0  0.70362  0.47463  0.10531  1.0000
  H   H4282     1.0  0.95023  0.30852  0.09850  1.0000
  C   C2392     1.0  0.73676  0.18053  0.17947  1.0000
  H   H4283     1.0  0.75316  0.17410  0.17877  1.0000
  Fe  Fe271     1.0  0.80609  0.47911  0.08960  1.0000
  H   H4284     1.0  0.82923  0.46203  0.05683  1.0000
  C   C2393     1.0  0.73291  0.00004  0.00931  1.0000
  H   H4285     1.0  0.82820  0.43975  0.13001  1.0000
  C   C2394     1.0  0.70404  0.46945  0.03102  1.0000
  H   H4286     1.0  0.73863  0.03072  0.04534  1.0000
  H   H4287     1.0  0.81948  0.45241  0.15748  1.0000
  H   H4288     1.0  0.68304  0.99902  0.13291  1.0000
  H   H4289     1.0  0.81074  0.42838  0.12199  1.0000
  H   H4290     1.0  0.79749  0.44153  0.14617  1.0000
  H   H4291     1.0  0.69478  0.44148  0.11851  1.0000
  C   C2395     1.0  0.74636  0.99321  0.16026  1.0000
  C   C2396     1.0  0.68302  0.17836  0.08518  1.0000
  H   H4292     1.0  0.73852  0.19641  0.19877  1.0000
  C   C2397     1.0  0.98027  0.46043  0.99351  1.0000
  C   C2398     1.0  0.72633  0.01377  0.99402  1.0000
  H   H4293     1.0  0.67512  0.11461  0.10722  1.0000
  C   C2399     1.0  0.89951  0.02935  0.99305  1.0000
  N   N132      1.0  0.74772  0.00770  0.01756  1.0000
  C   C2400     1.0  0.83143  0.27749  0.21499  1.0000
  H   H4294     1.0  0.89367  0.02359  0.00558  1.0000
  H   H4295     1.0  0.73961  0.01743  0.98516  1.0000
  H   H4296     1.0  0.69103  0.17897  0.09535  1.0000
  H   H4297     1.0  0.96909  0.29604  0.12170  1.0000
  C   C2401     1.0  0.96811  0.00896  0.97882  1.0000
  C   C2402     1.0  0.78606  0.01213  0.01344  1.0000
  H   H4298     1.0  0.95555  0.03911  0.00911  1.0000
  H   H4299     1.0  0.67471  0.03525  0.03052  1.0000
  H   H4300     1.0  0.97596  0.32113  0.12118  1.0000
  H   H4301     1.0  0.97751  0.11282  0.04010  1.0000
  C   C2403     1.0  0.67626  0.15748  0.08670  1.0000
  H   H4302     1.0  0.98033  0.06060  0.08784  1.0000
  C   C2404     1.0  0.98493  0.03895  0.99455  1.0000
  C   C2405     1.0  0.69746  0.21971  0.21573  1.0000
  H   H4303     1.0  0.93932  0.14555  0.97583  1.0000
  H   H4304     1.0  0.67996  0.02473  0.13780  1.0000
  H   H4305     1.0  0.74661  0.01734  0.13937  1.0000
  H   H4306     1.0  0.77763  0.23592  0.20796  1.0000
  H   H4307     1.0  0.97952  0.06461  0.00799  1.0000
  H   H4308     1.0  0.85109  0.47521  0.04981  1.0000
  H   H4309     1.0  0.66123  0.21920  0.20343  1.0000
  H   H4310     1.0  0.66464  0.01356  0.01320  1.0000
  H   H4311     1.0  0.80969  0.98934  0.00340  1.0000
  H   H4312     1.0  0.66974  0.19073  0.08493  1.0000
  C   C2406     1.0  0.69418  0.98875  0.04861  1.0000
  C   C2407     1.0  0.66066  0.15336  0.10193  1.0000
  H   H4313     1.0  0.98643  0.10018  0.01338  1.0000
  H   H4314     1.0  0.97243  0.38563  0.07114  1.0000
  C   C2408     1.0  0.68456  0.47880  0.08600  1.0000
  C   C2409     1.0  0.98290  0.37637  0.06275  1.0000
  H   H4315     1.0  0.81714  0.47375  0.03027  1.0000
  H   H4316     1.0  0.97828  0.38050  0.05065  1.0000
  C   C2410     1.0  0.82748  0.48241  0.03437  1.0000
  C   C2411     1.0  0.83956  0.46762  0.04612  1.0000
  H   H4317     1.0  0.67195  0.47985  0.05693  1.0000
  H   H4318     1.0  0.96220  0.00443  0.01964  1.0000
  H   H4319     1.0  0.78768  0.00474  0.02578  1.0000
  C   C2412     1.0  0.77733  0.00376  0.14167  1.0000
  C   C2413     1.0  0.98665  0.06096  0.99598  1.0000
  S   S533      1.0  0.84030  0.47874  0.08407  1.0000
  H   H4320     1.0  0.78376  0.01682  0.13401  1.0000
  H   H4321     1.0  0.77273  0.99007  0.00418  1.0000
  H   H4322     1.0  0.98647  0.29486  0.09400  1.0000
  C   C2414     1.0  0.73446  0.48379  0.04400  1.0000
  C   C2415     1.0  0.67780  0.98533  0.02590  1.0000
  H   H4323     1.0  0.98639  0.12718  0.01224  1.0000
  Fe  Fe272     1.0  0.76566  0.48407  0.07588  1.0000
  S   S534      1.0  0.65527  0.16881  0.14321  1.0000
  C   C2416     1.0  0.68931  0.39554  0.32555  1.0000
  S   S535      1.0  0.96631  0.23760  0.39164  1.0000
  C   C2417     1.0  0.87702  0.34030  0.32966  1.0000
  H   H4324     1.0  0.70538  0.03862  0.24462  1.0000
  Fe  Fe273     1.0  0.96651  0.23452  0.36578  1.0000
  S   S536      1.0  0.94003  0.22706  0.35520  1.0000
  Fe  Fe274     1.0  0.80176  0.30596  0.30352  1.0000
  S   S537      1.0  0.80524  0.28546  0.32673  1.0000
  S   S538      1.0  0.78387  0.33775  0.29960  1.0000
  Fe  Fe275     1.0  0.83042  0.27606  0.28377  1.0000
  S   S539      1.0  0.83648  0.25348  0.30551  1.0000
  S   S540      1.0  0.84687  0.26869  0.25973  1.0000
  Fe  Fe276     1.0  0.80256  0.26033  0.31294  1.0000
  S   S541      1.0  0.78575  0.23310  0.32168  1.0000
  Fe  Fe277     1.0  0.83882  0.28033  0.31725  1.0000
  S   S542      1.0  0.86358  0.28685  0.33026  1.0000
  S   S543      1.0  0.79656  0.28132  0.29048  1.0000
  S   S544      1.0  0.83526  0.30241  0.29478  1.0000
  H   H4325     1.0  0.93946  0.23264  0.44681  1.0000
  H   H4326     1.0  0.95117  0.23457  0.29138  1.0000
  Fe  Fe278     1.0  0.70745  0.45212  0.35455  1.0000
  S   S545      1.0  0.72334  0.43312  0.37407  1.0000
  H   H4327     1.0  0.72472  0.45318  0.27812  1.0000
  Fe  Fe279     1.0  0.74713  0.46529  0.33566  1.0000
  S   S546      1.0  0.76619  0.44660  0.35390  1.0000
  Fe  Fe280     1.0  0.74689  0.42224  0.35436  1.0000
  S   S547      1.0  0.75762  0.38816  0.35771  1.0000
  Fe  Fe281     1.0  0.74142  0.45890  0.37231  1.0000
  C   C2418     1.0  0.98586  0.14733  0.44262  1.0000
  S   S548      1.0  0.72992  0.43959  0.33481  1.0000
  H   H4328     1.0  0.91414  0.31964  0.41784  1.0000
  H   H4329     1.0  0.76502  0.02275  0.38846  1.0000
  S   S549      1.0  0.71629  0.03115  0.31312  1.0000
  Fe  Fe282     1.0  0.69221  0.19549  0.29488  1.0000
  S   S550      1.0  0.70672  0.16530  0.28724  1.0000
  S   S551      1.0  0.70800  0.22368  0.29169  1.0000
  Fe  Fe283     1.0  0.68671  0.15075  0.30819  1.0000
  S   S552      1.0  0.69384  0.12308  0.32684  1.0000
  Fe  Fe284     1.0  0.67981  0.16867  0.27402  1.0000
  S   S553      1.0  0.69011  0.15951  0.24926  1.0000
  S   S554      1.0  0.67460  0.18083  0.31711  1.0000
  C   C2419     1.0  0.70437  0.05006  0.38072  1.0000
  C   C2420     1.0  0.91998  0.35385  0.43016  1.0000
  S   S555      1.0  0.81566  0.01464  0.44981  1.0000
  C   C2421     1.0  0.73568  0.12016  0.25797  1.0000
  H   H4330     1.0  0.76759  0.07035  0.34136  1.0000
  Fe  Fe285     1.0  0.84868  0.00820  0.45354  1.0000
  C   C2422     1.0  0.70840  0.20670  0.24290  1.0000
  C   C2423     1.0  0.70934  0.05653  0.31725  1.0000
  C   C2424     1.0  0.69633  0.06149  0.33098  1.0000
  C   C2425     1.0  0.69139  0.08201  0.33372  1.0000
  C   C2426     1.0  0.69894  0.09772  0.32254  1.0000
  C   C2427     1.0  0.71183  0.09272  0.30879  1.0000
  C   C2428     1.0  0.71714  0.07220  0.30625  1.0000
  H   H4331     1.0  0.69009  0.04955  0.33948  1.0000
  H   H4332     1.0  0.68159  0.08575  0.34449  1.0000
  H   H4333     1.0  0.71826  0.10465  0.30042  1.0000
  H   H4334     1.0  0.72756  0.06836  0.29580  1.0000
  C   C2429     1.0  0.67664  0.16612  0.23272  1.0000
  H   H4335     1.0  0.87245  0.33163  0.32125  1.0000
  C   C2430     1.0  0.75392  0.03079  0.34039  1.0000
  N   N133      1.0  0.74115  0.04878  0.36546  1.0000
  C   C2431     1.0  0.80509  0.46910  0.41536  1.0000
  H   H4336     1.0  0.77340  0.00124  0.34080  1.0000
  H   H4337     1.0  0.81916  0.47028  0.39082  1.0000
  C   C2432     1.0  0.76891  0.46686  0.40324  1.0000
  C   C2433     1.0  0.78723  0.46787  0.39292  1.0000
  C   C2434     1.0  0.75426  0.27473  0.25826  1.0000
  C   C2435     1.0  0.72004  0.10949  0.25282  1.0000
  C   C2436     1.0  0.88564  0.31416  0.28687  1.0000
  C   C2437     1.0  0.76370  0.23072  0.31379  1.0000
  C   C2438     1.0  0.75728  0.21151  0.31563  1.0000
  C   C2439     1.0  0.73999  0.20911  0.30923  1.0000
  C   C2440     1.0  0.72895  0.22596  0.30097  1.0000
  C   C2441     1.0  0.73521  0.24521  0.29933  1.0000
  C   C2442     1.0  0.75245  0.24760  0.30575  1.0000
  H   H4338     1.0  0.76579  0.19840  0.32196  1.0000
  H   H4339     1.0  0.73530  0.19422  0.31059  1.0000
  H   H4340     1.0  0.72667  0.25835  0.29307  1.0000
  H   H4341     1.0  0.75698  0.26253  0.30455  1.0000
  C   C2443     1.0  0.83407  0.27791  0.24298  1.0000
  Fe  Fe286     1.0  0.71021  0.00293  0.33088  1.0000
  C   C2444     1.0  0.81634  0.29219  0.24406  1.0000
  S   S556      1.0  0.67374  0.45484  0.35245  1.0000
  H   H4342     1.0  0.81052  0.29810  0.25518  1.0000
  C   C2445     1.0  0.77595  0.35167  0.31577  1.0000
  C   C2446     1.0  0.77457  0.34181  0.33148  1.0000
  C   C2447     1.0  0.76874  0.35323  0.34421  1.0000
  C   C2448     1.0  0.76421  0.37457  0.34132  1.0000
  C   C2449     1.0  0.76515  0.38447  0.32561  1.0000
  C   C2450     1.0  0.77093  0.37301  0.31285  1.0000
  H   H4343     1.0  0.77787  0.32535  0.33382  1.0000
  H   H4344     1.0  0.76774  0.34549  0.35636  1.0000
  H   H4345     1.0  0.76164  0.40094  0.32328  1.0000
  H   H4346     1.0  0.77182  0.38070  0.30069  1.0000
  H   H4347     1.0  0.70098  0.39062  0.31564  1.0000
  C   C2451     1.0  0.91874  0.24397  0.34858  1.0000
  C   C2452     1.0  0.90355  0.23590  0.34320  1.0000
  C   C2453     1.0  0.88649  0.24874  0.33769  1.0000
  C   C2454     1.0  0.88451  0.26987  0.33737  1.0000
  C   C2455     1.0  0.89973  0.27795  0.34268  1.0000
  C   C2456     1.0  0.91674  0.26511  0.34825  1.0000
  H   H4348     1.0  0.90492  0.21956  0.34344  1.0000
  H   H4349     1.0  0.87481  0.24227  0.33381  1.0000
  H   H4350     1.0  0.89839  0.29424  0.34250  1.0000
  H   H4351     1.0  0.92830  0.27154  0.35232  1.0000
  N   N134      1.0  0.78045  0.24163  0.25552  1.0000
  H   H4352     1.0  0.71299  0.11998  0.24319  1.0000
  H   H4353     1.0  0.89883  0.05941  0.44739  1.0000
  H   H4354     1.0  0.70173  0.05080  0.27099  1.0000
  H   H4355     1.0  0.72246  0.06503  0.26378  1.0000
  H   H4356     1.0  0.71087  0.39295  0.36893  1.0000
  H   H4357     1.0  0.68929  0.02309  0.38861  1.0000
  C   C2457     1.0  0.76479  0.22776  0.26235  1.0000
  H   H4358     1.0  0.73655  0.10969  0.34246  1.0000
  H   H4359     1.0  0.73764  0.06487  0.38588  1.0000
  H   H4360     1.0  0.82798  0.29500  0.35777  1.0000
  H   H4361     1.0  0.68131  0.11677  0.24274  1.0000
  C   C2458     1.0  0.77413  0.26113  0.26281  1.0000
  H   H4362     1.0  0.78746  0.46824  0.38024  1.0000
  H   H4363     1.0  0.84652  0.11921  0.42271  1.0000
  C   C2459     1.0  0.70388  0.10346  0.26719  1.0000
  C   C2460     1.0  0.69411  0.07769  0.25325  1.0000
  S   S557      1.0  0.72341  0.47929  0.35408  1.0000
  C   C2461     1.0  0.78125  0.24715  0.23761  1.0000
  S   S558      1.0  0.86647  0.47406  0.44942  1.0000
  H   H4364     1.0  0.69796  0.11744  0.27293  1.0000
  H   H4365     1.0  0.74718  0.12417  0.24756  1.0000
  H   H4366     1.0  0.96119  0.02660  0.46973  1.0000
  C   C2462     1.0  0.88074  0.10679  0.46630  1.0000
  H   H4367     1.0  0.83475  0.22820  0.27597  1.0000
  N   N135      1.0  0.83860  0.35358  0.33625  1.0000
  C   C2463     1.0  0.86015  0.35818  0.33408  1.0000
  C   C2464     1.0  0.82421  0.37102  0.34289  1.0000
  C   C2465     1.0  0.83738  0.33487  0.34872  1.0000
  C   C2466     1.0  0.83250  0.34950  0.32102  1.0000
  C   C2467     1.0  0.84176  0.36149  0.30511  1.0000
  C   C2468     1.0  0.81632  0.32753  0.35335  1.0000
  C   C2469     1.0  0.82291  0.39202  0.33216  1.0000
  C   C2470     1.0  0.80993  0.40873  0.34106  1.0000
  C   C2471     1.0  0.82948  0.36188  0.29160  1.0000
  C   C2472     1.0  0.81780  0.30690  0.36409  1.0000
  H   H4368     1.0  0.86337  0.36260  0.34527  1.0000
  H   H4369     1.0  0.86238  0.37165  0.32498  1.0000
  H   H4370     1.0  0.80832  0.36760  0.34532  1.0000
  H   H4371     1.0  0.82811  0.37299  0.35462  1.0000
  H   H4372     1.0  0.84246  0.33732  0.35989  1.0000
  H   H4373     1.0  0.84791  0.32162  0.34455  1.0000
  H   H4374     1.0  0.83665  0.33301  0.31964  1.0000
  H   H4375     1.0  0.81562  0.35246  0.32173  1.0000
  H   H4376     1.0  0.85753  0.35416  0.30143  1.0000
  H   H4377     1.0  0.84247  0.37754  0.30606  1.0000
  H   H4378     1.0  0.81028  0.32559  0.34257  1.0000
  H   H4379     1.0  0.80535  0.33847  0.36005  1.0000
  H   H4380     1.0  0.83806  0.39682  0.32811  1.0000
  H   H4381     1.0  0.81548  0.39142  0.32165  1.0000
  H   H4382     1.0  0.81668  0.41042  0.35165  1.0000
  H   H4383     1.0  0.80895  0.42355  0.33303  1.0000
  H   H4384     1.0  0.79426  0.40514  0.34501  1.0000
  H   H4385     1.0  0.82836  0.34618  0.28979  1.0000
  H   H4386     1.0  0.81388  0.37025  0.29431  1.0000
  H   H4387     1.0  0.83698  0.36974  0.28030  1.0000
  H   H4388     1.0  0.82370  0.30792  0.37522  1.0000
  H   H4389     1.0  0.94272  0.36887  0.45901  1.0000
  H   H4390     1.0  0.94435  0.99034  0.42924  1.0000
  H   H4391     1.0  0.73575  0.30515  0.33102  1.0000
  H   H4392     1.0  0.97658  0.03364  0.45099  1.0000
  H   H4393     1.0  0.87861  0.31345  0.27618  1.0000
  H   H4394     1.0  0.67548  0.10837  0.29420  1.0000
  H   H4395     1.0  0.72645  0.05287  0.23738  1.0000
  H   H4396     1.0  0.75902  0.01897  0.36439  1.0000
  H   H4397     1.0  0.68561  0.07413  0.28593  1.0000
  H   H4398     1.0  0.90713  0.98580  0.46758  1.0000
  H   H4399     1.0  0.91189  0.33914  0.46240  1.0000
  H   H4400     1.0  0.91524  0.27070  0.23260  1.0000
  C   C2473     1.0  0.87353  0.40469  0.44377  1.0000
  C   C2474     1.0  0.77156  0.01620  0.33299  1.0000
  H   H4401     1.0  0.90537  0.98833  0.41541  1.0000
  H   H4402     1.0  0.90239  0.35623  0.33037  1.0000
  H   H4403     1.0  0.70704  0.35776  0.39667  1.0000
  H   H4404     1.0  0.94383  0.20609  0.44427  1.0000
  H   H4405     1.0  0.71316  0.39433  0.33993  1.0000
  H   H4406     1.0  0.86604  0.09425  0.44159  1.0000
  H   H4407     1.0  0.74961  0.23468  0.25899  1.0000
  H   H4408     1.0  0.96921  0.25613  0.30337  1.0000
  H   H4409     1.0  0.96368  0.19186  0.41228  1.0000
  C   C2475     1.0  0.72192  0.03916  0.36956  1.0000
  S   S559      1.0  0.98030  0.29366  0.38987  1.0000
  H   H4410     1.0  0.74506  0.45483  0.28889  1.0000
  C   C2476     1.0  0.91166  0.10742  0.44665  1.0000
  C   C2477     1.0  0.87786  0.12352  0.43897  1.0000
  H   H4411     1.0  0.95425  0.25016  0.32263  1.0000
  H   H4412     1.0  0.94041  0.30780  0.41535  1.0000
  H   H4413     1.0  0.72214  0.47578  0.30687  1.0000
  C   C2478     1.0  0.87437  0.10450  0.43223  1.0000
  C   C2479     1.0  0.92325  0.11619  0.43045  1.0000
  H   H4414     1.0  0.96806  0.18165  0.46033  1.0000
  C   C2480     1.0  0.94405  0.23967  0.30295  1.0000
  S   S560      1.0  0.74542  0.46795  0.39604  1.0000
  C   C2481     1.0  0.86164  0.11075  0.41856  1.0000
  H   H4415     1.0  0.90141  0.14877  0.44522  1.0000
  C   C2482     1.0  0.80609  0.29894  0.23071  1.0000
  H   H4416     1.0  0.98620  0.19835  0.45780  1.0000
  H   H4417     1.0  0.91017  0.09146  0.44584  1.0000
  H   H4418     1.0  0.88395  0.13456  0.42888  1.0000
  C   C2483     1.0  0.93708  0.35757  0.45331  1.0000
  H   H4419     1.0  0.78597  0.02276  0.33111  1.0000
  H   H4420     1.0  0.74240  0.32876  0.31976  1.0000
  C   C2484     1.0  0.72841  0.45472  0.28996  1.0000
  Fe  Fe287     1.0  0.83334  0.47747  0.44659  1.0000
  C   C2485     1.0  0.70938  0.05969  0.26027  1.0000
  C   C2486     1.0  0.71698  0.47459  0.29550  1.0000
  H   H4421     1.0  0.69674  0.42643  0.32204  1.0000
  H   H4422     1.0  0.88890  0.09557  0.42755  1.0000
  H   H4423     1.0  0.91465  0.11645  0.42046  1.0000
  H   H4424     1.0  0.92605  0.13194  0.43056  1.0000
  H   H4425     1.0  0.98457  0.45719  0.45225  1.0000
  H   H4426     1.0  0.75258  0.04522  0.33195  1.0000
  H   H4427     1.0  0.97177  0.23038  0.31378  1.0000
  H   H4428     1.0  0.93954  0.46195  0.45681  1.0000
  C   C2487     1.0  0.94201  0.99858  0.46025  1.0000
  H   H4429     1.0  0.74869  0.29059  0.27916  1.0000
  H   H4430     1.0  0.93878  0.26946  0.24037  1.0000
  H   H4431     1.0  0.81219  0.24363  0.25521  1.0000
  H   H4432     1.0  0.97384  0.40155  0.42036  1.0000
  H   H4433     1.0  0.86960  0.12048  0.40854  1.0000
  H   H4434     1.0  0.85919  0.09688  0.41409  1.0000
  H   H4435     1.0  0.90471  0.34955  0.43519  1.0000
  H   H4436     1.0  0.74357  0.11002  0.26738  1.0000
  H   H4437     1.0  0.93250  0.32282  0.44021  1.0000
  H   H4438     1.0  0.98687  0.38418  0.40683  1.0000
  H   H4439     1.0  0.67081  0.42412  0.33099  1.0000
  H   H4440     1.0  0.70659  0.34762  0.37014  1.0000
  C   C2488     1.0  0.74914  0.09932  0.33652  1.0000
  C   C2489     1.0  0.89463  0.13931  0.45604  1.0000
  H   H4441     1.0  0.78592  0.26257  0.23361  1.0000
  H   H4442     1.0  0.68117  0.07066  0.25114  1.0000
  H   H4443     1.0  0.67468  0.35723  0.33967  1.0000
  C   C2490     1.0  0.90867  0.43175  0.46287  1.0000
  H   H4444     1.0  0.72847  0.09582  0.24771  1.0000
  H   H4445     1.0  0.76590  0.20726  0.24487  1.0000
  H   H4446     1.0  0.68790  0.38308  0.37780  1.0000
  H   H4447     1.0  0.79799  0.23874  0.28472  1.0000
  H   H4448     1.0  0.89527  0.35785  0.31066  1.0000
  C   C2491     1.0  0.89709  0.34778  0.32214  1.0000
  H   H4449     1.0  0.69074  0.46209  0.30792  1.0000
  C   C2492     1.0  0.97162  0.39105  0.41226  1.0000
  C   C2493     1.0  0.97253  0.19374  0.46587  1.0000
  H   H4450     1.0  0.94067  0.17089  0.43118  1.0000
  S   S561      1.0  0.66607  0.19966  0.28064  1.0000
  C   C2494     1.0  0.80131  0.23251  0.25982  1.0000
  H   H4451     1.0  0.96101  0.22605  0.46786  1.0000
  H   H4452     1.0  0.95357  0.10295  0.43616  1.0000
  H   H4453     1.0  0.80448  0.98569  0.37986  1.0000
  H   H4454     1.0  0.72925  0.06696  0.34481  1.0000
  C   C2495     1.0  0.71356  0.37138  0.39007  1.0000
  N   N136      1.0  0.91265  0.25755  0.28917  1.0000
  C   C2496     1.0  0.89581  0.27542  0.29077  1.0000
  C   C2497     1.0  0.90375  0.23795  0.29448  1.0000
  C   C2498     1.0  0.92730  0.25846  0.30055  1.0000
  C   C2499     1.0  0.92417  0.25797  0.27243  1.0000
  C   C2500     1.0  0.91196  0.26753  0.25842  1.0000
  C   C2501     1.0  0.90302  0.29655  0.28911  1.0000
  C   C2502     1.0  0.96083  0.00792  0.45117  1.0000
  C   C2503     1.0  0.88821  0.23367  0.28452  1.0000
  C   C2504     1.0  0.87896  0.21451  0.29225  1.0000
  C   C2505     1.0  0.92415  0.26327  0.24235  1.0000
  H   H4455     1.0  0.91520  0.47120  0.43681  1.0000
  H   H4456     1.0  0.88630  0.27311  0.30263  1.0000
  H   H4457     1.0  0.88492  0.27641  0.28219  1.0000
  H   H4458     1.0  0.91590  0.22449  0.29418  1.0000
  H   H4459     1.0  0.89640  0.23741  0.30713  1.0000
  H   H4460     1.0  0.91885  0.26064  0.31260  1.0000
  H   H4461     1.0  0.93534  0.27197  0.29654  1.0000
  H   H4462     1.0  0.93719  0.26669  0.27091  1.0000
  H   H4463     1.0  0.93132  0.24223  0.27035  1.0000
  H   H4464     1.0  0.90842  0.28435  0.25801  1.0000
  H   H4465     1.0  0.89730  0.26176  0.25951  1.0000
  H   H4466     1.0  0.67847  0.42277  0.31001  1.0000
  C   C2506     1.0  0.71787  0.04498  0.24816  1.0000
  C   C2507     1.0  0.75747  0.03431  0.35707  1.0000
  H   H4467     1.0  0.78651  0.27075  0.25963  1.0000
  H   H4468     1.0  0.87557  0.24649  0.28335  1.0000
  H   H4469     1.0  0.89592  0.23079  0.27247  1.0000
  H   H4470     1.0  0.89101  0.20101  0.29335  1.0000
  H   H4471     1.0  0.87050  0.21655  0.30428  1.0000
  H   H4472     1.0  0.86819  0.21152  0.28474  1.0000
  C   C2508     1.0  0.90798  0.00301  0.41850  1.0000
  H   H4473     1.0  0.89897  0.44297  0.45593  1.0000
  C   C2509     1.0  0.95576  0.21267  0.46467  1.0000
  H   H4474     1.0  0.92726  0.24659  0.24181  1.0000
  N   N137      1.0  0.89119  0.11927  0.45199  1.0000
  H   H4475     1.0  0.72843  0.03210  0.25359  1.0000
  H   H4476     1.0  0.72890  0.21483  0.22192  1.0000
  H   H4477     1.0  0.81221  0.23509  0.22754  1.0000
  H   H4478     1.0  0.91049  0.39015  0.45551  1.0000
  H   H4479     1.0  0.91819  0.36165  0.41785  1.0000
  H   H4480     1.0  0.76837  0.01359  0.32125  1.0000
  C   C2510     1.0  0.96081  0.24446  0.31116  1.0000
  H   H4481     1.0  0.75485  0.46565  0.42777  1.0000
  H   H4482     1.0  0.87393  0.31358  0.29761  1.0000
  S   S562      1.0  0.69527  0.00162  0.35629  1.0000
  Fe  Fe288     1.0  0.98598  0.26217  0.38200  1.0000
  C   C2511     1.0  0.96199  0.02824  0.45654  1.0000
  C   C2512     1.0  0.79630  0.23310  0.22694  1.0000
  C   C2513     1.0  0.95998  0.37415  0.42156  1.0000
  C   C2514     1.0  0.91156  0.05430  0.46950  1.0000
  H   H4483     1.0  0.95118  0.34791  0.44882  1.0000
  H   H4484     1.0  0.95872  0.36400  0.41294  1.0000
  H   H4485     1.0  0.70105  0.08412  0.24117  1.0000
  H   H4486     1.0  0.95074  0.33533  0.42629  1.0000
  H   H4487     1.0  0.86246  0.13119  0.44341  1.0000
  C   C2515     1.0  0.93452  0.33334  0.42882  1.0000
  C   C2516     1.0  0.93854  0.38314  0.42917  1.0000
  H   H4488     1.0  0.94048  0.39526  0.43593  1.0000
  C   C2517     1.0  0.78696  0.46733  0.42575  1.0000
  H   H4489     1.0  0.70890  0.04997  0.39257  1.0000
  C   C2518     1.0  0.66322  0.42346  0.37634  1.0000
  C   C2519     1.0  0.84161  0.27062  0.22840  1.0000
  N   N138      1.0  0.68649  0.09439  0.26348  1.0000
  H   H4490     1.0  0.97868  0.33163  0.40137  1.0000
  H   H4491     1.0  0.74090  0.26665  0.26253  1.0000
  H   H4492     1.0  0.72554  0.07982  0.36157  1.0000
  H   H4493     1.0  0.71818  0.19189  0.22206  1.0000
  H   H4494     1.0  0.71004  0.38365  0.39777  1.0000
  H   H4495     1.0  0.90900  0.29793  0.30015  1.0000
  C   C2520     1.0  0.96991  0.17949  0.42071  1.0000
  C   C2521     1.0  0.94428  0.47731  0.45463  1.0000
  H   H4496     1.0  0.65889  0.46021  0.31490  1.0000
  H   H4497     1.0  0.88011  0.09133  0.46354  1.0000
  H   H4498     1.0  0.72519  0.02290  0.37504  1.0000
  H   H4499     1.0  0.72814  0.13449  0.26261  1.0000
  H   H4500     1.0  0.73130  0.33002  0.34943  1.0000
  C   C2522     1.0  0.80517  0.46908  0.39895  1.0000
  H   H4501     1.0  0.79233  0.30993  0.23167  1.0000
  H   H4502     1.0  0.67349  0.04698  0.39191  1.0000
  H   H4503     1.0  0.67860  0.42170  0.37904  1.0000
  C   C2523     1.0  0.89877  0.05065  0.45916  1.0000
  H   H4504     1.0  0.73038  0.36750  0.38746  1.0000
  H   H4505     1.0  0.80246  0.30216  0.36732  1.0000
  C   C2524     1.0  0.82436  0.21673  0.28063  1.0000
  H   H4506     1.0  0.94206  0.08724  0.42601  1.0000
  C   C2525     1.0  0.71331  0.35535  0.33572  1.0000
  C   C2526     1.0  0.75764  0.03983  0.40805  1.0000
  H   H4507     1.0  0.77175  0.04700  0.40511  1.0000
  H   H4508     1.0  0.74502  0.05059  0.41351  1.0000
  H   H4509     1.0  0.76046  0.02599  0.41694  1.0000
  H   H4510     1.0  0.68365  0.48494  0.32669  1.0000
  H   H4511     1.0  0.76308  0.30330  0.26175  1.0000
  H   H4512     1.0  0.96935  0.36573  0.43069  1.0000
  H   H4513     1.0  0.92200  0.10619  0.45574  1.0000
  H   H4514     1.0  0.69979  0.06610  0.37549  1.0000
  H   H4515     1.0  0.76248  0.22610  0.27561  1.0000
  C   C2527     1.0  0.76896  0.20620  0.25733  1.0000
  C   C2528     1.0  0.80261  0.22572  0.27787  1.0000
  S   S563      1.0  0.66089  0.15192  0.29448  1.0000
  H   H4516     1.0  0.79481  0.21680  0.23068  1.0000
  C   C2529     1.0  0.75493  0.19227  0.26802  1.0000
  C   C2530     1.0  0.87551  0.15297  0.46328  1.0000
  C   C2531     1.0  0.90668  0.38084  0.44712  1.0000
  H   H4517     1.0  0.93735  0.22684  0.31077  1.0000
  C   C2532     1.0  0.96485  0.15155  0.44241  1.0000
  H   H4518     1.0  0.71565  0.03853  0.35849  1.0000
  C   C2533     1.0  0.68352  0.41866  0.32196  1.0000
  H   H4519     1.0  0.77183  0.25780  0.27600  1.0000
  H   H4520     1.0  0.80773  0.21889  0.25392  1.0000
  H   H4521     1.0  0.71822  0.32120  0.31884  1.0000
  C   C2534     1.0  0.89411  0.39574  0.43528  1.0000
  H   H4522     1.0  0.78479  0.19871  0.25819  1.0000
  H   H4523     1.0  0.72448  0.44134  0.29873  1.0000
  C   C2535     1.0  0.76892  0.46649  0.41968  1.0000
  H   H4524     1.0  0.79284  0.21384  0.28300  1.0000
  H   H4525     1.0  0.86518  0.41588  0.43516  1.0000
  H   H4526     1.0  0.89397  0.01427  0.41725  1.0000
  C   C2536     1.0  0.93015  0.32264  0.41565  1.0000
  H   H4527     1.0  0.76313  0.05872  0.37704  1.0000
  H   H4528     1.0  0.73877  0.19951  0.26852  1.0000
  S   S564      1.0  0.82781  0.47210  0.42211  1.0000
  H   H4529     1.0  0.75887  0.18909  0.28035  1.0000
  C   C2537     1.0  0.88581  0.03577  0.46391  1.0000
  H   H4530     1.0  0.97492  0.99746  0.45377  1.0000
  H   H4531     1.0  0.90886  0.33445  0.31973  1.0000
  H   H4532     1.0  0.89884  0.99502  0.44341  1.0000
  H   H4533     1.0  0.73855  0.02590  0.39677  1.0000
  H   H4534     1.0  0.72651  0.36102  0.35996  1.0000
  H   H4535     1.0  0.87992  0.32950  0.34062  1.0000
  C   C2538     1.0  0.95692  0.16756  0.43139  1.0000
  C   C2539     1.0  0.71480  0.20781  0.22486  1.0000
  C   C2540     1.0  0.92887  0.42555  0.45635  1.0000
  H   H4536     1.0  0.95198  0.10970  0.41518  1.0000
  H   H4537     1.0  0.91422  0.01535  0.43832  1.0000
  H   H4538     1.0  0.70689  0.32448  0.34711  1.0000
  H   H4539     1.0  0.73607  0.30378  0.26261  1.0000
  C   C2541     1.0  0.69788  0.38929  0.34165  1.0000
  H   H4540     1.0  0.82486  0.21238  0.29365  1.0000
  H   H4541     1.0  0.77265  0.03928  0.35591  1.0000
  H   H4542     1.0  0.95709  0.47662  0.44464  1.0000
  H   H4543     1.0  0.96451  0.22106  0.43901  1.0000
  H   H4544     1.0  0.90228  0.40882  0.42988  1.0000
  C   C2542     1.0  0.75211  0.03379  0.39310  1.0000
  H   H4545     1.0  0.92855  0.01074  0.46018  1.0000
  H   H4546     1.0  0.74413  0.09515  0.32596  1.0000
  H   H4547     1.0  0.92077  0.00879  0.41005  1.0000
  C   C2543     1.0  0.74838  0.05268  0.38024  1.0000
  H   H4548     1.0  0.88899  0.18109  0.45722  1.0000
  H   H4549     1.0  0.76151  0.08502  0.35774  1.0000
  H   H4550     1.0  0.68948  0.47016  0.28720  1.0000
  C   C2544     1.0  0.72966  0.32124  0.32677  1.0000
  H   H4551     1.0  0.70586  0.35666  0.32487  1.0000
  H   H4552     1.0  0.72753  0.36228  0.33159  1.0000
  C   C2545     1.0  0.70965  0.36257  0.36315  1.0000
  C   C2546     1.0  0.75529  0.08014  0.34804  1.0000
  H   H4553     1.0  0.68982  0.23275  0.22208  1.0000
  C   C2547     1.0  0.95064  0.21841  0.44764  1.0000
  H   H4554     1.0  0.67949  0.04024  0.37205  1.0000
  C   C2548     1.0  0.67925  0.35917  0.35115  1.0000
  C   C2549     1.0  0.73674  0.06892  0.35493  1.0000
  S   S565      1.0  0.94798  0.13783  0.45625  1.0000
  S   S566      1.0  0.81309  0.98890  0.41102  1.0000
  H   H4555     1.0  0.75512  0.27934  0.24517  1.0000
  H   H4556     1.0  0.89154  0.32893  0.28527  1.0000
  C   C2550     1.0  0.92527  0.34328  0.46642  1.0000
  H   H4557     1.0  0.70848  0.22165  0.24681  1.0000
  C   C2551     1.0  0.68555  0.03937  0.38346  1.0000
  H   H4558     1.0  0.76234  0.10767  0.33232  1.0000
  H   H4559     1.0  0.71911  0.19492  0.24920  1.0000
  C   C2552     1.0  0.70443  0.37889  0.37461  1.0000
  H   H4560     1.0  0.82968  0.20292  0.27468  1.0000
  N   N139      1.0  0.92578  0.36837  0.43979  1.0000
  H   H4561     1.0  0.94935  0.03998  0.45272  1.0000
  N   N140      1.0  0.69960  0.36685  0.34816  1.0000
  C   C2553     1.0  0.71994  0.33220  0.34105  1.0000
  H   H4562     1.0  0.85535  0.25960  0.22746  1.0000
  C   C2554     1.0  0.67505  0.08533  0.27895  1.0000
  S   S567      1.0  0.98640  0.34442  0.46381  1.0000
  H   H4563     1.0  0.69290  0.20244  0.24644  1.0000
  S   S568      1.0  0.86908  0.03295  0.45071  1.0000
  H   H4564     1.0  0.68834  0.39876  0.35035  1.0000
  H   H4565     1.0  0.89133  0.38791  0.42561  1.0000
  H   H4566     1.0  0.73984  0.02394  0.34135  1.0000
  H   H4567     1.0  0.96048  0.01088  0.43812  1.0000
  H   H4568     1.0  0.75663  0.17753  0.26333  1.0000
  H   H4569     1.0  0.71208  0.09282  0.27611  1.0000
  H   H4570     1.0  0.68045  0.34361  0.35813  1.0000
  H   H4571     1.0  0.66366  0.07636  0.27664  1.0000
  H   H4572     1.0  0.93307  0.33207  0.40381  1.0000
  C   C2555     1.0  0.75034  0.29428  0.26593  1.0000
  C   C2556     1.0  0.94396  0.10315  0.42677  1.0000
  C   C2557     1.0  0.67302  0.11120  0.25455  1.0000
  H   H4573     1.0  0.86465  0.15816  0.45451  1.0000
  H   H4574     1.0  0.78677  0.46696  0.43842  1.0000
  H   H4575     1.0  0.93456  0.43215  0.44440  1.0000
  H   H4576     1.0  0.93067  0.39114  0.41897  1.0000
  H   H4577     1.0  0.91530  0.29849  0.27889  1.0000
  H   H4578     1.0  0.76578  0.24837  0.23420  1.0000
  H   H4579     1.0  0.89618  0.37071  0.45448  1.0000
  S   S569      1.0  0.98400  0.26054  0.35627  1.0000
  H   H4580     1.0  0.86409  0.39248  0.44883  1.0000
  S   S570      1.0  0.96696  0.40386  0.45619  1.0000
  H   H4581     1.0  0.96332  0.39992  0.40257  1.0000
  C   C2558     1.0  0.65606  0.17452  0.23426  1.0000
  C   C2559     1.0  0.66419  0.10067  0.29038  1.0000
  S   S571      1.0  0.76342  0.48077  0.31233  1.0000
  H   H4582     1.0  0.66333  0.07770  0.31161  1.0000
  C   C2560     1.0  0.65694  0.43858  0.36413  1.0000
  H   H4583     1.0  0.87564  0.41277  0.45355  1.0000
  C   C2561     1.0  0.91243  0.00020  0.43568  1.0000
  H   H4584     1.0  0.90608  0.13669  0.46440  1.0000
  C   C2562     1.0  0.69358  0.47469  0.29805  1.0000
  H   H4585     1.0  0.92154  0.06571  0.46574  1.0000
  C   C2563     1.0  0.94174  0.41088  0.46511  1.0000
  H   H4586     1.0  0.66917  0.12481  0.26093  1.0000
  C   C2564     1.0  0.66096  0.37203  0.36016  1.0000
  C   C2565     1.0  0.98689  0.45985  0.46419  1.0000
  N   N141      1.0  0.95130  0.48174  0.46932  1.0000
  H   H4587     1.0  0.66278  0.37084  0.37287  1.0000
  Fe  Fe289     1.0  0.82200  0.98791  0.43598  1.0000
  H   H4588     1.0  0.67550  0.38860  0.32561  1.0000
  H   H4589     1.0  0.65891  0.38831  0.35480  1.0000
  H   H4590     1.0  0.86454  0.11361  0.46918  1.0000
  C   C2566     1.0  0.88138  0.17201  0.46786  1.0000
  H   H4591     1.0  0.93551  0.32866  0.46915  1.0000
  H   H4592     1.0  0.82513  0.04835  0.47001  1.0000
  H   H4593     1.0  0.65581  0.09349  0.24354  1.0000
  H   H4594     1.0  0.70389  0.03128  0.64327  1.0000
  H   H4595     1.0  0.76836  0.13933  0.66230  1.0000
  S   S572      1.0  0.93934  0.19766  0.62499  1.0000
  C   C2567     1.0  0.98697  0.26212  0.65544  1.0000
  H   H4596     1.0  0.71993  0.46779  0.69030  1.0000
  H   H4597     1.0  0.66578  0.44938  0.55796  1.0000
  H   H4598     1.0  0.73190  0.46013  0.49983  1.0000
  H   H4599     1.0  0.96505  0.12408  0.61095  1.0000
  S   S573      1.0  0.93850  0.10575  0.49679  1.0000
  Fe  Fe290     1.0  0.96583  0.10307  0.50940  1.0000
  S   S574      1.0  0.95941  0.11892  0.53179  1.0000
  Fe  Fe291     1.0  0.94755  0.07260  0.49396  1.0000
  S   S575      1.0  0.92600  0.04857  0.49862  1.0000
  C   C2568     1.0  0.87886  0.09045  0.49531  1.0000
  H   H4600     1.0  0.76497  0.20268  0.70777  1.0000
  H   H4601     1.0  0.71679  0.18745  0.67850  1.0000
  H   H4602     1.0  0.91067  0.34120  0.49105  1.0000
  S   S576      1.0  0.83522  0.23192  0.70775  1.0000
  H   H4603     1.0  0.96945  0.46484  0.48725  1.0000
  Fe  Fe292     1.0  0.86943  0.23079  0.70250  1.0000
  S   S577      1.0  0.88683  0.24536  0.67961  1.0000
  H   H4604     1.0  0.72090  0.35055  0.69334  1.0000
  S   S578      1.0  0.82449  0.45988  0.47080  1.0000
  H   H4605     1.0  0.69812  0.39736  0.56098  1.0000
  C   C2569     1.0  0.91140  0.04323  0.48479  1.0000
  C   C2570     1.0  0.79792  0.21342  0.68872  1.0000
  C   C2571     1.0  0.85973  0.44674  0.54101  1.0000
  C   C2572     1.0  0.80051  0.01608  0.54138  1.0000
  Fe  Fe293     1.0  0.81058  0.99121  0.47166  1.0000
  S   S579      1.0  0.87566  0.43092  0.48667  1.0000
  Fe  Fe294     1.0  0.75568  0.05906  0.68501  1.0000
  S   S580      1.0  0.72758  0.06342  0.70303  1.0000
  S   S581      1.0  0.76435  0.03435  0.66838  1.0000
  Fe  Fe295     1.0  0.77413  0.09235  0.69683  1.0000
  C   C2573     1.0  0.88639  0.02394  0.47892  1.0000
  S   S582      1.0  0.79975  0.11169  0.68935  1.0000
  H   H4606     1.0  0.83493  0.44030  0.55915  1.0000
  Fe  Fe296     1.0  0.72856  0.09728  0.69708  1.0000
  H   H4607     1.0  0.74834  0.15926  0.65583  1.0000
  S   S583      1.0  0.77711  0.05800  0.70295  1.0000
  S   S584      1.0  0.75504  0.09287  0.67759  1.0000
  S   S585      1.0  0.69844  0.42600  0.70255  1.0000
  H   H4608     1.0  0.73169  0.20919  0.70217  1.0000
  H   H4609     1.0  0.97774  0.33060  0.53026  1.0000
  H   H4610     1.0  0.76772  0.98765  0.68059  1.0000
  H   H4611     1.0  0.87706  0.01194  0.48249  1.0000
  H   H4612     1.0  0.85801  0.00429  0.50921  1.0000
  H   H4613     1.0  0.74814  0.28116  0.70540  1.0000
  H   H4614     1.0  0.94013  0.17372  0.47713  1.0000
  S   S586      1.0  0.72359  0.43954  0.62725  1.0000
  H   H4615     1.0  0.90807  0.36676  0.48043  1.0000
  H   H4616     1.0  0.79123  0.47902  0.54551  1.0000
  S   S587      1.0  0.69588  0.44921  0.58955  1.0000
  H   H4617     1.0  0.80424  0.44490  0.57255  1.0000
  H   H4618     1.0  0.81171  0.04571  0.51447  1.0000
  C   C2574     1.0  0.98579  0.27231  0.54536  1.0000
  H   H4619     1.0  0.89183  0.16767  0.47702  1.0000
  C   C2575     1.0  0.87839  0.29889  0.71873  1.0000
  C   C2576     1.0  0.70557  0.42861  0.68164  1.0000
  C   C2577     1.0  0.72523  0.42155  0.67469  1.0000
  C   C2578     1.0  0.73047  0.42483  0.65798  1.0000
  C   C2579     1.0  0.71618  0.43531  0.64813  1.0000
  C   C2580     1.0  0.69645  0.44205  0.65508  1.0000
  C   C2581     1.0  0.69112  0.43854  0.67177  1.0000
  H   H4620     1.0  0.73646  0.41378  0.68218  1.0000
  H   H4621     1.0  0.74576  0.41944  0.65266  1.0000
  H   H4622     1.0  0.68537  0.44991  0.64753  1.0000
  H   H4623     1.0  0.67579  0.44377  0.67708  1.0000
  C   C2582     1.0  0.75067  0.02604  0.65511  1.0000
  C   C2583     1.0  0.76093  0.01158  0.64524  1.0000
  C   C2584     1.0  0.75073  0.00411  0.63481  1.0000
  C   C2585     1.0  0.73007  0.01109  0.63403  1.0000
  C   C2586     1.0  0.71985  0.02567  0.64380  1.0000
  C   C2587     1.0  0.73003  0.03306  0.65430  1.0000
  H   H4624     1.0  0.91909  0.15224  0.49667  1.0000
  H   H4625     1.0  0.93211  0.35491  0.48689  1.0000
  H   H4626     1.0  0.72189  0.04418  0.66176  1.0000
  H   H4627     1.0  0.98676  0.15542  0.47536  1.0000
  H   H4628     1.0  0.79106  0.22476  0.69689  1.0000
  C   C2588     1.0  0.98400  0.30055  0.52340  1.0000
  H   H4629     1.0  0.82535  0.98913  0.51111  1.0000
  H   H4630     1.0  0.95332  0.22704  0.66689  1.0000
  H   H4631     1.0  0.78801  0.44258  0.55846  1.0000
  C   C2589     1.0  0.66239  0.39376  0.66956  1.0000
  H   H4632     1.0  0.95481  0.14668  0.59861  1.0000
  H   H4633     1.0  0.65686  0.42095  0.52621  1.0000
  H   H4634     1.0  0.68496  0.35647  0.67331  1.0000
  H   H4635     1.0  0.74702  0.46665  0.63943  1.0000
  H   H4636     1.0  0.73987  0.20920  0.68156  1.0000
  H   H4637     1.0  0.84105  0.46497  0.55826  1.0000
  C   C2590     1.0  0.97156  0.16115  0.55661  1.0000
  C   C2591     1.0  0.92804  0.16215  0.50095  1.0000
  C   C2592     1.0  0.95660  0.21425  0.69157  1.0000
  H   H4638     1.0  0.70074  0.38525  0.69158  1.0000
  S   S588      1.0  0.78382  0.99913  0.49069  1.0000
  C   C2593     1.0  0.80334  0.47015  0.55240  1.0000
  C   C2594     1.0  0.73512  0.19913  0.69271  1.0000
  S   S589      1.0  0.97319  0.06899  0.50865  1.0000
  C   C2595     1.0  0.80551  0.12959  0.70030  1.0000
  C   C2596     1.0  0.81986  0.14250  0.69309  1.0000
  C   C2597     1.0  0.82471  0.15710  0.70134  1.0000
  H   H4639     1.0  0.91448  0.29521  0.60155  1.0000
  C   C2598     1.0  0.82254  0.02098  0.54015  1.0000
  H   H4640     1.0  0.82729  0.14116  0.68104  1.0000
  H   H4641     1.0  0.83571  0.16699  0.69564  1.0000
  Fe  Fe297     1.0  0.66899  0.47389  0.59172  1.0000
  C   C2599     1.0  0.93417  0.40218  0.48044  1.0000
  H   H4642     1.0  0.67381  0.40415  0.66878  1.0000
  H   H4643     1.0  0.68340  0.43931  0.51466  1.0000
  H   H4644     1.0  0.80621  0.22142  0.67785  1.0000
  H   H4645     1.0  0.71012  0.18053  0.69978  1.0000
  H   H4646     1.0  0.69022  0.45325  0.54837  1.0000
  S   S590      1.0  0.66604  0.28608  0.71060  1.0000
  C   C2600     1.0  0.74801  0.47340  0.53563  1.0000
  H   H4647     1.0  0.94895  0.19445  0.49686  1.0000
  H   H4648     1.0  0.89096  0.43522  0.54471  1.0000
  H   H4649     1.0  0.75627  0.00664  0.51907  1.0000
  C   C2601     1.0  0.93346  0.21620  0.69562  1.0000
  H   H4650     1.0  0.85887  0.43303  0.53565  1.0000
  C   C2602     1.0  0.95912  0.18031  0.49383  1.0000
  C   C2603     1.0  0.98646  0.20140  0.48847  1.0000
  H   H4651     1.0  0.90805  0.40166  0.49885  1.0000
  C   C2604     1.0  0.92594  0.21062  0.64076  1.0000
  C   C2605     1.0  0.92837  0.23061  0.64173  1.0000
  C   C2606     1.0  0.91633  0.24103  0.65376  1.0000
  C   C2607     1.0  0.90217  0.23138  0.66514  1.0000
  C   C2608     1.0  0.90009  0.21122  0.66438  1.0000
  C   C2609     1.0  0.91183  0.20095  0.65214  1.0000
  H   H4652     1.0  0.93919  0.23821  0.63304  1.0000
  H   H4653     1.0  0.91793  0.25667  0.65424  1.0000
  H   H4654     1.0  0.88915  0.20368  0.67302  1.0000
  H   H4655     1.0  0.90983  0.18549  0.65144  1.0000
  H   H4656     1.0  0.72077  0.47338  0.66432  1.0000
  C   C2610     1.0  0.76622  0.99249  0.52191  1.0000
  C   C2611     1.0  0.96216  0.14704  0.55099  1.0000
  H   H4657     1.0  0.67503  0.46480  0.50680  1.0000
  H   H4658     1.0  0.94746  0.14353  0.55698  1.0000
  H   H4659     1.0  0.68615  0.47831  0.67061  1.0000
  N   N142      1.0  0.89493  0.24070  0.59521  1.0000
  C   C2612     1.0  0.87839  0.24321  0.58484  1.0000
  C   C2613     1.0  0.88580  0.23560  0.61240  1.0000
  C   C2614     1.0  0.90389  0.26034  0.59251  1.0000
  C   C2615     1.0  0.91174  0.22372  0.59100  1.0000
  C   C2616     1.0  0.90535  0.20237  0.59193  1.0000
  C   C2617     1.0  0.88559  0.24490  0.56658  1.0000
  Fe  Fe298     1.0  0.85727  0.45880  0.47418  1.0000
  C   C2618     1.0  0.86938  0.25236  0.61921  1.0000
  C   C2619     1.0  0.86192  0.24590  0.63684  1.0000
  C   C2620     1.0  0.92330  0.18720  0.58559  1.0000
  C   C2621     1.0  0.86746  0.24838  0.55735  1.0000
  C   C2622     1.0  0.69432  0.41412  0.56095  1.0000
  H   H4660     1.0  0.86739  0.25725  0.58679  1.0000
  H   H4661     1.0  0.86920  0.23046  0.58834  1.0000
  H   H4662     1.0  0.87840  0.22167  0.61400  1.0000
  H   H4663     1.0  0.89791  0.23148  0.62025  1.0000
  H   H4664     1.0  0.89166  0.27376  0.59302  1.0000
  H   H4665     1.0  0.91247  0.26269  0.58026  1.0000
  H   H4666     1.0  0.92017  0.22788  0.57891  1.0000
  H   H4667     1.0  0.92327  0.22158  0.59917  1.0000
  H   H4668     1.0  0.89290  0.20291  0.58484  1.0000
  H   H4669     1.0  0.90024  0.19620  0.60451  1.0000
  H   H4670     1.0  0.89426  0.25786  0.56236  1.0000
  H   H4671     1.0  0.89540  0.23071  0.56339  1.0000
  C   C2623     1.0  0.98741  0.13793  0.59288  1.0000
  H   H4672     1.0  0.75958  0.15654  0.71435  1.0000
  H   H4673     1.0  0.87537  0.26696  0.61825  1.0000
  H   H4674     1.0  0.85595  0.25516  0.61279  1.0000
  H   H4675     1.0  0.85569  0.23128  0.63862  1.0000
  H   H4676     1.0  0.87458  0.24408  0.64396  1.0000
  H   H4677     1.0  0.84977  0.25782  0.64135  1.0000
  H   H4678     1.0  0.93607  0.18565  0.59261  1.0000
  H   H4679     1.0  0.91852  0.17195  0.58662  1.0000
  H   H4680     1.0  0.92872  0.19226  0.57283  1.0000
  H   H4681     1.0  0.87300  0.24944  0.54435  1.0000
  H   H4682     1.0  0.85852  0.23548  0.56084  1.0000
  H   H4683     1.0  0.85740  0.26285  0.55962  1.0000
  C   C2624     1.0  0.79163  0.00954  0.55869  1.0000
  H   H4684     1.0  0.92893  0.45287  0.49077  1.0000
  H   H4685     1.0  0.69303  0.47368  0.69669  1.0000
  H   H4686     1.0  0.96242  0.21877  0.70163  1.0000
  H   H4687     1.0  0.71564  0.00362  0.54727  1.0000
  H   H4688     1.0  0.69085  0.99126  0.52443  1.0000
  C   C2625     1.0  0.66166  0.37803  0.71519  1.0000
  C   C2626     1.0  0.90106  0.42329  0.47823  1.0000
  H   H4689     1.0  0.79957  0.44939  0.53188  1.0000
  H   H4690     1.0  0.75763  0.44682  0.52369  1.0000
  H   H4691     1.0  0.87834  0.45398  0.55724  1.0000
  S   S591      1.0  0.98708  0.11136  0.48697  1.0000
  H   H4692     1.0  0.87234  0.42814  0.56148  1.0000
  H   H4693     1.0  0.92718  0.20969  0.68677  1.0000
  H   H4694     1.0  0.94451  0.99523  0.47294  1.0000
  H   H4695     1.0  0.94149  0.20985  0.47264  1.0000
  H   H4696     1.0  0.70926  0.46741  0.49040  1.0000
  S   S592      1.0  0.87630  0.19850  0.71479  1.0000
  H   H4697     1.0  0.65556  0.43117  0.64999  1.0000
  C   C2627     1.0  0.74622  0.16808  0.71155  1.0000
  H   H4698     1.0  0.71732  0.44083  0.49778  1.0000
  N   N143      1.0  0.66253  0.37855  0.68468  1.0000
  H   H4699     1.0  0.80723  0.48087  0.55961  1.0000
  H   H4700     1.0  0.93216  0.24968  0.60330  1.0000
  H   H4701     1.0  0.73106  0.15588  0.68467  1.0000
  H   H4702     1.0  0.75943  0.18047  0.67115  1.0000
  C   C2628     1.0  0.97164  0.13731  0.53777  1.0000
  H   H4703     1.0  0.74245  0.13439  0.66430  1.0000
  H   H4704     1.0  0.87350  0.01864  0.53649  1.0000
  H   H4705     1.0  0.86479  0.45885  0.53148  1.0000
  N   N144      1.0  0.97772  0.18542  0.48238  1.0000
  H   H4706     1.0  0.76576  0.98734  0.71990  1.0000
  S   S593      1.0  0.98346  0.30880  0.50283  1.0000
  H   H4707     1.0  0.72717  0.48336  0.71270  1.0000
  H   H4708     1.0  0.95946  0.44933  0.47667  1.0000
  C   C2629     1.0  0.70532  0.98991  0.52933  1.0000
  H   H4709     1.0  0.97613  0.31797  0.55934  1.0000
  H   H4710     1.0  0.89132  0.11794  0.48593  1.0000
  H   H4711     1.0  0.92648  0.23243  0.69574  1.0000
  H   H4712     1.0  0.89902  0.01885  0.50108  1.0000
  H   H4713     1.0  0.73464  0.36930  0.68066  1.0000
  C   C2630     1.0  0.90315  0.47259  0.50067  1.0000
  C   C2631     1.0  0.98037  0.31439  0.53440  1.0000
  C   C2632     1.0  0.76990  0.19164  0.69909  1.0000
  C   C2633     1.0  0.75229  0.31247  0.70403  1.0000
  C   C2634     1.0  0.79610  0.13132  0.71589  1.0000
  H   H4714     1.0  0.77542  0.16248  0.68304  1.0000
  C   C2635     1.0  0.82677  0.44399  0.51579  1.0000
  S   S594      1.0  0.74756  0.09834  0.71593  1.0000
  H   H4715     1.0  0.71192  0.46319  0.71945  1.0000
  C   C2636     1.0  0.75209  0.14597  0.66498  1.0000
  H   H4716     1.0  0.68387  0.20607  0.68742  1.0000
  H   H4717     1.0  0.75274  0.13864  0.69027  1.0000
  H   H4718     1.0  0.80741  0.03284  0.48201  1.0000
  C   C2637     1.0  0.78148  0.20329  0.68410  1.0000
  C   C2638     1.0  0.67509  0.15604  0.69836  1.0000
  C   C2639     1.0  0.81520  0.15891  0.71691  1.0000
  H   H4719     1.0  0.91129  0.26091  0.61660  1.0000
  C   C2640     1.0  0.67651  0.44695  0.54690  1.0000
  H   H4720     1.0  0.69373  0.21546  0.70252  1.0000
  Fe  Fe299     1.0  0.96022  0.11221  0.47438  1.0000
  H   H4721     1.0  0.93332  0.15405  0.51225  1.0000
  H   H4722     1.0  0.66691  0.38563  0.65889  1.0000
  H   H4723     1.0  0.85403  0.03334  0.54872  1.0000
  C   C2641     1.0  0.68195  0.42353  0.54744  1.0000
  C   C2642     1.0  0.66447  0.48096  0.53364  1.0000
  H   H4724     1.0  0.80550  0.42568  0.51060  1.0000
  S   S595      1.0  0.96718  0.07934  0.47057  1.0000
  H   H4725     1.0  0.98503  0.12909  0.58369  1.0000
  H   H4726     1.0  0.68396  0.35342  0.69431  1.0000
  C   C2643     1.0  0.98664  0.27951  0.52894  1.0000
  H   H4727     1.0  0.67004  0.15569  0.68710  1.0000
  Fe  Fe300     1.0  0.71213  0.47277  0.57277  1.0000
  C   C2644     1.0  0.72143  0.36097  0.68188  1.0000
  H   H4728     1.0  0.97466  0.21494  0.49018  1.0000
  N   N145      1.0  0.83512  0.02283  0.52374  1.0000
  C   C2645     1.0  0.82151  0.03149  0.51113  1.0000
  H   H4729     1.0  0.86751  0.18171  0.47287  1.0000
  C   C2646     1.0  0.84984  0.03770  0.52320  1.0000
  H   H4730     1.0  0.81079  0.02092  0.51043  1.0000
  H   H4731     1.0  0.70182  0.22391  0.68158  1.0000
  C   C2647     1.0  0.83233  0.03694  0.49389  1.0000
  C   C2648     1.0  0.86335  0.03347  0.53677  1.0000
  H   H4732     1.0  0.91798  0.17658  0.50329  1.0000
  H   H4733     1.0  0.98241  0.19056  0.51434  1.0000
  S   S596      1.0  0.96503  0.22197  0.58154  1.0000
  H   H4734     1.0  0.77084  0.28496  0.71255  1.0000
  C   C2649     1.0  0.87705  0.04991  0.53489  1.0000
  N   N146      1.0  0.75215  0.18209  0.69643  1.0000
  C   C2650     1.0  0.71496  0.19275  0.69031  1.0000
  H   H4735     1.0  0.75891  0.99326  0.62716  1.0000
  H   H4736     1.0  0.70875  0.42063  0.55934  1.0000
  H   H4737     1.0  0.84138  0.05350  0.52329  1.0000
  H   H4738     1.0  0.86069  0.03799  0.51189  1.0000
  H   H4739     1.0  0.73219  0.25352  0.71956  1.0000
  N   N147      1.0  0.98527  0.22469  0.66910  1.0000
  H   H4740     1.0  0.81832  0.43114  0.54056  1.0000
  H   H4741     1.0  0.72365  0.35192  0.67185  1.0000
  H   H4742     1.0  0.84168  0.04924  0.49311  1.0000
  H   H4743     1.0  0.84219  0.02339  0.48973  1.0000
  S   S597      1.0  0.67783  0.48465  0.61294  1.0000
  H   H4744     1.0  0.82794  0.41096  0.51826  1.0000
  S   S598      1.0  0.71630  0.00236  0.62105  1.0000
  H   H4745     1.0  0.71670  0.99646  0.51988  1.0000
  C   C2651     1.0  0.81694  0.04469  0.48223  1.0000
  C   C2652     1.0  0.82215  0.42489  0.51041  1.0000
  H   H4746     1.0  0.73465  0.15888  0.71010  1.0000
  C   C2653     1.0  0.83888  0.45388  0.55062  1.0000
  H   H4747     1.0  0.66778  0.41652  0.54971  1.0000
  H   H4748     1.0  0.82044  0.03561  0.54517  1.0000
  H   H4749     1.0  0.95539  0.15155  0.48626  1.0000
  C   C2654     1.0  0.70185  0.37623  0.68170  1.0000
  H   H4750     1.0  0.97180  0.26798  0.66156  1.0000
  H   H4751     1.0  0.88731  0.05016  0.52331  1.0000
  H   H4752     1.0  0.86780  0.06521  0.53550  1.0000
  H   H4753     1.0  0.88666  0.04660  0.54463  1.0000
  H   H4754     1.0  0.73613  0.31820  0.70271  1.0000
  H   H4755     1.0  0.78200  0.46323  0.50244  1.0000
  H   H4756     1.0  0.82983  0.42371  0.49804  1.0000
  C   C2655     1.0  0.68732  0.31429  0.71720  1.0000
  C   C2656     1.0  0.75932  0.16996  0.68266  1.0000
  C   C2657     1.0  0.89898  0.02778  0.48936  1.0000
  H   H4757     1.0  0.69115  0.41928  0.53623  1.0000
  H   H4758     1.0  0.76340  0.47198  0.56770  1.0000
  H   H4759     1.0  0.89337  0.46035  0.50341  1.0000
  S   S599      1.0  0.70163  0.12164  0.69169  1.0000
  C   C2658     1.0  0.74772  0.15219  0.68169  1.0000
  H   H4760     1.0  0.82110  0.45737  0.50735  1.0000
  C   C2659     1.0  0.91861  0.35220  0.48209  1.0000
  H   H4761     1.0  0.66069  0.33402  0.68648  1.0000
  H   H4762     1.0  0.96361  0.17218  0.50543  1.0000
  H   H4763     1.0  0.77555  0.00726  0.55927  1.0000
  H   H4764     1.0  0.78478  0.00280  0.70993  1.0000
  H   H4765     1.0  0.77945  0.47361  0.58225  1.0000
  H   H4766     1.0  0.96261  0.19403  0.66262  1.0000
  C   C2660     1.0  0.91886  0.26193  0.60406  1.0000
  C   C2661     1.0  0.75947  0.46252  0.52365  1.0000
  H   H4767     1.0  0.74322  0.48315  0.62106  1.0000
  Fe  Fe301     1.0  0.98494  0.24369  0.58572  1.0000
  C   C2662     1.0  0.87629  0.44067  0.55184  1.0000
  C   C2663     1.0  0.94620  0.16647  0.48830  1.0000
  H   H4768     1.0  0.68544  0.41695  0.57267  1.0000
  C   C2664     1.0  0.92703  0.28231  0.59997  1.0000
  C   C2665     1.0  0.68300  0.36515  0.68360  1.0000
  H   H4769     1.0  0.87771  0.07553  0.49183  1.0000
  C   C2666     1.0  0.97776  0.19556  0.65551  1.0000
  Fe  Fe302     1.0  0.70605  0.46143  0.60930  1.0000
  C   C2667     1.0  0.91384  0.40837  0.48697  1.0000
  H   H4770     1.0  0.94397  0.39079  0.48727  1.0000
  H   H4771     1.0  0.83987  0.47611  0.51980  1.0000
  H   H4772     1.0  0.97835  0.27365  0.63178  1.0000
  H   H4773     1.0  0.96903  0.14909  0.61402  1.0000
  H   H4774     1.0  0.80027  0.99484  0.56357  1.0000
  H   H4775     1.0  0.77109  0.21544  0.67785  1.0000
  H   H4776     1.0  0.70412  0.47556  0.51820  1.0000
  C   C2668     1.0  0.70129  0.00321  0.54265  1.0000
  H   H4777     1.0  0.78923  0.19270  0.67557  1.0000
  C   C2669     1.0  0.92002  0.46786  0.48695  1.0000
  H   H4778     1.0  0.87283  0.29510  0.70824  1.0000
  C   C2670     1.0  0.66579  0.17146  0.70765  1.0000
  H   H4779     1.0  0.76771  0.45110  0.58344  1.0000
  H   H4780     1.0  0.88565  0.31289  0.71494  1.0000
  C   C2671     1.0  0.69764  0.21073  0.69046  1.0000
  N   N148      1.0  0.66754  0.45840  0.53241  1.0000
  C   C2672     1.0  0.75431  0.29048  0.71247  1.0000
  H   H4781     1.0  0.80910  0.20179  0.69470  1.0000
  S   S600      1.0  0.73081  0.46095  0.55047  1.0000
  H   H4782     1.0  0.83079  0.00938  0.54865  1.0000
  H   H4783     1.0  0.93829  0.28274  0.60797  1.0000
  H   H4784     1.0  0.78143  0.17973  0.70445  1.0000
  H   H4785     1.0  0.96406  0.16847  0.56677  1.0000
  H   H4786     1.0  0.79965  0.00385  0.53447  1.0000
  Fe  Fe303     1.0  0.96508  0.21022  0.60777  1.0000
  H   H4787     1.0  0.91254  0.46636  0.47674  1.0000
  H   H4788     1.0  0.95844  0.24415  0.67861  1.0000
  H   H4789     1.0  0.79045  0.02990  0.53664  1.0000
  H   H4790     1.0  0.93481  0.28425  0.58746  1.0000
  C   C2673     1.0  0.79340  0.45354  0.56456  1.0000
  H   H4791     1.0  0.90972  0.47334  0.51156  1.0000
  C   C2674     1.0  0.68171  0.45524  0.51711  1.0000
  H   H4792     1.0  0.84348  0.44302  0.51462  1.0000
  H   H4793     1.0  0.96250  0.19795  0.69080  1.0000
  C   C2675     1.0  0.70791  0.47907  0.69578  1.0000
  H   H4794     1.0  0.97721  0.23837  0.64597  1.0000
  S   S601      1.0  0.98004  0.27765  0.57709  1.0000
  H   H4795     1.0  0.69506  0.01907  0.53796  1.0000
  C   C2676     1.0  0.69075  0.14099  0.70360  1.0000
  H   H4796     1.0  0.81415  0.33019  0.70674  1.0000
  H   H4797     1.0  0.76141  0.31313  0.69198  1.0000
  C   C2677     1.0  0.96301  0.22826  0.67590  1.0000
  S   S602      1.0  0.98239  0.23377  0.61232  1.0000
  C   C2678     1.0  0.97926  0.30719  0.55085  1.0000
  C   C2679     1.0  0.96623  0.46366  0.47515  1.0000
  C   C2680     1.0  0.96794  0.13948  0.60492  1.0000
  S   S603      1.0  0.84302  0.98680  0.47615  1.0000
  C   C2681     1.0  0.81607  0.44632  0.53301  1.0000
  H   H4798     1.0  0.70353  0.38650  0.67017  1.0000
  H   H4799     1.0  0.65855  0.47574  0.65557  1.0000
  H   H4800     1.0  0.67749  0.37009  0.71536  1.0000
  C   C2682     1.0  0.77333  0.47176  0.51160  1.0000
  H   H4801     1.0  0.82551  0.29310  0.71451  1.0000
  C   C2683     1.0  0.77491  0.46322  0.57511  1.0000
  C   C2684     1.0  0.80669  0.32214  0.71750  1.0000
  H   H4802     1.0  0.69560  0.31326  0.70537  1.0000
  C   C2685     1.0  0.93374  0.48493  0.48250  1.0000
  H   H4803     1.0  0.75789  0.32250  0.71090  1.0000
  N   N149      1.0  0.82173  0.46260  0.54105  1.0000
  H   H4804     1.0  0.80693  0.05870  0.48563  1.0000
  H   H4805     1.0  0.92912  0.20757  0.70755  1.0000
  H   H4806     1.0  0.65956  0.18575  0.59481  1.0000
  C   C2686     1.0  0.84750  0.00254  0.52063  1.0000
  H   H4807     1.0  0.85749  0.99673  0.52996  1.0000
  C   C2687     1.0  0.65885  0.39043  0.69862  1.0000
  H   H4808     1.0  0.71167  0.44904  0.52546  1.0000
  H   H4809     1.0  0.77694  0.00619  0.64564  1.0000
  H   H4810     1.0  0.79196  0.02140  0.56621  1.0000
  H   H4811     1.0  0.88690  0.08745  0.50596  1.0000
  H   H4812     1.0  0.66884  0.40249  0.69640  1.0000
  H   H4813     1.0  0.86332  0.09865  0.49856  1.0000
  H   H4814     1.0  0.65638  0.16570  0.61140  1.0000
  H   H4815     1.0  0.69004  0.99731  0.55260  1.0000
  H   H4816     1.0  0.97548  0.20622  0.64442  1.0000
  C   C2688     1.0  0.71624  0.45681  0.50006  1.0000
  C   C2689     1.0  0.98188  0.28614  0.55638  1.0000
  C   C2690     1.0  0.71202  0.47888  0.71279  1.0000
  H   H4817     1.0  0.75258  0.98774  0.54665  1.0000
  C   C2691     1.0  0.70377  0.45970  0.51632  1.0000
  C   C2692     1.0  0.69722  0.14163  0.71815  1.0000
  H   H4818     1.0  0.97651  0.16967  0.64382  1.0000
  H   H4819     1.0  0.86758  0.14480  0.47420  1.0000
  C   C2693     1.0  0.82686  0.48061  0.52886  1.0000
  H   H4820     1.0  0.71082  0.48352  0.63866  1.0000
  C   C2694     1.0  0.74313  0.48280  0.63403  1.0000
  S   S604      1.0  0.72409  0.48336  0.59237  1.0000
  H   H4821     1.0  0.98783  0.25606  0.54949  1.0000
  H   H4822     1.0  0.90651  0.09513  0.47975  1.0000
  C   C2695     1.0  0.89077  0.10332  0.48175  1.0000
  C   C2696     1.0  0.98692  0.17466  0.65070  1.0000
  C   C2697     1.0  0.78136  0.98511  0.51004  1.0000
  C   C2698     1.0  0.83546  0.98501  0.52044  1.0000
  S   S605      1.0  0.89998  0.20111  0.75321  1.0000
  H   H4823     1.0  0.73060  0.47592  0.80755  1.0000
  H   H4824     1.0  0.79348  0.14723  0.73619  1.0000
  Fe  Fe304     1.0  0.96555  0.21651  0.83799  1.0000
  S   S606      1.0  0.94874  0.24841  0.83250  1.0000
  S   S607      1.0  0.94643  0.19445  0.85496  1.0000
  Fe  Fe305     1.0  0.96065  0.24544  0.80686  1.0000
  S   S608      1.0  0.94119  0.25748  0.78700  1.0000
  C   C2699     1.0  0.68155  0.11799  0.76904  1.0000
  C   C2700     1.0  0.70164  0.47329  0.92609  1.0000
  H   H4825     1.0  0.83298  0.28686  0.75841  1.0000
  H   H4826     1.0  0.71755  0.44015  0.88807  1.0000
  C   C2701     1.0  0.89729  0.47552  0.89510  1.0000
  Fe  Fe306     1.0  0.94053  0.07496  0.88439  1.0000
  S   S609      1.0  0.90644  0.08077  0.88989  1.0000
  S   S610      1.0  0.96090  0.09683  0.86879  1.0000
  Fe  Fe307     1.0  0.94278  0.03151  0.90317  1.0000
  S   S611      1.0  0.90876  0.03445  0.90990  1.0000
  S   S612      1.0  0.96019  0.00236  0.91485  1.0000
  Fe  Fe308     1.0  0.90709  0.04881  0.88454  1.0000
  S   S613      1.0  0.88656  0.04326  0.86745  1.0000
  Fe  Fe309     1.0  0.91105  0.06568  0.91481  1.0000
  S   S614      1.0  0.89216  0.07691  0.93696  1.0000
  S   S615      1.0  0.94114  0.04384  0.87736  1.0000
  S   S616      1.0  0.94512  0.06194  0.90978  1.0000
  H   H4827     1.0  0.89297  0.32514  0.78726  1.0000
  H   H4828     1.0  0.69840  0.25445  0.74864  1.0000
  H   H4829     1.0  0.72040  0.12294  0.76888  1.0000
  C   C2702     1.0  0.70610  0.42809  0.85400  1.0000
  H   H4830     1.0  0.71846  0.30211  0.75623  1.0000
  H   H4831     1.0  0.98626  0.12577  0.85121  1.0000
  C   C2703     1.0  0.98043  0.98683  0.90477  1.0000
  H   H4832     1.0  0.88990  0.28598  0.72283  1.0000
  S   S617      1.0  0.78744  0.02865  0.80531  1.0000
  H   H4833     1.0  0.95012  0.12305  0.95550  1.0000
  H   H4834     1.0  0.70794  0.41893  0.88394  1.0000
  S   S618      1.0  0.77940  0.00227  0.85030  1.0000
  H   H4835     1.0  0.87084  0.27032  0.77559  1.0000
  S   S619      1.0  0.69932  0.40135  0.74543  1.0000
  C   C2704     1.0  0.65721  0.39201  0.72807  1.0000
  S   S620      1.0  0.73776  0.36961  0.75720  1.0000
  H   H4836     1.0  0.67349  0.07026  0.74141  1.0000
  Fe  Fe310     1.0  0.71025  0.36780  0.74583  1.0000
  S   S621      1.0  0.68838  0.34450  0.75453  1.0000
  Fe  Fe311     1.0  0.72821  0.40398  0.75453  1.0000
  S   S622      1.0  0.72293  0.42741  0.77235  1.0000
  C   C2705     1.0  0.84342  0.28872  0.76664  1.0000
  H   H4837     1.0  0.87769  0.33818  0.76229  1.0000
  C   C2706     1.0  0.75664  0.45240  0.80634  1.0000
  C   C2707     1.0  0.73763  0.46226  0.80252  1.0000
  C   C2708     1.0  0.72766  0.45437  0.79213  1.0000
  C   C2709     1.0  0.73660  0.43675  0.78516  1.0000
  C   C2710     1.0  0.75569  0.42703  0.78888  1.0000
  C   C2711     1.0  0.76552  0.43472  0.79947  1.0000
  H   H4838     1.0  0.71328  0.43090  0.84131  1.0000
  H   H4839     1.0  0.71291  0.46205  0.78938  1.0000
  H   H4840     1.0  0.76280  0.41347  0.78372  1.0000
  H   H4841     1.0  0.78082  0.20379  0.74844  1.0000
  H   H4842     1.0  0.91228  0.14666  0.94166  1.0000
  H   H4843     1.0  0.76825  0.00703  0.95587  1.0000
  H   H4844     1.0  0.69050  0.29668  0.77776  1.0000
  H   H4845     1.0  0.67972  0.41777  0.90687  1.0000
  H   H4846     1.0  0.66710  0.40413  0.72513  1.0000
  H   H4847     1.0  0.95702  0.15351  0.91599  1.0000
  H   H4848     1.0  0.68267  0.07827  0.76642  1.0000
  H   H4849     1.0  0.66023  0.38294  0.73972  1.0000
  S   S623      1.0  0.97588  0.28956  0.84500  1.0000
  H   H4850     1.0  0.79303  0.00473  0.76606  1.0000
  C   C2712     1.0  0.75440  0.04033  0.76119  1.0000
  C   C2713     1.0  0.77160  0.04941  0.76111  1.0000
  C   C2714     1.0  0.78141  0.04596  0.77480  1.0000
  C   C2715     1.0  0.77436  0.03310  0.78853  1.0000
  C   C2716     1.0  0.75707  0.02415  0.78862  1.0000
  C   C2717     1.0  0.74717  0.02773  0.77501  1.0000
  H   H4851     1.0  0.77735  0.05907  0.75052  1.0000
  H   H4852     1.0  0.79472  0.05304  0.77467  1.0000
  H   H4853     1.0  0.73378  0.02075  0.77520  1.0000
  H   H4854     1.0  0.75211  0.15642  0.74407  1.0000
  H   H4855     1.0  0.70973  0.10160  0.79227  1.0000
  H   H4856     1.0  0.93784  0.16740  0.72153  1.0000
  Fe  Fe312     1.0  0.78576  0.00040  0.82398  1.0000
  H   H4857     1.0  0.75403  0.11722  0.74204  1.0000
  H   H4858     1.0  0.83367  0.28888  0.77845  1.0000
  C   C2718     1.0  0.66620  0.31698  0.74776  1.0000
  H   H4859     1.0  0.85218  0.30954  0.78669  1.0000
  C   C2719     1.0  0.90371  0.07878  0.95357  1.0000
  C   C2720     1.0  0.92487  0.07653  0.95268  1.0000
  H   H4860     1.0  0.68673  0.08008  0.72243  1.0000
  H   H4861     1.0  0.71883  0.23366  0.74814  1.0000
  H   H4862     1.0  0.93445  0.07238  0.94199  1.0000
  H   H4863     1.0  0.79862  0.46297  0.89025  1.0000
  C   C2721     1.0  0.93357  0.19077  0.90690  1.0000
  C   C2722     1.0  0.87021  0.02467  0.86878  1.0000
  C   C2723     1.0  0.86776  0.00957  0.88201  1.0000
  H   H4864     1.0  0.85321  0.28829  0.73478  1.0000
  H   H4865     1.0  0.73878  0.45437  0.86581  1.0000
  C   C2724     1.0  0.84624  0.01077  0.85642  1.0000
  C   C2725     1.0  0.85935  0.02517  0.85603  1.0000
  H   H4866     1.0  0.87565  0.00928  0.89204  1.0000
  C   C2726     1.0  0.75956  0.25434  0.73680  1.0000
  H   H4867     1.0  0.96601  0.18708  0.72095  1.0000
  H   H4868     1.0  0.86105  0.03683  0.84576  1.0000
  H   H4869     1.0  0.79514  0.03708  0.90757  1.0000
  C   C2727     1.0  0.71029  0.24601  0.74058  1.0000
  H   H4870     1.0  0.75848  0.11906  0.76189  1.0000
  H   H4871     1.0  0.92518  0.19183  0.77799  1.0000
  H   H4872     1.0  0.75129  0.01454  0.79923  1.0000
  H   H4873     1.0  0.94162  0.21349  0.79141  1.0000
  H   H4874     1.0  0.71657  0.11881  0.74983  1.0000
  H   H4875     1.0  0.86877  0.33299  0.79897  1.0000
  C   C2728     1.0  0.67196  0.17179  0.72236  1.0000
  H   H4876     1.0  0.91096  0.45667  0.86776  1.0000
  C   C2729     1.0  0.68180  0.32893  0.74195  1.0000
  H   H4877     1.0  0.69010  0.99126  0.88463  1.0000
  N   N150      1.0  0.69979  0.10134  0.76951  1.0000
  C   C2730     1.0  0.96729  0.21923  0.74285  1.0000
  C   C2731     1.0  0.83457  0.32534  0.75772  1.0000
  C   C2732     1.0  0.68312  0.42789  0.85430  1.0000
  C   C2733     1.0  0.95118  0.16734  0.85886  1.0000
  C   C2734     1.0  0.96934  0.15596  0.85273  1.0000
  H   H4878     1.0  0.95427  0.18297  0.75745  1.0000
  C   C2735     1.0  0.95663  0.12399  0.86500  1.0000
  C   C2736     1.0  0.93839  0.13539  0.87090  1.0000
  C   C2737     1.0  0.93594  0.15690  0.86825  1.0000
  H   H4879     1.0  0.74642  0.19004  0.72831  1.0000
  H   H4880     1.0  0.76266  0.02468  0.87823  1.0000
  H   H4881     1.0  0.92611  0.12759  0.87734  1.0000
  H   H4882     1.0  0.92204  0.16553  0.87336  1.0000
  H   H4883     1.0  0.79061  0.22654  0.75013  1.0000
  H   H4884     1.0  0.87620  0.30175  0.77605  1.0000
  H   H4885     1.0  0.82044  0.01453  0.77923  1.0000
  C   C2738     1.0  0.87857  0.33609  0.78734  1.0000
  C   C2739     1.0  0.94164  0.46196  0.86891  1.0000
  C   C2740     1.0  0.91040  0.21710  0.76306  1.0000
  C   C2741     1.0  0.90750  0.23830  0.75890  1.0000
  C   C2742     1.0  0.91665  0.25053  0.76660  1.0000
  C   C2743     1.0  0.92907  0.24165  0.77831  1.0000
  C   C2744     1.0  0.93199  0.22044  0.78246  1.0000
  C   C2745     1.0  0.92263  0.20823  0.77490  1.0000
  H   H4886     1.0  0.89855  0.24520  0.74953  1.0000
  H   H4887     1.0  0.91445  0.26693  0.76325  1.0000
  C   C2746     1.0  0.80395  0.29086  0.73601  1.0000
  C   C2747     1.0  0.71342  0.28682  0.75864  1.0000
  C   C2748     1.0  0.94016  0.13765  0.95219  1.0000
  C   C2749     1.0  0.86751  0.33437  0.77355  1.0000
  S   S624      1.0  0.74503  0.40968  0.72950  1.0000
  H   H4888     1.0  0.88029  0.47996  0.86781  1.0000
  H   H4889     1.0  0.79386  0.00812  0.88324  1.0000
  C   C2750     1.0  0.75953  0.23180  0.74445  1.0000
  H   H4890     1.0  0.96008  0.15400  0.82273  1.0000
  C   C2751     1.0  0.73198  0.27005  0.75549  1.0000
  H   H4891     1.0  0.92983  0.18915  0.89507  1.0000
  H   H4892     1.0  0.74442  0.27361  0.76122  1.0000
  H   H4893     1.0  0.84046  0.33990  0.75255  1.0000
  H   H4894     1.0  0.96629  0.43645  0.86933  1.0000
  H   H4895     1.0  0.82691  0.32172  0.74822  1.0000
  C   C2752     1.0  0.81734  0.32927  0.77177  1.0000
  H   H4896     1.0  0.73917  0.44670  0.84688  1.0000
  H   H4897     1.0  0.72752  0.02807  0.87214  1.0000
  C   C2753     1.0  0.88518  0.12919  0.90680  1.0000
  H   H4898     1.0  0.93996  0.46108  0.88207  1.0000
  C   C2754     1.0  0.70315  0.28391  0.77594  1.0000
  H   H4899     1.0  0.78523  0.12133  0.72160  1.0000
  H   H4900     1.0  0.78019  0.42692  0.80230  1.0000
  H   H4901     1.0  0.92484  0.02785  0.84747  1.0000
  H   H4902     1.0  0.82529  0.03428  0.88671  1.0000
  C   C2755     1.0  0.79306  0.03394  0.89571  1.0000
  H   H4903     1.0  0.94272  0.19735  0.73243  1.0000
  H   H4904     1.0  0.75300  0.23048  0.75725  1.0000
  H   H4905     1.0  0.89484  0.98578  0.92302  1.0000
  H   H4906     1.0  0.77969  0.40944  0.86533  1.0000
  C   C2756     1.0  0.93824  0.99571  0.84900  1.0000
  H   H4907     1.0  0.72869  0.04242  0.88790  1.0000
  H   H4908     1.0  0.87502  0.08543  0.96848  1.0000
  C   C2757     1.0  0.97208  0.13441  0.85590  1.0000
  H   H4909     1.0  0.95060  0.13121  0.82035  1.0000
  H   H4910     1.0  0.71881  0.01834  0.89249  1.0000
  H   H4911     1.0  0.96463  0.14527  0.80359  1.0000
  H   H4912     1.0  0.65805  0.31787  0.75966  1.0000
  H   H4913     1.0  0.94065  0.02082  0.82959  1.0000
  H   H4914     1.0  0.93152  0.17543  0.93099  1.0000
  H   H4915     1.0  0.97708  0.44805  0.94059  1.0000
  H   H4916     1.0  0.79011  0.35089  0.77736  1.0000
  H   H4917     1.0  0.91295  0.47673  0.91510  1.0000
  H   H4918     1.0  0.95282  0.22056  0.75121  1.0000
  H   H4919     1.0  0.70192  0.28695  0.75076  1.0000
  H   H4920     1.0  0.66313  0.41406  0.84327  1.0000
  H   H4921     1.0  0.94154  0.42921  0.87033  1.0000
  H   H4922     1.0  0.69919  0.05973  0.78885  1.0000
  H   H4923     1.0  0.84023  0.99551  0.77127  1.0000
  H   H4924     1.0  0.71054  0.22623  0.72286  1.0000
  C   C2758     1.0  0.74782  0.42197  0.86481  1.0000
  H   H4925     1.0  0.78074  0.29361  0.75642  1.0000
  C   C2759     1.0  0.68769  0.15683  0.72756  1.0000
  H   H4926     1.0  0.87073  0.13976  0.90560  1.0000
  C   C2760     1.0  0.67171  0.30236  0.72301  1.0000
  C   C2761     1.0  0.69634  0.08518  0.76033  1.0000
  C   C2762     1.0  0.70112  0.09243  0.78681  1.0000
  C   C2763     1.0  0.73900  0.09655  0.76103  1.0000
  C   C2764     1.0  0.69356  0.09210  0.74255  1.0000
  C   C2765     1.0  0.71029  0.06951  0.79036  1.0000
  C   C2766     1.0  0.71516  0.06390  0.80745  1.0000
  C   C2767     1.0  0.75662  0.10839  0.75382  1.0000
  H   H4927     1.0  0.92468  0.20517  0.91059  1.0000
  C   C2768     1.0  0.69230  0.32754  0.72659  1.0000
  H   H4928     1.0  0.70918  0.07240  0.76027  1.0000
  H   H4929     1.0  0.73897  0.08472  0.75347  1.0000
  H   H4930     1.0  0.74228  0.08928  0.77306  1.0000
  H   H4931     1.0  0.70787  0.09658  0.73560  1.0000
  H   H4932     1.0  0.72155  0.18643  0.72536  1.0000
  H   H4933     1.0  0.72443  0.06535  0.78230  1.0000
  H   H4934     1.0  0.72714  0.07245  0.80927  1.0000
  H   H4935     1.0  0.79675  0.34881  0.75644  1.0000
  H   H4936     1.0  0.68108  0.10500  0.74095  1.0000
  H   H4937     1.0  0.77101  0.09756  0.75218  1.0000
  H   H4938     1.0  0.72101  0.04732  0.80972  1.0000
  C   C2769     1.0  0.80302  0.34904  0.76756  1.0000
  H   H4939     1.0  0.77520  0.42943  0.84895  1.0000
  C   C2770     1.0  0.93493  0.99177  0.86747  1.0000
  C   C2771     1.0  0.84960  0.25019  0.77506  1.0000
  H   H4940     1.0  0.86755  0.26658  0.75595  1.0000
  H   H4941     1.0  0.86146  0.23646  0.77535  1.0000
  H   H4942     1.0  0.84196  0.25147  0.78743  1.0000
  H   H4943     1.0  0.83827  0.24807  0.76767  1.0000
  H   H4944     1.0  0.75312  0.02738  0.90802  1.0000
  C   C2772     1.0  0.95543  0.18439  0.73216  1.0000
  H   H4945     1.0  0.97177  0.32800  0.85673  1.0000
  H   H4946     1.0  0.79492  0.99523  0.92605  1.0000
  H   H4947     1.0  0.75627  0.48343  0.93670  1.0000
  Fe  Fe313     1.0  0.67391  0.46571  0.96525  1.0000
  C   C2773     1.0  0.76879  0.99118  0.95347  1.0000
  C   C2774     1.0  0.78118  0.22007  0.74334  1.0000
  H   H4948     1.0  0.70131  0.06727  0.81617  1.0000
  H   H4949     1.0  0.79461  0.44874  0.91010  1.0000
  H   H4950     1.0  0.68501  0.46130  0.89045  1.0000
  H   H4951     1.0  0.93499  0.16243  0.74298  1.0000
  H   H4952     1.0  0.70949  0.13039  0.72211  1.0000
  H   H4953     1.0  0.98613  0.17592  0.79418  1.0000
  H   H4954     1.0  0.74391  0.00370  0.91076  1.0000
  C   C2775     1.0  0.89959  0.13936  0.91384  1.0000
  H   H4955     1.0  0.90259  0.15324  0.90534  1.0000
  H   H4956     1.0  0.87319  0.32255  0.74301  1.0000
  H   H4957     1.0  0.80872  0.00320  0.89888  1.0000
  H   H4958     1.0  0.98270  0.08323  0.91727  1.0000
  H   H4959     1.0  0.71260  0.41213  0.85830  1.0000
  N   N151      1.0  0.97984  0.19850  0.74653  1.0000
  C   C2776     1.0  0.95143  0.44087  0.86476  1.0000
  S   S625      1.0  0.81937  0.17798  0.72749  1.0000
  H   H4960     1.0  0.78853  0.22067  0.73071  1.0000
  C   C2777     1.0  0.73039  0.02681  0.88467  1.0000
  H   H4961     1.0  0.72835  0.17060  0.75197  1.0000
  C   C2778     1.0  0.85483  0.99497  0.88232  1.0000
  S   S626      1.0  0.81229  0.26497  0.74274  1.0000
  H   H4962     1.0  0.97525  0.00234  0.94713  1.0000
  N   N152      1.0  0.73936  0.26823  0.73812  1.0000
  H   H4963     1.0  0.72823  0.15061  0.74034  1.0000
  H   H4964     1.0  0.88914  0.46696  0.92057  1.0000
  H   H4965     1.0  0.66632  0.44154  0.91284  1.0000
  H   H4966     1.0  0.96636  0.44943  0.91546  1.0000
  H   H4967     1.0  0.94959  0.25991  0.74337  1.0000
  C   C2779     1.0  0.72033  0.47901  0.89916  1.0000
  H   H4968     1.0  0.97256  0.27107  0.73710  1.0000
  H   H4969     1.0  0.77851  0.04286  0.89252  1.0000
  H   H4970     1.0  0.96282  0.22114  0.73074  1.0000
  H   H4971     1.0  0.79833  0.00157  0.73494  1.0000
  C   C2780     1.0  0.71845  0.11092  0.76206  1.0000
  H   H4972     1.0  0.88138  0.29657  0.74964  1.0000
  C   C2781     1.0  0.97344  0.45728  0.90448  1.0000
  S   S627      1.0  0.66035  0.19031  0.73479  1.0000
  H   H4973     1.0  0.69336  0.14372  0.77568  1.0000
  H   H4974     1.0  0.95229  0.02324  0.84649  1.0000
  Fe  Fe314     1.0  0.75277  0.37521  0.73167  1.0000
  H   H4975     1.0  0.88153  0.11503  0.91470  1.0000
  H   H4976     1.0  0.94999  0.14921  0.94632  1.0000
  C   C2782     1.0  0.89717  0.47857  0.91235  1.0000
  H   H4977     1.0  0.68885  0.22626  0.73825  1.0000
  C   C2783     1.0  0.68043  0.13497  0.77960  1.0000
  C   C2784     1.0  0.96241  0.02392  0.96390  1.0000
  H   H4978     1.0  0.74399  0.41613  0.87764  1.0000
  H   H4979     1.0  0.76865  0.33031  0.74818  1.0000
  H   H4980     1.0  0.70231  0.46349  0.83331  1.0000
  H   H4981     1.0  0.75192  0.29626  0.73673  1.0000
  C   C2785     1.0  0.67969  0.41424  0.84269  1.0000
  H   H4982     1.0  0.80818  0.31652  0.77449  1.0000
  C   C2786     1.0  0.93905  0.01830  0.84283  1.0000
  H   H4983     1.0  0.91946  0.00008  0.87092  1.0000
  C   C2787     1.0  0.96503  0.25784  0.73639  1.0000
  H   H4984     1.0  0.66041  0.15770  0.76580  1.0000
  C   C2788     1.0  0.70585  0.47349  0.84121  1.0000
  C   C2789     1.0  0.68531  0.44485  0.88976  1.0000
  H   H4985     1.0  0.81120  0.36243  0.76589  1.0000
  H   H4986     1.0  0.82332  0.33060  0.78275  1.0000
  C   C2790     1.0  0.86186  0.31262  0.77497  1.0000
  H   H4987     1.0  0.85370  0.34607  0.77393  1.0000
  S   S628      1.0  0.84318  0.21313  0.74436  1.0000
  C   C2791     1.0  0.68820  0.07482  0.73523  1.0000
  H   H4988     1.0  0.91171  0.17257  0.92044  1.0000
  H   H4989     1.0  0.80942  0.05862  0.88349  1.0000
  C   C2792     1.0  0.73644  0.16305  0.74165  1.0000
  S   S629      1.0  0.74119  0.04436  0.74452  1.0000
  Fe  Fe315     1.0  0.87645  0.21359  0.73636  1.0000
  N   N153      1.0  0.89831  0.17646  0.82315  1.0000
  C   C2793     1.0  0.88257  0.17239  0.83756  1.0000
  C   C2794     1.0  0.88980  0.17414  0.80843  1.0000
  C   C2795     1.0  0.91668  0.16016  0.82484  1.0000
  C   C2796     1.0  0.90506  0.19714  0.82160  1.0000
  C   C2797     1.0  0.88907  0.21485  0.82751  1.0000
  C   C2798     1.0  0.89020  0.17027  0.85391  1.0000
  C   C2799     1.0  0.93368  0.15987  0.81019  1.0000
  C   C2800     1.0  0.87108  0.18969  0.80405  1.0000
  C   C2801     1.0  0.86216  0.18363  0.79056  1.0000
  C   C2802     1.0  0.89659  0.23542  0.82187  1.0000
  C   C2803     1.0  0.87258  0.17210  0.86757  1.0000
  C   C2804     1.0  0.95341  0.14674  0.81453  1.0000
  H   H4990     1.0  0.87662  0.15795  0.83730  1.0000
  H   H4991     1.0  0.86903  0.18435  0.83744  1.0000
  H   H4992     1.0  0.90136  0.17580  0.79764  1.0000
  H   H4993     1.0  0.88592  0.15841  0.80952  1.0000
  H   H4994     1.0  0.91199  0.14467  0.82761  1.0000
  H   H4995     1.0  0.92409  0.16187  0.83513  1.0000
  H   H4996     1.0  0.91821  0.19626  0.82821  1.0000
  H   H4997     1.0  0.91097  0.20213  0.80896  1.0000
  H   H4998     1.0  0.88628  0.21278  0.84075  1.0000
  H   H4999     1.0  0.87428  0.21581  0.82326  1.0000
  H   H5000     1.0  0.89933  0.15495  0.85637  1.0000
  H   H5001     1.0  0.89991  0.18202  0.85398  1.0000
  H   H5002     1.0  0.93716  0.17546  0.80533  1.0000
  H   H5003     1.0  0.92892  0.15322  0.80063  1.0000
  H   H5004     1.0  0.85872  0.19080  0.81426  1.0000
  H   H5005     1.0  0.87575  0.20497  0.79972  1.0000
  H   H5006     1.0  0.87393  0.18190  0.77997  1.0000
  H   H5007     1.0  0.85599  0.16901  0.79452  1.0000
  H   H5008     1.0  0.84961  0.19565  0.78692  1.0000
  H   H5009     1.0  0.91141  0.23530  0.82596  1.0000
  H   H5010     1.0  0.89846  0.23888  0.80864  1.0000
  H   H5011     1.0  0.88543  0.24776  0.82687  1.0000
  H   H5012     1.0  0.86274  0.16025  0.86805  1.0000
  H   H5013     1.0  0.87873  0.16988  0.87907  1.0000
  H   H5014     1.0  0.86333  0.18749  0.86605  1.0000
  H   H5015     1.0  0.74591  0.41027  0.85766  1.0000
  H   H5016     1.0  0.72819  0.25536  0.76232  1.0000
  S   S630      1.0  0.78363  0.35930  0.72156  1.0000
  N   N154      1.0  0.93483  0.13261  0.92394  1.0000
  C   C2805     1.0  0.77525  0.99864  0.72150  1.0000
  C   C2806     1.0  0.91984  0.12498  0.91592  1.0000
  C   C2807     1.0  0.95357  0.11658  0.92416  1.0000
  C   C2808     1.0  0.94105  0.15237  0.91475  1.0000
  C   C2809     1.0  0.92828  0.17264  0.91934  1.0000
  H   H5017     1.0  0.70027  0.06133  0.73602  1.0000
  C   C2810     1.0  0.96470  0.11140  0.90764  1.0000
  H   H5018     1.0  0.80891  0.03927  0.87137  1.0000
  H   H5019     1.0  0.89151  0.14374  0.92539  1.0000
  Fe  Fe316     1.0  0.97784  0.26021  0.83382  1.0000
  C   C2811     1.0  0.98558  0.19698  0.76302  1.0000
  C   C2812     1.0  0.69937  0.23599  0.73042  1.0000
  H   H5020     1.0  0.69674  0.26934  0.77874  1.0000
  C   C2813     1.0  0.84397  0.99552  0.86954  1.0000
  H   H5021     1.0  0.92656  0.12205  0.90374  1.0000
  H   H5022     1.0  0.91619  0.10996  0.92245  1.0000
  H   H5023     1.0  0.94973  0.10208  0.93146  1.0000
  H   H5024     1.0  0.68053  0.12857  0.79237  1.0000
  H   H5025     1.0  0.94664  0.02305  0.96217  1.0000
  H   H5026     1.0  0.94130  0.15244  0.90172  1.0000
  C   C2814     1.0  0.75184  0.01552  0.88621  1.0000
  C   C2815     1.0  0.81022  0.04195  0.88357  1.0000
  H   H5027     1.0  0.68565  0.09344  0.79396  1.0000
  C   C2816     1.0  0.86763  0.30760  0.74688  1.0000
  C   C2817     1.0  0.96777  0.47837  0.90051  1.0000
  H   H5028     1.0  0.95550  0.10300  0.90220  1.0000
  C   C2818     1.0  0.85947  0.26916  0.76794  1.0000
  H   H5029     1.0  0.72834  0.29969  0.72942  1.0000
  H   H5030     1.0  0.89357  0.47602  0.84017  1.0000
  H   H5031     1.0  0.89208  0.12538  0.89479  1.0000
  S   S631      1.0  0.69895  0.45789  0.94489  1.0000
  C   C2819     1.0  0.70164  0.46439  0.85908  1.0000
  C   C2820     1.0  0.66115  0.30377  0.73835  1.0000
  H   H5032     1.0  0.95236  0.47284  0.86345  1.0000
  Fe  Fe317     1.0  0.84213  0.20069  0.72182  1.0000
  N   N155      1.0  0.85182  0.30860  0.76154  1.0000
  C   C2821     1.0  0.78101  0.32226  0.74081  1.0000
  C   C2822     1.0  0.73438  0.44257  0.85990  1.0000
  H   H5033     1.0  0.72696  0.45246  0.91653  1.0000
  C   C2823     1.0  0.97626  0.01817  0.94882  1.0000
  H   H5034     1.0  0.88238  0.35178  0.78613  1.0000
  H   H5035     1.0  0.69247  0.15709  0.73892  1.0000
  H   H5036     1.0  0.77720  0.01789  0.92602  1.0000
  C   C2824     1.0  0.98503  0.09762  0.90917  1.0000
  C   C2825     1.0  0.79357  0.01074  0.89576  1.0000
  C   C2826     1.0  0.92079  0.46859  0.86269  1.0000
  H   H5037     1.0  0.70652  0.47471  0.86616  1.0000
  H   H5038     1.0  0.75311  0.00063  0.88191  1.0000
  C   C2827     1.0  0.96643  0.18248  0.74694  1.0000
  C   C2828     1.0  0.80089  0.14595  0.72414  1.0000
  H   H5039     1.0  0.95810  0.15172  0.73123  1.0000
  N   N156      1.0  0.71163  0.44272  0.86358  1.0000
  C   C2829     1.0  0.78701  0.45705  0.89987  1.0000
  S   S632      1.0  0.97607  0.21316  0.81210  1.0000
  H   H5040     1.0  0.77968  0.44613  0.89517  1.0000
  H   H5041     1.0  0.98129  0.16374  0.84558  1.0000
  C   C2830     1.0  0.71724  0.46689  0.91414  1.0000
  C   C2831     1.0  0.78789  0.30148  0.74544  1.0000
  H   H5042     1.0  0.90512  0.45985  0.89378  1.0000
  C   C2832     1.0  0.73730  0.17863  0.72651  1.0000
  H   H5043     1.0  0.83798  0.01142  0.84651  1.0000
  C   C2833     1.0  0.92550  0.13433  0.94102  1.0000
  H   H5044     1.0  0.71419  0.28397  0.78421  1.0000
  C   C2834     1.0  0.81317  0.30117  0.72189  1.0000
  H   H5045     1.0  0.75081  0.22415  0.73793  1.0000
  H   H5046     1.0  0.72201  0.47572  0.83785  1.0000
  C   C2835     1.0  0.86050  0.30229  0.73199  1.0000
  C   C2836     1.0  0.75602  0.01225  0.90373  1.0000
  S   S633      1.0  0.66197  0.99730  0.96873  1.0000
  H   H5047     1.0  0.71349  0.27396  0.72490  1.0000
  C   C2837     1.0  0.77088  0.47451  0.90512  1.0000
  H   H5048     1.0  0.77333  0.43563  0.86891  1.0000
  C   C2838     1.0  0.77036  0.42434  0.86181  1.0000
  H   H5049     1.0  0.68102  0.12623  0.75674  1.0000
  C   C2839     1.0  0.74303  0.28925  0.72981  1.0000
  H   H5050     1.0  0.96528  0.41478  0.94856  1.0000
  Fe  Fe318     1.0  0.83776  0.24413  0.73000  1.0000
  H   H5051     1.0  0.66051  0.16241  0.78582  1.0000
  S   S634      1.0  0.76975  0.46101  0.81992  1.0000
  H   H5052     1.0  0.67275  0.44352  0.88336  1.0000
  H   H5053     1.0  0.76366  0.48193  0.89454  1.0000
  H   H5054     1.0  0.91897  0.12021  0.94659  1.0000
  H   H5055     1.0  0.96516  0.12148  0.92995  1.0000
  H   H5056     1.0  0.95004  0.19193  0.90568  1.0000
  S   S635      1.0  0.87129  0.24567  0.72385  1.0000
  H   H5057     1.0  0.68582  0.42013  0.83024  1.0000
  C   C2840     1.0  0.72417  0.26086  0.73005  1.0000
  H   H5058     1.0  0.74807  0.99954  0.93629  1.0000
  H   H5059     1.0  0.66720  0.11116  0.77251  1.0000
  H   H5060     1.0  0.94994  0.07943  0.96444  1.0000
  C   C2841     1.0  0.70644  0.43590  0.88136  1.0000
  H   H5061     1.0  0.92377  0.46778  0.84964  1.0000
  H   H5062     1.0  0.96369  0.25767  0.72369  1.0000
  C   C2842     1.0  0.77915  0.00179  0.92377  1.0000
  H   H5063     1.0  0.95424  0.44101  0.85162  1.0000
  H   H5064     1.0  0.88119  0.47653  0.89335  1.0000
  H   H5065     1.0  0.98367  0.00792  0.88301  1.0000
  H   H5066     1.0  0.69027  0.24773  0.72269  1.0000
  H   H5067     1.0  0.77078  0.26072  0.74203  1.0000
  C   C2843     1.0  0.98755  0.32119  0.85662  1.0000
  H   H5068     1.0  0.67491  0.44334  0.85077  1.0000
  H   H5069     1.0  0.75935  0.46765  0.91422  1.0000
  H   H5070     1.0  0.67628  0.42160  0.86639  1.0000
  H   H5071     1.0  0.73222  0.47385  0.89000  1.0000
  H   H5072     1.0  0.68488  0.46594  0.86225  1.0000
  H   H5073     1.0  0.97899  0.23968  0.75564  1.0000
  C   C2844     1.0  0.97823  0.41802  0.95375  1.0000
  H   H5074     1.0  0.78953  0.48161  0.92113  1.0000
  C   C2845     1.0  0.76377  0.99126  0.93674  1.0000
  C   C2846     1.0  0.97760  0.23811  0.74320  1.0000
  C   C2847     1.0  0.98810  0.44620  0.89431  1.0000
  H   H5075     1.0  0.96775  0.12536  0.89925  1.0000
  Fe  Fe319     1.0  0.71668  0.40518  0.72068  1.0000
  H   H5076     1.0  0.70446  0.33644  0.72203  1.0000
  H   H5077     1.0  0.97502  0.16686  0.74873  1.0000
  H   H5078     1.0  0.76623  0.99851  0.75393  1.0000
  N   N157      1.0  0.77678  0.00108  0.90672  1.0000
  H   H5079     1.0  0.84944  0.31507  0.72711  1.0000
  H   H5080     1.0  0.97159  0.19914  0.77191  1.0000
  C   C2848     1.0  0.82754  0.99827  0.78108  1.0000
  H   H5081     1.0  0.69313  0.43496  0.91387  1.0000
  C   C2849     1.0  0.68094  0.43406  0.90685  1.0000
  C   C2850     1.0  0.79060  0.33277  0.72694  1.0000
  H   H5082     1.0  0.80028  0.98652  0.79239  1.0000
  H   H5083     1.0  0.97140  0.02868  0.93824  1.0000
  C   C2851     1.0  0.66095  0.15029  0.77835  1.0000
  H   H5084     1.0  0.68722  0.39833  0.84581  1.0000
  C   C2852     1.0  0.93360  0.08035  0.96547  1.0000
  H   H5085     1.0  0.76513  0.01268  0.72476  1.0000
  H   H5086     1.0  0.94575  0.99969  0.87185  1.0000
  C   C2853     1.0  0.94609  0.16525  0.73202  1.0000
  H   H5087     1.0  0.91179  0.99753  0.89651  1.0000
  H   H5088     1.0  0.83387  0.99535  0.79253  1.0000
  C   C2854     1.0  0.78887  0.98978  0.73434  1.0000
  H   H5089     1.0  0.92525  0.99155  0.84441  1.0000
  H   H5090     1.0  0.95266  0.98708  0.84383  1.0000
  H   H5091     1.0  0.96377  0.03988  0.96475  1.0000
  C   C2855     1.0  0.80154  0.98893  0.76629  1.0000
  H   H5092     1.0  0.81408  0.98970  0.75607  1.0000
  H   H5093     1.0  0.97229  0.42332  0.96547  1.0000
  H   H5094     1.0  0.91906  0.15963  0.96529  1.0000
  C   C2856     1.0  0.89141  0.08370  0.96770  1.0000
  C   C2857     1.0  0.92844  0.14445  0.96771  1.0000
  H   H5095     1.0  0.76605  0.25356  0.72411  1.0000
  S   S636      1.0  0.72586  0.37146  0.72064  1.0000
  S   S637      1.0  0.76562  0.48425  0.85948  1.0000
  Fe  Fe320     1.0  0.74889  0.06405  0.72060  1.0000
  S   S638      1.0  0.98829  0.25973  0.80757  1.0000
  H   H5096     1.0  0.76971  0.98503  0.78554  1.0000
  H   H5097     1.0  0.93279  0.50182  0.98028  1.0000
  C   C2858     1.0  0.81529  0.56970  0.15296  1.0000
  S   S639      1.0  0.96189  0.69786  0.16002  1.0000
  H   H5098     1.0  0.72141  0.79855  0.21304  1.0000
  H   H5099     1.0  0.67300  0.87151  0.20069  1.0000
  C   C2859     1.0  0.78709  0.52887  0.00666  1.0000
  Fe  Fe321     1.0  0.76052  0.56086  0.20587  1.0000
  S   S640      1.0  0.77124  0.53383  0.19177  1.0000
  H   H5100     1.0  0.76981  0.50859  0.99887  1.0000
  H   H5101     1.0  0.89473  0.72478  0.15834  1.0000
  S   S641      1.0  0.78013  0.84361  0.21164  1.0000
  S   S642      1.0  0.78316  0.50616  0.08306  1.0000
  H   H5102     1.0  0.78991  0.56444  0.06928  1.0000
  Fe  Fe322     1.0  0.76740  0.49898  0.10810  1.0000
  S   S643      1.0  0.75534  0.52598  0.12171  1.0000
  H   H5103     1.0  0.79396  0.51165  0.98648  1.0000
  H   H5104     1.0  0.83941  0.53026  0.11127  1.0000
  C   C2860     1.0  0.85929  0.54269  0.02126  1.0000
  C   C2861     1.0  0.75282  0.80215  0.21182  1.0000
  S   S644      1.0  0.75509  0.96644  0.11739  1.0000
  H   H5105     1.0  0.97132  0.97073  0.99760  1.0000
  H   H5106     1.0  0.71779  0.69214  0.20616  1.0000
  Fe  Fe323     1.0  0.71957  0.89502  0.19785  1.0000
  C   C2862     1.0  0.66421  0.49554  0.05847  1.0000
  S   S645      1.0  0.70703  0.91417  0.17603  1.0000
  H   H5107     1.0  0.82645  0.53818  0.15220  1.0000
  C   C2863     1.0  0.80102  0.54440  0.05133  1.0000
  S   S646      1.0  0.67156  0.96907  0.01369  1.0000
  C   C2864     1.0  0.66783  0.51326  0.09251  1.0000
  S   S647      1.0  0.72545  0.86063  0.20141  1.0000
  Fe  Fe324     1.0  0.95040  0.58372  0.06357  1.0000
  S   S648      1.0  0.93735  0.55574  0.07687  1.0000
  S   S649      1.0  0.95873  0.60309  0.08092  1.0000
  Fe  Fe325     1.0  0.94922  0.56933  0.03126  1.0000
  S   S650      1.0  0.93659  0.54070  0.04263  1.0000
  S   S651      1.0  0.95899  0.57373  0.00434  1.0000
  Fe  Fe326     1.0  0.91580  0.56072  0.05878  1.0000
  S   S652      1.0  0.88161  0.55964  0.06467  1.0000
  Fe  Fe327     1.0  0.95920  0.53794  0.05958  1.0000
  H   H5108     1.0  0.80093  0.54495  0.14851  1.0000
  S   S653      1.0  0.92706  0.59006  0.04644  1.0000
  S   S654      1.0  0.97351  0.56521  0.04729  1.0000
  C   C2865     1.0  0.94293  0.56965  0.99118  1.0000
  C   C2866     1.0  0.92200  0.56994  0.99586  1.0000
  H   H5109     1.0  0.91531  0.57256  0.00785  1.0000
  H   H5110     1.0  0.77470  0.67816  0.19113  1.0000
  H   H5111     1.0  0.97436  0.56153  0.09575  1.0000
  H   H5112     1.0  0.85063  0.60103  0.10304  1.0000
  C   C2867     1.0  0.72095  0.95355  0.20288  1.0000
  H   H5113     1.0  0.66180  0.91173  0.12453  1.0000
  C   C2868     1.0  0.72075  0.92828  0.15971  1.0000
  C   C2869     1.0  0.74187  0.92740  0.15809  1.0000
  C   C2870     1.0  0.75212  0.93902  0.14498  1.0000
  C   C2871     1.0  0.74138  0.95189  0.13350  1.0000
  C   C2872     1.0  0.72024  0.95276  0.13512  1.0000
  C   C2873     1.0  0.71001  0.94100  0.14816  1.0000
  H   H5114     1.0  0.75032  0.91767  0.16688  1.0000
  H   H5115     1.0  0.76849  0.93813  0.14376  1.0000
  H   H5116     1.0  0.71181  0.96246  0.12631  1.0000
  H   H5117     1.0  0.69366  0.94187  0.14934  1.0000
  C   C2874     1.0  0.85160  0.50133  0.07864  1.0000
  C   C2875     1.0  0.83995  0.52064  0.07893  1.0000
  C   C2876     1.0  0.84931  0.53831  0.07422  1.0000
  C   C2877     1.0  0.87051  0.53689  0.06975  1.0000
  C   C2878     1.0  0.88221  0.51756  0.06964  1.0000
  C   C2879     1.0  0.87275  0.49988  0.07398  1.0000
  H   H5118     1.0  0.82377  0.52192  0.08293  1.0000
  H   H5119     1.0  0.84012  0.55319  0.07418  1.0000
  H   H5120     1.0  0.89854  0.51624  0.06625  1.0000
  S   S655      1.0  0.80662  0.60686  0.21858  1.0000
  C   C2880     1.0  0.79305  0.53431  0.03915  1.0000
  H   H5121     1.0  0.67336  0.82777  0.16435  1.0000
  H   H5122     1.0  0.95893  0.49322  0.01747  1.0000
  C   C2881     1.0  0.97269  0.96347  0.02262  1.0000
  H   H5123     1.0  0.77974  0.52687  0.04539  1.0000
  H   H5124     1.0  0.86577  0.58833  0.08728  1.0000
  C   C2882     1.0  0.75414  0.97131  0.03360  1.0000
  C   C2883     1.0  0.96564  0.50439  0.97602  1.0000
  H   H5125     1.0  0.85702  0.55500  0.10104  1.0000
  C   C2884     1.0  0.76645  0.53197  0.17232  1.0000
  C   C2885     1.0  0.75524  0.54793  0.16330  1.0000
  C   C2886     1.0  0.75199  0.54583  0.14787  1.0000
  C   C2887     1.0  0.75985  0.52780  0.14124  1.0000
  C   C2888     1.0  0.77127  0.51192  0.15017  1.0000
  C   C2889     1.0  0.77453  0.51401  0.16561  1.0000
  H   H5126     1.0  0.74895  0.56184  0.16828  1.0000
  H   H5127     1.0  0.74315  0.55823  0.14108  1.0000
  H   H5128     1.0  0.77749  0.49800  0.14522  1.0000
  H   H5129     1.0  0.78327  0.50160  0.17246  1.0000
  C   C2890     1.0  0.97164  0.64085  0.06794  1.0000
  H   H5130     1.0  0.95250  0.67358  0.21365  1.0000
  C   C2891     1.0  0.68606  0.66221  0.19513  1.0000
  H   H5131     1.0  0.97918  0.76485  0.18736  1.0000
  H   H5132     1.0  0.86550  0.53862  0.00918  1.0000
  H   H5133     1.0  0.76891  0.96749  0.02606  1.0000
  N   N158      1.0  0.97162  0.50000  0.99264  1.0000
  H   H5134     1.0  0.83836  0.48751  0.02388  1.0000
  C   C2892     1.0  0.67888  0.50748  0.06415  1.0000
  C   C2893     1.0  0.68163  0.80631  0.19805  1.0000
  C   C2894     1.0  0.68601  0.82066  0.20677  1.0000
  H   H5135     1.0  0.89335  0.56799  0.98849  1.0000
  H   H5136     1.0  0.97051  0.63258  0.15785  1.0000
  C   C2895     1.0  0.95363  0.49798  0.00556  1.0000
  H   H5137     1.0  0.69122  0.80335  0.18701  1.0000
  H   H5138     1.0  0.69903  0.82848  0.20253  1.0000
  S   S656      1.0  0.67403  0.49054  0.97993  1.0000
  H   H5139     1.0  0.90767  0.52791  0.01828  1.0000
  H   H5140     1.0  0.88192  0.48499  0.07383  1.0000
  H   H5141     1.0  0.81028  0.80855  0.20744  1.0000
  C   C2896     1.0  0.96843  0.62624  0.08143  1.0000
  H   H5142     1.0  0.71630  0.49633  0.07634  1.0000
  H   H5143     1.0  0.85922  0.78303  0.21401  1.0000
  C   C2897     1.0  0.97987  0.68601  0.20225  1.0000
  H   H5144     1.0  0.67267  0.51062  0.10457  1.0000
  C   C2898     1.0  0.66858  0.67509  0.20093  1.0000
  C   C2899     1.0  0.93547  0.70731  0.08566  1.0000
  C   C2900     1.0  0.79738  0.51205  0.01873  1.0000
  H   H5145     1.0  0.67308  0.52411  0.06184  1.0000
  H   H5146     1.0  0.74842  0.81774  0.21513  1.0000
  C   C2901     1.0  0.94135  0.71093  0.17171  1.0000
  C   C2902     1.0  0.93127  0.69990  0.18517  1.0000
  C   C2903     1.0  0.91485  0.70968  0.19489  1.0000
  C   C2904     1.0  0.90817  0.73053  0.19100  1.0000
  C   C2905     1.0  0.91820  0.74155  0.17748  1.0000
  C   C2906     1.0  0.93481  0.73180  0.16788  1.0000
  H   H5147     1.0  0.93616  0.68369  0.18809  1.0000
  C   C2907     1.0  0.66496  0.79569  0.20354  1.0000
  H   H5148     1.0  0.91302  0.75767  0.17437  1.0000
  H   H5149     1.0  0.94242  0.74040  0.15748  1.0000
  H   H5150     1.0  0.74045  0.52327  0.07473  1.0000
  Fe  Fe328     1.0  0.65583  0.97543  0.99130  1.0000
  C   C2908     1.0  0.80487  0.56759  0.17022  1.0000
  H   H5151     1.0  0.69324  0.50499  0.05566  1.0000
  H   H5152     1.0  0.70930  0.76326  0.21637  1.0000
  H   H5153     1.0  0.81166  0.55343  0.17732  1.0000
  Fe  Fe329     1.0  0.74949  0.86366  0.21595  1.0000
  H   H5154     1.0  0.72554  0.53460  0.09143  1.0000
  H   H5155     1.0  0.91032  0.50360  0.01127  1.0000
  H   H5156     1.0  0.77185  0.54868  0.06686  1.0000
  C   C2909     1.0  0.82260  0.51210  0.13002  1.0000
  Fe  Fe330     1.0  0.98079  0.71233  0.13799  1.0000
  C   C2910     1.0  0.95139  0.56619  0.97558  1.0000
  C   C2911     1.0  0.72766  0.49377  0.02962  1.0000
  H   H5157     1.0  0.98541  0.64999  0.10817  1.0000
  H   H5158     1.0  0.98123  0.54025  0.08475  1.0000
  C   C2912     1.0  0.67408  0.90265  0.14707  1.0000
  S   S657      1.0  0.66000  0.77790  0.19204  1.0000
  S   S658      1.0  0.75287  0.49394  0.05200  1.0000
  C   C2913     1.0  0.75342  0.69362  0.21563  1.0000
  S   S659      1.0  0.69682  0.89610  0.22012  1.0000
  H   H5159     1.0  0.67156  0.50755  0.03329  1.0000
  H   H5160     1.0  0.89021  0.71264  0.13376  1.0000
  H   H5161     1.0  0.94532  0.48568  0.00411  1.0000
  S   S660      1.0  0.72867  0.56968  0.21820  1.0000
  C   C2914     1.0  0.71261  0.48665  0.02315  1.0000
  H   H5162     1.0  0.84021  0.53201  0.04237  1.0000
  C   C2915     1.0  0.98238  0.54560  0.09603  1.0000
  H   H5163     1.0  0.98409  0.51577  0.00801  1.0000
  H   H5164     1.0  0.95507  0.68988  0.10173  1.0000
  H   H5165     1.0  0.70739  0.49464  0.01221  1.0000
  H   H5166     1.0  0.85109  0.56214  0.12905  1.0000
  C   C2916     1.0  0.73089  0.96982  0.19099  1.0000
  C   C2917     1.0  0.92534  0.69755  0.11558  1.0000
  H   H5167     1.0  0.73240  0.98226  0.19756  1.0000
  H   H5168     1.0  0.76353  0.78952  0.18955  1.0000
  C   C2918     1.0  0.83460  0.53043  0.12429  1.0000
  H   H5169     1.0  0.93465  0.52563  0.99494  1.0000
  H   H5170     1.0  0.93172  0.71032  0.11883  1.0000
  H   H5171     1.0  0.85147  0.55872  0.02015  1.0000
  H   H5172     1.0  0.84818  0.82012  0.21573  1.0000
  C   C2919     1.0  0.94301  0.62873  0.98184  1.0000
  H   H5173     1.0  0.81574  0.51158  0.14272  1.0000
  H   H5174     1.0  0.73509  0.64822  0.21717  1.0000
  C   C2920     1.0  0.97109  0.53243  0.10976  1.0000
  C   C2921     1.0  0.68851  0.86365  0.17061  1.0000
  C   C2922     1.0  0.70301  0.85616  0.15599  1.0000
  C   C2923     1.0  0.76687  0.66635  0.19936  1.0000
  H   H5175     1.0  0.73056  0.94748  0.21246  1.0000
  H   H5176     1.0  0.87285  0.79912  0.19852  1.0000
  H   H5177     1.0  0.77307  0.53724  0.01278  1.0000
  C   C2924     1.0  0.72326  0.84490  0.16082  1.0000
  H   H5178     1.0  0.69228  0.96008  0.04111  1.0000
  C   C2925     1.0  0.71836  0.97804  0.17701  1.0000
  S   S661      1.0  0.88687  0.74320  0.20227  1.0000
  H   H5179     1.0  0.97995  0.65472  0.14610  1.0000
  H   H5180     1.0  0.92063  0.50550  0.02912  1.0000
  C   C2926     1.0  0.98144  0.51754  0.99535  1.0000
  H   H5181     1.0  0.69501  0.54092  0.07739  1.0000
  N   N159      1.0  0.74800  0.67610  0.20906  1.0000
  H   H5182     1.0  0.69581  0.87549  0.17424  1.0000
  H   H5183     1.0  0.68903  0.85101  0.18071  1.0000
  H   H5184     1.0  0.70645  0.86931  0.14683  1.0000
  H   H5185     1.0  0.69643  0.84578  0.15024  1.0000
  S   S662      1.0  0.71603  0.62899  0.19684  1.0000
  H   H5186     1.0  0.68919  0.90085  0.15106  1.0000
  C   C2927     1.0  0.90959  0.56731  0.98488  1.0000
  C   C2928     1.0  0.70776  0.52903  0.07388  1.0000
  C   C2929     1.0  0.72703  0.53445  0.07835  1.0000
  H   H5187     1.0  0.70570  0.96006  0.20855  1.0000
  H   H5188     1.0  0.82087  0.54554  0.01689  1.0000
  C   C2930     1.0  0.65806  0.88683  0.17995  1.0000
  H   H5189     1.0  0.90713  0.70105  0.20520  1.0000
  H   H5190     1.0  0.73099  0.85515  0.16592  1.0000
  H   H5191     1.0  0.72076  0.83123  0.16974  1.0000
  H   H5192     1.0  0.73339  0.83984  0.15017  1.0000
  N   N160      1.0  0.80826  0.51925  0.03036  1.0000
  H   H5193     1.0  0.65914  0.90801  0.20479  1.0000
  C   C2931     1.0  0.84469  0.52815  0.03014  1.0000
  H   H5194     1.0  0.97098  0.72933  0.19318  1.0000
  H   H5195     1.0  0.94422  0.52851  0.01243  1.0000
  C   C2932     1.0  0.81619  0.55002  0.14538  1.0000
  H   H5196     1.0  0.84863  0.48953  0.13599  1.0000
  H   H5197     1.0  0.66718  0.89961  0.17782  1.0000
  H   H5198     1.0  0.96573  0.96820  0.07147  1.0000
  H   H5199     1.0  0.77673  0.57047  0.05205  1.0000
  C   C2933     1.0  0.73120  0.68418  0.19901  1.0000
  H   H5200     1.0  0.79755  0.53992  0.00092  1.0000
  H   H5201     1.0  0.96184  0.52116  0.97237  1.0000
  H   H5202     1.0  0.78839  0.56730  0.17056  1.0000
  C   C2934     1.0  0.87034  0.79400  0.21159  1.0000
  C   C2935     1.0  0.76370  0.65015  0.18946  1.0000
  C   C2936     1.0  0.73657  0.69956  0.18392  1.0000
  H   H5203     1.0  0.70651  0.50596  0.09459  1.0000
  H   H5204     1.0  0.80104  0.49505  0.04949  1.0000
  Fe  Fe331     1.0  0.73446  0.60228  0.21066  1.0000
  C   C2937     1.0  0.78383  0.64161  0.18010  1.0000
  C   C2938     1.0  0.71892  0.70516  0.17410  1.0000
  C   C2939     1.0  0.83650  0.49184  0.12827  1.0000
  H   H5205     1.0  0.71983  0.96544  0.16978  1.0000
  H   H5206     1.0  0.87217  0.54169  0.02809  1.0000
  H   H5207     1.0  0.93614  0.67637  0.09766  1.0000
  H   H5208     1.0  0.90149  0.67548  0.10380  1.0000
  C   C2940     1.0  0.65754  0.87845  0.19799  1.0000
  H   H5209     1.0  0.74961  0.97958  0.15387  1.0000
  S   S663      1.0  0.74548  0.89810  0.21032  1.0000
  H   H5210     1.0  0.84889  0.52706  0.12982  1.0000
  H   H5211     1.0  0.75305  0.65659  0.18072  1.0000
  C   C2941     1.0  0.65854  0.67016  0.21636  1.0000
  C   C2942     1.0  0.78376  0.55779  0.06040  1.0000
  H   H5212     1.0  0.75014  0.69319  0.17607  1.0000
  C   C2943     1.0  0.68846  0.97651  0.03875  1.0000
  H   H5213     1.0  0.68741  0.89768  0.12281  1.0000
  H   H5214     1.0  0.93860  0.72233  0.08768  1.0000
  H   H5215     1.0  0.97099  0.61875  0.10651  1.0000
  H   H5216     1.0  0.97773  0.51608  0.10989  1.0000
  H   H5217     1.0  0.93697  0.64165  0.98870  1.0000
  H   H5218     1.0  0.68309  0.92391  0.12618  1.0000
  H   H5219     1.0  0.79482  0.63407  0.18837  1.0000
  H   H5220     1.0  0.78113  0.63007  0.17311  1.0000
  H   H5221     1.0  0.79052  0.65397  0.17171  1.0000
  H   H5222     1.0  0.71607  0.69148  0.16959  1.0000
  H   H5223     1.0  0.77817  0.65845  0.20732  1.0000
  H   H5224     1.0  0.67108  0.87257  0.14266  1.0000
  H   H5225     1.0  0.80654  0.58088  0.17580  1.0000
  H   H5226     1.0  0.97369  0.63508  0.13638  1.0000
  H   H5227     1.0  0.76668  0.79462  0.21700  1.0000
  H   H5228     1.0  0.71935  0.94065  0.19682  1.0000
  S   S664      1.0  0.76538  0.59321  0.19697  1.0000
  S   S665      1.0  0.97745  0.50771  0.06843  1.0000
  H   H5229     1.0  0.78692  0.54738  0.03069  1.0000
  N   N161      1.0  0.66665  0.87170  0.16841  1.0000
  H   H5230     1.0  0.74134  0.96331  0.05850  1.0000
  C   C2944     1.0  0.81471  0.50078  0.04208  1.0000
  H   H5231     1.0  0.83232  0.52227  0.01015  1.0000
  H   H5232     1.0  0.95845  0.62217  0.98483  1.0000
  H   H5233     1.0  0.84363  0.49147  0.11567  1.0000
  H   H5234     1.0  0.66713  0.52997  0.08871  1.0000
  H   H5235     1.0  0.93285  0.61687  0.98564  1.0000
  H   H5236     1.0  0.76035  0.70439  0.20577  1.0000
  C   C2945     1.0  0.65896  0.83754  0.16161  1.0000
  H   H5237     1.0  0.98570  0.67162  0.19717  1.0000
  C   C2946     1.0  0.66448  0.88265  0.15179  1.0000
  C   C2947     1.0  0.91794  0.51328  0.01701  1.0000
  C   C2948     1.0  0.67670  0.90933  0.12903  1.0000
  H   H5238     1.0  0.97187  0.53729  0.12136  1.0000
  H   H5239     1.0  0.70224  0.98175  0.05850  1.0000
  H   H5240     1.0  0.74460  0.81223  0.18796  1.0000
  H   H5241     1.0  0.96803  0.63841  0.05664  1.0000
  C   C2949     1.0  0.97867  0.75602  0.17761  1.0000
  C   C2950     1.0  0.98313  0.73308  0.18321  1.0000
  C   C2951     1.0  0.94701  0.49513  0.97333  1.0000
  C   C2952     1.0  0.96926  0.64361  0.14676  1.0000
  H   H5242     1.0  0.77266  0.53190  0.98540  1.0000
  H   H5243     1.0  0.75759  0.63722  0.19744  1.0000
  H   H5244     1.0  0.80824  0.53281  0.06017  1.0000
  H   H5245     1.0  0.72969  0.54983  0.07213  1.0000
  C   C2953     1.0  0.70390  0.50725  0.08197  1.0000
  C   C2954     1.0  0.82610  0.52920  0.02121  1.0000
  H   H5246     1.0  0.91963  0.70883  0.08307  1.0000
  H   H5247     1.0  0.98285  0.85485  0.03900  1.0000
  H   H5248     1.0  0.85340  0.51249  0.03121  1.0000
  C   C2955     1.0  0.97633  0.97631  0.06292  1.0000
  H   H5249     1.0  0.97173  0.69648  0.19330  1.0000
  H   H5250     1.0  0.70479  0.71157  0.18142  1.0000
  H   H5251     1.0  0.96323  0.75984  0.17397  1.0000
  C   C2956     1.0  0.65795  0.50584  0.04239  1.0000
  C   C2957     1.0  0.98448  0.66234  0.08354  1.0000
  N   N162      1.0  0.92384  0.68068  0.12957  1.0000
  C   C2958     1.0  0.91413  0.69005  0.14435  1.0000
  C   C2959     1.0  0.94528  0.67103  0.13209  1.0000
  C   C2960     1.0  0.91247  0.66425  0.12691  1.0000
  C   C2961     1.0  0.89512  0.67093  0.11642  1.0000
  C   C2962     1.0  0.94741  0.65467  0.14705  1.0000
  C   C2963     1.0  0.89201  0.70117  0.14449  1.0000
  C   C2964     1.0  0.88539  0.71246  0.15901  1.0000
  C   C2965     1.0  0.88321  0.65340  0.11672  1.0000
  C   C2966     1.0  0.78052  0.51961  0.99356  1.0000
  H   H5252     1.0  0.91353  0.67826  0.15508  1.0000
  H   H5253     1.0  0.92366  0.70105  0.14657  1.0000
  H   H5254     1.0  0.95468  0.68298  0.13261  1.0000
  H   H5255     1.0  0.95287  0.66331  0.12173  1.0000
  H   H5256     1.0  0.92311  0.65213  0.12104  1.0000
  H   H5257     1.0  0.90600  0.65626  0.13861  1.0000
  H   H5258     1.0  0.66410  0.91524  0.15271  1.0000
  H   H5259     1.0  0.88423  0.68403  0.12035  1.0000
  H   H5260     1.0  0.93726  0.64307  0.14775  1.0000
  H   H5261     1.0  0.94362  0.66182  0.15813  1.0000
  H   H5262     1.0  0.88150  0.68987  0.14535  1.0000
  H   H5263     1.0  0.86920  0.71956  0.15933  1.0000
  H   H5264     1.0  0.88700  0.70182  0.17028  1.0000
  H   H5265     1.0  0.87579  0.64866  0.12903  1.0000
  H   H5266     1.0  0.87120  0.65843  0.10887  1.0000
  H   H5267     1.0  0.89348  0.64009  0.11228  1.0000
  H   H5268     1.0  0.78535  0.50302  0.02532  1.0000
  H   H5269     1.0  0.76832  0.96494  0.05536  1.0000
  H   H5270     1.0  0.75941  0.94341  0.05020  1.0000
  N   N163      1.0  0.82326  0.55112  0.12755  1.0000
  C   C2967     1.0  0.83798  0.56638  0.12213  1.0000
  H   H5271     1.0  0.73393  0.50721  0.02350  1.0000
  C   C2968     1.0  0.80528  0.55591  0.11847  1.0000
  C   C2969     1.0  0.79225  0.57710  0.11944  1.0000
  H   H5272     1.0  0.72544  0.67138  0.19532  1.0000
  C   C2970     1.0  0.77568  0.58074  0.10865  1.0000
  C   C2971     1.0  0.85985  0.58637  0.10022  1.0000
  H   H5273     1.0  0.88504  0.78598  0.21528  1.0000
  H   H5274     1.0  0.83085  0.58184  0.12471  1.0000
  N   N164      1.0  0.68329  0.50162  0.08119  1.0000
  H   H5275     1.0  0.81015  0.55400  0.10570  1.0000
  H   H5276     1.0  0.79455  0.54469  0.12299  1.0000
  H   H5277     1.0  0.80157  0.58960  0.11563  1.0000
  H   H5278     1.0  0.78447  0.57795  0.13181  1.0000
  S   S666      1.0  0.97241  0.72541  0.11363  1.0000
  H   H5279     1.0  0.83471  0.57292  0.09655  1.0000
  H   H5280     1.0  0.83099  0.57272  0.15305  1.0000
  H   H5281     1.0  0.80695  0.58326  0.14636  1.0000
  H   H5282     1.0  0.76627  0.59585  0.10979  1.0000
  H   H5283     1.0  0.78256  0.58054  0.09598  1.0000
  H   H5284     1.0  0.76554  0.56884  0.11217  1.0000
  H   H5285     1.0  0.94610  0.70260  0.07510  1.0000
  H   H5286     1.0  0.87306  0.58278  0.10695  1.0000
  H   H5287     1.0  0.82322  0.50467  0.05090  1.0000
  H   H5288     1.0  0.97015  0.94751  0.02285  1.0000
  C   C2972     1.0  0.96390  0.97718  0.00857  1.0000
  H   H5289     1.0  0.97104  0.53217  0.99347  1.0000
  C   C2973     1.0  0.93797  0.51770  0.00682  1.0000
  H   H5290     1.0  0.81023  0.51304  0.12271  1.0000
  H   H5291     1.0  0.80814  0.50148  0.01148  1.0000
  H   H5292     1.0  0.69338  0.66581  0.18302  1.0000
  C   C2974     1.0  0.69395  0.64456  0.20478  1.0000
  H   H5293     1.0  0.72271  0.71679  0.16370  1.0000
  H   H5294     1.0  0.73958  0.71389  0.18730  1.0000
  C   C2975     1.0  0.84694  0.56906  0.10420  1.0000
  H   H5295     1.0  0.94741  0.97613  0.01019  1.0000
  H   H5296     1.0  0.81218  0.55450  0.04509  1.0000
  C   C2976     1.0  0.93886  0.69128  0.10019  1.0000
  H   H5297     1.0  0.77040  0.81422  0.18984  1.0000
  H   H5298     1.0  0.70983  0.52993  0.06067  1.0000
  C   C2977     1.0  0.75590  0.96014  0.05046  1.0000
  H   H5299     1.0  0.91014  0.70458  0.11245  1.0000
  H   H5300     1.0  0.95485  0.53406  0.10812  1.0000
  C   C2978     1.0  0.75809  0.80460  0.19366  1.0000
  H   H5301     1.0  0.74213  0.96520  0.02919  1.0000
  H   H5302     1.0  0.87381  0.82293  0.21730  1.0000
  H   H5303     1.0  0.83992  0.62984  0.21353  1.0000
  H   H5304     1.0  0.66254  0.68851  0.19333  1.0000
  H   H5305     1.0  0.98210  0.66977  0.05845  1.0000
  H   H5306     1.0  0.96755  0.56597  0.97183  1.0000
  H   H5307     1.0  0.73904  0.77580  0.21153  1.0000
  H   H5308     1.0  0.68575  0.98467  0.16095  1.0000
  C   C2979     1.0  0.98128  0.64772  0.09702  1.0000
  H   H5309     1.0  0.74634  0.96247  0.18638  1.0000
  S   S667      1.0  0.66366  0.94805  0.97837  1.0000
  C   C2980     1.0  0.73514  0.78956  0.21772  1.0000
  H   H5310     1.0  0.98216  0.72526  0.17307  1.0000
  H   H5311     1.0  0.66039  0.84347  0.14872  1.0000
  C   C2981     1.0  0.97964  0.65868  0.06900  1.0000
  C   C2982     1.0  0.97324  0.62991  0.09598  1.0000
  H   H5312     1.0  0.70212  0.98044  0.18250  1.0000
  C   C2983     1.0  0.96430  0.68117  0.21694  1.0000
  H   H5313     1.0  0.96506  0.96865  0.03405  1.0000
  H   H5314     1.0  0.73931  0.98473  0.00583  1.0000
  Fe  Fe332     1.0  0.77734  0.59340  0.21987  1.0000
  C   C2984     1.0  0.80402  0.80727  0.21996  1.0000
  C   C2985     1.0  0.68415  0.63982  0.22031  1.0000
  C   C2986     1.0  0.68502  0.49858  0.31750  1.0000
  S   S668      1.0  0.96818  0.73872  0.36749  1.0000
  H   H5315     1.0  0.79945  0.53605  0.43231  1.0000
  Fe  Fe333     1.0  0.96604  0.74546  0.34107  1.0000
  S   S669      1.0  0.93615  0.74694  0.33097  1.0000
  C   C2987     1.0  0.80048  0.53208  0.30883  1.0000
  Fe  Fe334     1.0  0.88057  0.71767  0.26154  1.0000
  S   S670      1.0  0.87408  0.74808  0.24634  1.0000
  S   S671      1.0  0.90779  0.70910  0.27583  1.0000
  Fe  Fe335     1.0  0.84702  0.70015  0.24891  1.0000
  S   S672      1.0  0.83914  0.72935  0.23258  1.0000
  S   S673      1.0  0.82488  0.67653  0.25426  1.0000
  H   H5316     1.0  0.73056  0.52202  0.38602  1.0000
  Fe  Fe336     1.0  0.84084  0.74521  0.25313  1.0000
  S   S674      1.0  0.81535  0.76997  0.26101  1.0000
  S   S675      1.0  0.88105  0.69921  0.24155  1.0000
  S   S676      1.0  0.84725  0.71618  0.27004  1.0000
  H   H5317     1.0  0.90118  0.75783  0.31454  1.0000
  S   S677      1.0  0.95748  0.91311  0.43311  1.0000
  Fe  Fe337     1.0  0.97164  0.61917  0.44967  1.0000
  H   H5318     1.0  0.88715  0.67488  0.37157  1.0000
  S   S678      1.0  0.95769  0.64474  0.43209  1.0000
  H   H5319     1.0  0.89012  0.67500  0.31834  1.0000
  C   C2988     1.0  0.79342  0.54793  0.29515  1.0000
  S   S679      1.0  0.97285  0.58556  0.44913  1.0000
  H   H5320     1.0  0.76412  0.57133  0.27988  1.0000
  H   H5321     1.0  0.75129  0.53653  0.37890  1.0000
  S   S680      1.0  0.74686  0.60428  0.23300  1.0000
  C   C2989     1.0  0.85935  0.79583  0.27386  1.0000
  Fe  Fe338     1.0  0.74377  0.57074  0.23965  1.0000
  S   S681      1.0  0.73081  0.55948  0.26537  1.0000
  H   H5322     1.0  0.77745  0.50817  0.40651  1.0000
  H   H5323     1.0  0.66700  0.53168  0.34581  1.0000
  H   H5324     1.0  0.67203  0.50418  0.34932  1.0000
  S   S682      1.0  0.72871  0.86304  0.23937  1.0000
  S   S683      1.0  0.71792  0.92384  0.24749  1.0000
  H   H5325     1.0  0.88968  0.74380  0.29305  1.0000
  Fe  Fe339     1.0  0.71754  0.95672  0.33234  1.0000
  H   H5326     1.0  0.95477  0.67924  0.45113  1.0000
  S   S684      1.0  0.72891  0.92911  0.31912  1.0000
  H   H5327     1.0  0.66672  0.89368  0.26786  1.0000
  H   H5328     1.0  0.95082  0.67905  0.33267  1.0000
  H   H5329     1.0  0.69973  0.51737  0.29082  1.0000
  S   S685      1.0  0.73189  0.97627  0.38598  1.0000
  H   H5330     1.0  0.81103  0.57104  0.29660  1.0000
  S   S686      1.0  0.70359  0.95175  0.35829  1.0000
  H   H5331     1.0  0.91490  0.88381  0.43376  1.0000
  C   C2990     1.0  0.77018  0.52428  0.40710  1.0000
  H   H5332     1.0  0.68991  0.62615  0.22778  1.0000
  C   C2991     1.0  0.96880  0.80425  0.46265  1.0000
  S   S687      1.0  0.81498  0.96482  0.45769  1.0000
  S   S688      1.0  0.97385  0.78742  0.38370  1.0000
  H   H5333     1.0  0.76705  0.58396  0.25978  1.0000
  C   C2992     1.0  0.80466  0.86597  0.24491  1.0000
  C   C2993     1.0  0.98833  0.79750  0.39533  1.0000
  C   C2994     1.0  0.90377  0.66942  0.37096  1.0000
  H   H5334     1.0  0.87984  0.70119  0.34574  1.0000
  H   H5335     1.0  0.80340  0.57188  0.24765  1.0000
  Fe  Fe340     1.0  0.72088  0.97636  0.36193  1.0000
  H   H5336     1.0  0.84744  0.65732  0.22688  1.0000
  H   H5337     1.0  0.96172  0.60586  0.41091  1.0000
  H   H5338     1.0  0.91329  0.74490  0.36575  1.0000
  H   H5339     1.0  0.96583  0.95674  0.43071  1.0000
  C   C2995     1.0  0.68638  0.51125  0.28844  1.0000
  C   C2996     1.0  0.71126  0.77402  0.23881  1.0000
  H   H5340     1.0  0.70743  0.79220  0.26549  1.0000
  H   H5341     1.0  0.90515  0.93037  0.37255  1.0000
  C   C2997     1.0  0.75448  0.50307  0.29960  1.0000
  S   S689      1.0  0.69195  0.98069  0.32509  1.0000
  C   C2998     1.0  0.72262  0.92501  0.26705  1.0000
  C   C2999     1.0  0.73009  0.90772  0.27712  1.0000
  C   C3000     1.0  0.73236  0.90933  0.29290  1.0000
  C   C3001     1.0  0.72722  0.92819  0.29880  1.0000
  C   C3002     1.0  0.72012  0.94552  0.28862  1.0000
  C   C3003     1.0  0.71778  0.94391  0.27288  1.0000
  H   H5342     1.0  0.73386  0.89309  0.27282  1.0000
  H   H5343     1.0  0.73792  0.89584  0.30067  1.0000
  H   H5344     1.0  0.71621  0.96014  0.29294  1.0000
  H   H5345     1.0  0.71201  0.95737  0.26520  1.0000
  C   C3004     1.0  0.74076  0.53792  0.27833  1.0000
  C   C3005     1.0  0.73173  0.53500  0.29439  1.0000
  C   C3006     1.0  0.73847  0.51764  0.30495  1.0000
  H   H5346     1.0  0.71048  0.81856  0.28074  1.0000
  C   C3007     1.0  0.76393  0.50632  0.28367  1.0000
  C   C3008     1.0  0.75707  0.52358  0.27305  1.0000
  H   H5347     1.0  0.71928  0.54614  0.29865  1.0000
  C   C3009     1.0  0.74776  0.52547  0.40445  1.0000
  H   H5348     1.0  0.76418  0.52562  0.26075  1.0000
  N   N165      1.0  0.73064  0.78344  0.23557  1.0000
  H   H5349     1.0  0.78412  0.70170  0.24248  1.0000
  C   C3010     1.0  0.88316  0.68898  0.32371  1.0000
  H   H5350     1.0  0.76847  0.83206  0.24590  1.0000
  C   C3011     1.0  0.98169  0.75101  0.28234  1.0000
  H   H5351     1.0  0.73143  0.51562  0.31727  1.0000
  H   H5352     1.0  0.91073  0.55277  0.43968  1.0000
  C   C3012     1.0  0.93257  0.91817  0.44311  1.0000
  C   C3013     1.0  0.91804  0.93201  0.43534  1.0000
  C   C3014     1.0  0.89816  0.93674  0.44317  1.0000
  H   H5353     1.0  0.96176  0.79017  0.46389  1.0000
  H   H5354     1.0  0.66832  0.95413  0.28291  1.0000
  H   H5355     1.0  0.83828  0.51373  0.41945  1.0000
  H   H5356     1.0  0.92217  0.93917  0.42325  1.0000
  H   H5357     1.0  0.88704  0.94738  0.43708  1.0000
  Fe  Fe341     1.0  0.70439  0.86198  0.22440  1.0000
  N   N166      1.0  0.85134  0.82232  0.24909  1.0000
  C   C3015     1.0  0.80427  0.78917  0.24694  1.0000
  C   C3016     1.0  0.78839  0.80402  0.25232  1.0000
  C   C3017     1.0  0.78038  0.82047  0.24158  1.0000
  C   C3018     1.0  0.65822  0.95617  0.29436  1.0000
  H   H5358     1.0  0.78255  0.80303  0.26491  1.0000
  H   H5359     1.0  0.96238  0.89796  0.40327  1.0000
  C   C3019     1.0  0.81938  0.65861  0.24307  1.0000
  H   H5360     1.0  0.74089  0.81013  0.24099  1.0000
  S   S690      1.0  0.67922  0.84216  0.23257  1.0000
  H   H5361     1.0  0.94994  0.94762  0.45701  1.0000
  C   C3020     1.0  0.79631  0.63552  0.23968  1.0000
  C   C3021     1.0  0.80096  0.65054  0.24764  1.0000
  H   H5362     1.0  0.81387  0.87761  0.23807  1.0000
  H   H5363     1.0  0.78919  0.53947  0.28648  1.0000
  H   H5364     1.0  0.78203  0.62963  0.24322  1.0000
  H   H5365     1.0  0.79022  0.65600  0.25741  1.0000
  H   H5366     1.0  0.96153  0.81105  0.40950  1.0000
  Fe  Fe342     1.0  0.72296  0.89731  0.23296  1.0000
  H   H5367     1.0  0.92488  0.70185  0.38360  1.0000
  H   H5368     1.0  0.92369  0.73840  0.38427  1.0000
  C   C3022     1.0  0.97282  0.65829  0.41653  1.0000
  C   C3023     1.0  0.96329  0.67328  0.40558  1.0000
  H   H5369     1.0  0.68133  0.86936  0.27398  1.0000
  C   C3024     1.0  0.92330  0.71237  0.37238  1.0000
  Fe  Fe343     1.0  0.87299  0.72976  0.22689  1.0000
  H   H5370     1.0  0.94685  0.67659  0.40699  1.0000
  C   C3025     1.0  0.79595  0.52633  0.42409  1.0000
  C   C3026     1.0  0.92927  0.73692  0.31493  1.0000
  C   C3027     1.0  0.94122  0.72045  0.30817  1.0000
  C   C3028     1.0  0.93445  0.71227  0.29619  1.0000
  C   C3029     1.0  0.91585  0.72064  0.29055  1.0000
  C   C3030     1.0  0.90407  0.73729  0.29713  1.0000
  C   C3031     1.0  0.91065  0.74520  0.30935  1.0000
  H   H5371     1.0  0.95548  0.71379  0.31237  1.0000
  H   H5372     1.0  0.94359  0.69926  0.29131  1.0000
  N   N167      1.0  0.77350  0.53069  0.42242  1.0000
  H   H5373     1.0  0.74108  0.97774  0.41721  1.0000
  H   H5374     1.0  0.82375  0.77912  0.22634  1.0000
  C   C3032     1.0  0.76220  0.51793  0.43611  1.0000
  C   C3033     1.0  0.76515  0.55281  0.42355  1.0000
  C   C3034     1.0  0.66329  0.92198  0.40551  1.0000
  H   H5375     1.0  0.73068  0.64466  0.25455  1.0000
  C   C3035     1.0  0.76524  0.52053  0.45319  1.0000
  Fe  Fe344     1.0  0.98440  0.76609  0.36457  1.0000
  H   H5376     1.0  0.67183  0.98259  0.29640  1.0000
  C   C3036     1.0  0.76209  0.59019  0.41176  1.0000
  H   H5377     1.0  0.93883  0.71345  0.36595  1.0000
  C   C3037     1.0  0.91947  0.97269  0.46579  1.0000
  C   C3038     1.0  0.89743  0.65069  0.39915  1.0000
  H   H5378     1.0  0.84363  0.52971  0.40075  1.0000
  H   H5379     1.0  0.77643  0.49521  0.27943  1.0000
  H   H5380     1.0  0.83066  0.59491  0.28775  1.0000
  N   N168      1.0  0.91570  0.68319  0.35852  1.0000
  H   H5381     1.0  0.74550  0.52127  0.43582  1.0000
  H   H5382     1.0  0.74825  0.55529  0.42468  1.0000
  H   H5383     1.0  0.76855  0.55707  0.43471  1.0000
  H   H5384     1.0  0.91279  0.96186  0.46039  1.0000
  H   H5385     1.0  0.95658  0.69547  0.22155  1.0000
  C   C3039     1.0  0.92271  0.55740  0.46041  1.0000
  H   H5386     1.0  0.77622  0.73760  0.25359  1.0000
  H   H5387     1.0  0.75789  0.53584  0.45606  1.0000
  H   H5388     1.0  0.83348  0.54122  0.41851  1.0000
  H   H5389     1.0  0.77142  0.56554  0.39805  1.0000
  C   C3040     1.0  0.72263  0.66790  0.23474  1.0000
  H   H5390     1.0  0.96503  0.70000  0.42912  1.0000
  H   H5391     1.0  0.89684  0.84565  0.26516  1.0000
  H   H5392     1.0  0.66134  0.53578  0.29538  1.0000
  H   H5393     1.0  0.76847  0.60140  0.40201  1.0000
  H   H5394     1.0  0.97744  0.68605  0.35647  1.0000
  H   H5395     1.0  0.76388  0.59448  0.42336  1.0000
  C   C3041     1.0  0.90814  0.66734  0.38838  1.0000
  C   C3042     1.0  0.74883  0.76911  0.24110  1.0000
  C   C3043     1.0  0.82864  0.60150  0.27529  1.0000
  C   C3044     1.0  0.76883  0.68766  0.22781  1.0000
  C   C3045     1.0  0.71745  0.65071  0.24808  1.0000
  C   C3046     1.0  0.67624  0.51799  0.34119  1.0000
  C   C3047     1.0  0.96936  0.73017  0.25984  1.0000
  H   H5396     1.0  0.75682  0.75994  0.23159  1.0000
  C   C3048     1.0  0.67512  0.88997  0.29183  1.0000
  H   H5397     1.0  0.90777  0.85656  0.45604  1.0000
  H   H5398     1.0  0.97094  0.53876  0.46696  1.0000
  H   H5399     1.0  0.83959  0.57360  0.26547  1.0000
  C   C3049     1.0  0.66966  0.52964  0.28456  1.0000
  H   H5400     1.0  0.97248  0.50007  0.45410  1.0000
  H   H5401     1.0  0.68973  0.93523  0.39294  1.0000
  C   C3050     1.0  0.92112  0.86774  0.43208  1.0000
  H   H5402     1.0  0.88261  0.82188  0.25237  1.0000
  C   C3051     1.0  0.83297  0.52829  0.41209  1.0000
  H   H5403     1.0  0.85956  0.84546  0.27175  1.0000
  C   C3052     1.0  0.75497  0.97900  0.39263  1.0000
  H   H5404     1.0  0.95897  0.77812  0.30231  1.0000
  H   H5405     1.0  0.68873  0.55367  0.27976  1.0000
  C   C3053     1.0  0.77288  0.70643  0.23393  1.0000
  H   H5406     1.0  0.75634  0.50907  0.38382  1.0000
  Fe  Fe345     1.0  0.84813  0.96241  0.46032  1.0000
  H   H5407     1.0  0.68656  0.90259  0.36050  1.0000
  H   H5408     1.0  0.80002  0.51026  0.42976  1.0000
  H   H5409     1.0  0.81387  0.52134  0.30437  1.0000
  H   H5410     1.0  0.80396  0.52617  0.24678  1.0000
  H   H5411     1.0  0.80744  0.54263  0.40038  1.0000
  H   H5412     1.0  0.77965  0.55765  0.30027  1.0000
  C   C3054     1.0  0.84994  0.78723  0.29055  1.0000
  H   H5413     1.0  0.70111  0.50096  0.31655  1.0000
  H   H5414     1.0  0.93822  0.89806  0.46474  1.0000
  H   H5415     1.0  0.69229  0.73367  0.22779  1.0000
  S   S691      1.0  0.97846  0.85613  0.45115  1.0000
  H   H5416     1.0  0.72635  0.68020  0.24041  1.0000
  H   H5417     1.0  0.66580  0.94942  0.38800  1.0000
  C   C3055     1.0  0.84387  0.81242  0.26567  1.0000
  H   H5418     1.0  0.89125  0.91557  0.38886  1.0000
  H   H5419     1.0  0.83025  0.80527  0.26530  1.0000
  H   H5420     1.0  0.83106  0.51932  0.24188  1.0000
  C   C3056     1.0  0.65649  0.97854  0.29656  1.0000
  H   H5421     1.0  0.74563  0.59104  0.41107  1.0000
  C   C3057     1.0  0.89537  0.53728  0.46114  1.0000
  H   H5422     1.0  0.92911  0.65810  0.46493  1.0000
  C   C3058     1.0  0.71558  0.82083  0.26767  1.0000
  H   H5423     1.0  0.65928  0.90805  0.34380  1.0000
  C   C3059     1.0  0.91406  0.73351  0.37671  1.0000
  C   C3060     1.0  0.77257  0.98202  0.41489  1.0000
  H   H5424     1.0  0.70560  0.90175  0.34315  1.0000
  C   C3061     1.0  0.67445  0.91167  0.33806  1.0000
  C   C3062     1.0  0.97266  0.78363  0.29489  1.0000
  S   S692      1.0  0.86796  0.93330  0.46908  1.0000
  H   H5425     1.0  0.94317  0.70106  0.45991  1.0000
  H   H5426     1.0  0.91545  0.66637  0.33903  1.0000
  H   H5427     1.0  0.89854  0.73323  0.38349  1.0000
  H   H5428     1.0  0.96808  0.73670  0.41974  1.0000
  H   H5429     1.0  0.80446  0.53962  0.31824  1.0000
  H   H5430     1.0  0.73854  0.54022  0.40692  1.0000
  H   H5431     1.0  0.88070  0.65417  0.39914  1.0000
  H   H5432     1.0  0.83710  0.54943  0.25229  1.0000
  H   H5433     1.0  0.89288  0.86373  0.24735  1.0000
  C   C3063     1.0  0.82542  0.58487  0.26570  1.0000
  C   C3064     1.0  0.80477  0.56178  0.25926  1.0000
  H   H5434     1.0  0.96555  0.72352  0.44894  1.0000
  C   C3065     1.0  0.92301  0.85574  0.44866  1.0000
  H   H5435     1.0  0.90674  0.93319  0.39281  1.0000
  C   C3066     1.0  0.81169  0.79058  0.23065  1.0000
  H   H5436     1.0  0.81847  0.54253  0.23181  1.0000
  H   H5437     1.0  0.75861  0.71406  0.24021  1.0000
  H   H5438     1.0  0.86129  0.77539  0.29616  1.0000
  C   C3067     1.0  0.98126  0.72452  0.41774  1.0000
  H   H5439     1.0  0.70305  0.83055  0.26178  1.0000
  C   C3068     1.0  0.97450  0.60936  0.40140  1.0000
  H   H5440     1.0  0.95597  0.73608  0.26814  1.0000
  H   H5441     1.0  0.92918  0.83946  0.44785  1.0000
  H   H5442     1.0  0.92964  0.97018  0.43410  1.0000
  C   C3069     1.0  0.77306  0.98109  0.38220  1.0000
  H   H5443     1.0  0.91745  0.69271  0.33296  1.0000
  H   H5444     1.0  0.77218  0.98240  0.42749  1.0000
  H   H5445     1.0  0.93131  0.50820  0.44431  1.0000
  H   H5446     1.0  0.97527  0.76064  0.27204  1.0000
  C   C3070     1.0  0.66726  0.94158  0.30830  1.0000
  N   N169      1.0  0.97575  0.69336  0.46076  1.0000
  H   H5447     1.0  0.96293  0.96269  0.46595  1.0000
  H   H5448     1.0  0.82485  0.59232  0.25310  1.0000
  H   H5449     1.0  0.67389  0.95055  0.40685  1.0000
  C   C3071     1.0  0.93811  0.67509  0.35807  1.0000
  H   H5450     1.0  0.66442  0.91196  0.39623  1.0000
  H   H5451     1.0  0.97366  0.74310  0.25084  1.0000
  C   C3072     1.0  0.96237  0.71496  0.25127  1.0000
  C   C3073     1.0  0.89266  0.92750  0.45879  1.0000
  H   H5452     1.0  0.97501  0.70861  0.24262  1.0000
  H   H5453     1.0  0.96745  0.69533  0.38435  1.0000
  C   C3074     1.0  0.90971  0.54943  0.45254  1.0000
  H   H5454     1.0  0.69478  0.90781  0.31615  1.0000
  H   H5455     1.0  0.70443  0.65658  0.25670  1.0000
  C   C3075     1.0  0.69252  0.74555  0.23533  1.0000
  H   H5456     1.0  0.73801  0.74073  0.25329  1.0000
  H   H5457     1.0  0.94981  0.85078  0.42235  1.0000
  H   H5458     1.0  0.85557  0.86366  0.25402  1.0000
  H   H5459     1.0  0.88970  0.70226  0.31656  1.0000
  C   C3076     1.0  0.92710  0.90881  0.45867  1.0000
  C   C3077     1.0  0.84760  0.61111  0.26771  1.0000
  H   H5460     1.0  0.79271  0.87348  0.25351  1.0000
  H   H5461     1.0  0.90980  0.86160  0.42698  1.0000
  H   H5462     1.0  0.90623  0.65378  0.36750  1.0000
  C   C3078     1.0  0.81049  0.62766  0.22755  1.0000
  S   S693      1.0  0.85574  0.98352  0.43779  1.0000
  H   H5463     1.0  0.76307  0.67715  0.23832  1.0000
  H   H5464     1.0  0.96848  0.74507  0.29022  1.0000
  H   H5465     1.0  0.82339  0.53272  0.26735  1.0000
  H   H5466     1.0  0.74080  0.51286  0.41234  1.0000
  S   S694      1.0  0.82643  0.50807  0.45528  1.0000
  H   H5467     1.0  0.65766  0.93491  0.36451  1.0000
  H   H5468     1.0  0.97290  0.62618  0.39793  1.0000
  H   H5469     1.0  0.96377  0.88892  0.38472  1.0000
  H   H5470     1.0  0.76655  0.50152  0.43488  1.0000
  H   H5471     1.0  0.84521  0.79947  0.29824  1.0000
  C   C3079     1.0  0.95540  0.96272  0.45535  1.0000
  H   H5472     1.0  0.67704  0.89021  0.32192  1.0000
  H   H5473     1.0  0.98054  0.82682  0.42554  1.0000
  H   H5474     1.0  0.77795  0.53318  0.39651  1.0000
  H   H5475     1.0  0.68926  0.88218  0.34868  1.0000
  H   H5476     1.0  0.95675  0.70228  0.26002  1.0000
  H   H5477     1.0  0.91297  0.49419  0.45717  1.0000
  C   C3080     1.0  0.97836  0.71079  0.44738  1.0000
  H   H5478     1.0  0.87304  0.80222  0.27511  1.0000
  C   C3081     1.0  0.90990  0.68189  0.34245  1.0000
  C   C3082     1.0  0.67946  0.88602  0.27445  1.0000
  H   H5479     1.0  0.87878  0.67417  0.34779  1.0000
  H   H5480     1.0  0.67549  0.92788  0.33839  1.0000
  H   H5481     1.0  0.68362  0.94325  0.30704  1.0000
  H   H5482     1.0  0.77089  0.75598  0.26740  1.0000
  C   C3083     1.0  0.92670  0.49286  0.44810  1.0000
  H   H5483     1.0  0.94373  0.67680  0.36914  1.0000
  H   H5484     1.0  0.94962  0.72276  0.24472  1.0000
  H   H5485     1.0  0.97886  0.66222  0.34882  1.0000
  C   C3084     1.0  0.83412  0.83683  0.24219  1.0000
  N   N170      1.0  0.93757  0.97983  0.45466  1.0000
  H   H5486     1.0  0.97844  0.79373  0.30157  1.0000
  C   C3085     1.0  0.77335  0.56873  0.40992  1.0000
  C   C3086     1.0  0.78860  0.59082  0.27387  1.0000
  C   C3087     1.0  0.95498  0.68736  0.46140  1.0000
  Fe  Fe346     1.0  0.67913  0.97718  0.35117  1.0000
  C   C3088     1.0  0.97191  0.96200  0.44035  1.0000
  C   C3089     1.0  0.92057  0.48628  0.43358  1.0000
  N   N171      1.0  0.80686  0.57438  0.27178  1.0000
  C   C3090     1.0  0.76753  0.58566  0.27233  1.0000
  C   C3091     1.0  0.75052  0.60279  0.27690  1.0000
  C   C3092     1.0  0.86931  0.83307  0.24889  1.0000
  H   H5487     1.0  0.79703  0.86000  0.23652  1.0000
  H   H5488     1.0  0.93308  0.86242  0.45475  1.0000
  Fe  Fe347     1.0  0.85891  0.50336  0.45996  1.0000
  H   H5489     1.0  0.69372  0.89173  0.26839  1.0000
  H   H5490     1.0  0.78740  0.59640  0.28556  1.0000
  H   H5491     1.0  0.79059  0.60432  0.26463  1.0000
  C   C3093     1.0  0.67297  0.91309  0.29296  1.0000
  C   C3094     1.0  0.72090  0.80016  0.26162  1.0000
  C   C3095     1.0  0.67372  0.94045  0.39787  1.0000
  C   C3096     1.0  0.67216  0.51739  0.32429  1.0000
  H   H5492     1.0  0.84925  0.62338  0.27443  1.0000
  H   H5493     1.0  0.73392  0.79174  0.26755  1.0000
  H   H5494     1.0  0.68816  0.91783  0.28855  1.0000
  H   H5495     1.0  0.70868  0.67375  0.22909  1.0000
  H   H5496     1.0  0.98346  0.85547  0.39494  1.0000
  H   H5497     1.0  0.81562  0.61411  0.27555  1.0000
  H   H5498     1.0  0.70764  0.76795  0.25159  1.0000
  Fe  Fe348     1.0  0.97991  0.88967  0.44584  1.0000
  H   H5499     1.0  0.75324  0.61751  0.26944  1.0000
  H   H5500     1.0  0.73571  0.59924  0.27491  1.0000
  H   H5501     1.0  0.74955  0.60431  0.28970  1.0000
  H   H5502     1.0  0.76045  0.77808  0.24310  1.0000
  H   H5503     1.0  0.82492  0.82830  0.23673  1.0000
  H   H5504     1.0  0.73410  0.75988  0.26593  1.0000
  H   H5505     1.0  0.98180  0.72039  0.40565  1.0000
  C   C3097     1.0  0.90565  0.92208  0.38484  1.0000
  H   H5506     1.0  0.66637  0.55942  0.26997  1.0000
  H   H5507     1.0  0.78802  0.52306  0.31422  1.0000
  H   H5508     1.0  0.69259  0.51878  0.34121  1.0000
  H   H5509     1.0  0.90793  0.49763  0.42920  1.0000
  N   N172      1.0  0.94228  0.87583  0.40378  1.0000
  C   C3098     1.0  0.92528  0.89357  0.40201  1.0000
  C   C3099     1.0  0.94210  0.86689  0.42122  1.0000
  C   C3100     1.0  0.96216  0.88404  0.39785  1.0000
  C   C3101     1.0  0.94117  0.85964  0.39383  1.0000
  C   C3102     1.0  0.92163  0.84957  0.39748  1.0000
  C   C3103     1.0  0.92401  0.90515  0.38491  1.0000
  C   C3104     1.0  0.75492  0.97940  0.40900  1.0000
  C   C3105     1.0  0.82883  0.63580  0.22291  1.0000
  H   H5510     1.0  0.83842  0.82384  0.27395  1.0000
  C   C3106     1.0  0.92178  0.83491  0.38558  1.0000
  H   H5511     1.0  0.84627  0.61807  0.25517  1.0000
  H   H5512     1.0  0.90213  0.68183  0.39326  1.0000
  H   H5513     1.0  0.92666  0.90499  0.40971  1.0000
  H   H5514     1.0  0.91018  0.88871  0.40640  1.0000
  H   H5515     1.0  0.79052  0.55490  0.26216  1.0000
  H   H5516     1.0  0.95109  0.87516  0.42706  1.0000
  C   C3107     1.0  0.68994  0.89869  0.34816  1.0000
  H   H5517     1.0  0.67640  0.53158  0.31682  1.0000
  H   H5518     1.0  0.94356  0.86569  0.38089  1.0000
  H   H5519     1.0  0.95386  0.84686  0.39538  1.0000
  H   H5520     1.0  0.90776  0.86106  0.39680  1.0000
  H   H5521     1.0  0.92082  0.84036  0.40950  1.0000
  H   H5522     1.0  0.93773  0.91255  0.38023  1.0000
  H   H5523     1.0  0.92231  0.89469  0.37665  1.0000
  C   C3108     1.0  0.88682  0.68676  0.34106  1.0000
  C   C3109     1.0  0.81145  0.52845  0.40851  1.0000
  C   C3110     1.0  0.85835  0.80553  0.23876  1.0000
  H   H5524     1.0  0.78154  0.51871  0.45456  1.0000
  C   C3111     1.0  0.83315  0.65140  0.23045  1.0000
  C   C3112     1.0  0.72699  0.80266  0.24327  1.0000
  H   H5525     1.0  0.81194  0.51537  0.40196  1.0000
  H   H5526     1.0  0.92213  0.84326  0.37325  1.0000
  H   H5527     1.0  0.93525  0.82275  0.38601  1.0000
  H   H5528     1.0  0.90784  0.82751  0.38861  1.0000
  S   S695      1.0  0.73695  0.97905  0.33659  1.0000
  H   H5529     1.0  0.80799  0.83809  0.26122  1.0000
  H   H5530     1.0  0.83650  0.78001  0.28984  1.0000
  C   C3113     1.0  0.74480  0.75332  0.25625  1.0000
  C   C3114     1.0  0.76461  0.74411  0.26291  1.0000
  H   H5531     1.0  0.89409  0.70838  0.36678  1.0000
  H   H5532     1.0  0.71506  0.81395  0.23778  1.0000
  H   H5533     1.0  0.90055  0.64977  0.41159  1.0000
  S   S696      1.0  0.87935  0.52779  0.45050  1.0000
  C   C3115     1.0  0.97798  0.80902  0.40731  1.0000
  S   S697      1.0  0.77516  0.56004  0.22788  1.0000
  H   H5534     1.0  0.84704  0.79473  0.24090  1.0000
  H   H5535     1.0  0.76169  0.73176  0.27297  1.0000
  C   C3116     1.0  0.86592  0.85047  0.25923  1.0000
  N   N173      1.0  0.68059  0.49451  0.30177  1.0000
  H   H5536     1.0  0.71299  0.63812  0.24316  1.0000
  H   H5537     1.0  0.69333  0.73803  0.24780  1.0000
  H   H5538     1.0  0.78965  0.56907  0.41033  1.0000
  H   H5539     1.0  0.86655  0.69154  0.32311  1.0000
  C   C3117     1.0  0.82226  0.54388  0.25633  1.0000
  H   H5540     1.0  0.86409  0.78277  0.26703  1.0000
  H   H5541     1.0  0.94079  0.65832  0.35768  1.0000
  C   C3118     1.0  0.97492  0.68393  0.39277  1.0000
  H   H5542     1.0  0.92458  0.66324  0.38934  1.0000
  C   C3119     1.0  0.95235  0.68475  0.34379  1.0000
  H   H5543     1.0  0.93354  0.56683  0.45362  1.0000
  H   H5544     1.0  0.90316  0.63557  0.39515  1.0000
  H   H5545     1.0  0.73916  0.50574  0.46505  1.0000
  H   H5546     1.0  0.91183  0.71585  0.35017  1.0000
  C   C3120     1.0  0.91041  0.70515  0.36159  1.0000
  H   H5547     1.0  0.97669  0.97699  0.43550  1.0000
  H   H5548     1.0  0.94858  0.70163  0.34193  1.0000
  H   H5549     1.0  0.68777  0.54175  0.26253  1.0000
  C   C3121     1.0  0.67874  0.54712  0.27351  1.0000
  H   H5550     1.0  0.82504  0.85538  0.26220  1.0000
  C   C3122     1.0  0.81007  0.56134  0.28752  1.0000
  H   H5551     1.0  0.66293  0.92115  0.28408  1.0000
  H   H5552     1.0  0.72494  0.74547  0.22912  1.0000
  H   H5553     1.0  0.86148  0.59949  0.26790  1.0000
  H   H5554     1.0  0.72916  0.82876  0.26541  1.0000
  H   H5555     1.0  0.82508  0.55134  0.28638  1.0000
  C   C3123     1.0  0.81862  0.53232  0.24341  1.0000
  C   C3124     1.0  0.67850  0.90664  0.32080  1.0000
  C   C3125     1.0  0.81809  0.84867  0.25390  1.0000
  H   H5556     1.0  0.67208  0.91357  0.41502  1.0000
  H   H5557     1.0  0.68811  0.88142  0.29777  1.0000
  H   H5558     1.0  0.88302  0.87086  0.26681  1.0000
  C   C3126     1.0  0.90714  0.91339  0.46645  1.0000
  C   C3127     1.0  0.74648  0.52315  0.38724  1.0000
  H   H5559     1.0  0.96836  0.79271  0.28358  1.0000
  C   C3128     1.0  0.66645  0.65252  0.22603  1.0000
  C   C3129     1.0  0.88594  0.85808  0.25961  1.0000
  H   H5560     1.0  0.97172  0.67079  0.22648  1.0000
  H   H5561     1.0  0.96309  0.81509  0.45258  1.0000
  S   S698      1.0  0.97958  0.77440  0.33874  1.0000
  C   C3130     1.0  0.75564  0.50464  0.46573  1.0000
  H   H5562     1.0  0.94932  0.51430  0.46162  1.0000
  C   C3131     1.0  0.78844  0.82235  0.22538  1.0000
  C   C3132     1.0  0.97916  0.70566  0.43028  1.0000
  C   C3133     1.0  0.96092  0.50100  0.46495  1.0000
  H   H5563     1.0  0.65843  0.52478  0.27837  1.0000
  C   C3134     1.0  0.79066  0.98391  0.38807  1.0000
  C   C3135     1.0  0.97463  0.67905  0.34635  1.0000
  H   H5564     1.0  0.75323  0.65176  0.22866  1.0000
  H   H5565     1.0  0.98453  0.68483  0.33548  1.0000
  C   C3136     1.0  0.98193  0.86913  0.40095  1.0000
  H   H5566     1.0  0.69805  0.78600  0.23627  1.0000
  H   H5567     1.0  0.77348  0.98058  0.36962  1.0000
  N   N174      1.0  0.66506  0.91938  0.30925  1.0000
  H   H5568     1.0  0.66103  0.88370  0.29753  1.0000
  H   H5569     1.0  0.76338  0.48899  0.46400  1.0000
  H   H5570     1.0  0.72171  0.48734  0.28643  1.0000
  H   H5571     1.0  0.97344  0.60207  0.39092  1.0000
  C   C3137     1.0  0.79057  0.98445  0.40444  1.0000
  H   H5572     1.0  0.84029  0.84802  0.23224  1.0000
  H   H5573     1.0  0.98039  0.70804  0.27841  1.0000
  H   H5574     1.0  0.93360  0.48540  0.42379  1.0000
  H   H5575     1.0  0.87274  0.79617  0.24207  1.0000
  H   H5576     1.0  0.65869  0.64855  0.23795  1.0000
  H   H5577     1.0  0.98228  0.86408  0.41388  1.0000
  H   H5578     1.0  0.66054  0.94763  0.31958  1.0000
  H   H5579     1.0  0.69153  0.50502  0.27693  1.0000
  H   H5580     1.0  0.78367  0.68018  0.22220  1.0000
  C   C3138     1.0  0.74052  0.66014  0.22226  1.0000
  H   H5581     1.0  0.67809  0.75642  0.23491  1.0000
  C   C3139     1.0  0.71081  0.75672  0.22897  1.0000
  H   H5582     1.0  0.87450  0.84011  0.23655  1.0000
  H   H5583     1.0  0.65562  0.51724  0.32490  1.0000
  C   C3140     1.0  0.65861  0.49191  0.30241  1.0000
  C   C3141     1.0  0.98713  0.71980  0.26926  1.0000
  C   C3142     1.0  0.65725  0.81385  0.22665  1.0000
  H   H5584     1.0  0.65625  0.48809  0.29076  1.0000
  C   C3143     1.0  0.67385  0.82453  0.22110  1.0000
  C   C3144     1.0  0.86234  0.81237  0.22043  1.0000
  H   H5585     1.0  0.98699  0.93162  0.44870  1.0000
  C   C3145     1.0  0.93188  0.98455  0.43800  1.0000
  H   H5586     1.0  0.77926  0.71736  0.22394  1.0000
  H   H5587     1.0  0.73949  0.70286  0.22114  1.0000
  C   C3146     1.0  0.92351  0.96179  0.48267  1.0000
  H   H5588     1.0  0.73593  0.49276  0.66259  1.0000
  Fe  Fe349     1.0  0.97479  0.73261  0.58404  1.0000
  S   S699      1.0  0.95072  0.74705  0.60270  1.0000
  S   S700      1.0  0.97319  0.74065  0.55775  1.0000
  S   S701      1.0  0.77527  0.94996  0.56082  1.0000
  H   H5589     1.0  0.85742  0.73113  0.68077  1.0000
  H   H5590     1.0  0.76466  0.80470  0.68606  1.0000
  C   C3147     1.0  0.98168  0.52563  0.47184  1.0000
  Fe  Fe350     1.0  0.82951  0.75967  0.63090  1.0000
  S   S702      1.0  0.83351  0.78181  0.64657  1.0000
  S   S703      1.0  0.85519  0.74292  0.61480  1.0000
  Fe  Fe351     1.0  0.78293  0.76435  0.64120  1.0000
  S   S704      1.0  0.78378  0.78713  0.65758  1.0000
  S   S705      1.0  0.75103  0.75865  0.63925  1.0000
  Fe  Fe352     1.0  0.80568  0.80095  0.63774  1.0000
  S   S706      1.0  0.80761  0.83420  0.62816  1.0000
  Fe  Fe353     1.0  0.81132  0.76616  0.66507  1.0000
  S   S707      1.0  0.81620  0.75381  0.69065  1.0000
  S   S708      1.0  0.80296  0.77984  0.62073  1.0000
  S   S709      1.0  0.80908  0.74239  0.65003  1.0000
  S   S710      1.0  0.85167  0.48790  0.48502  1.0000
  S   S711      1.0  0.75001  0.95131  0.60513  1.0000
  Fe  Fe354     1.0  0.70070  0.95525  0.58547  1.0000
  S   S712      1.0  0.72643  0.92934  0.58302  1.0000
  H   H5591     1.0  0.65688  0.74368  0.68180  1.0000
  Fe  Fe355     1.0  0.72760  0.92921  0.60903  1.0000
  S   S713      1.0  0.72874  0.90098  0.62764  1.0000
  Fe  Fe356     1.0  0.74684  0.95354  0.57911  1.0000
  C   C3148     1.0  0.70202  0.52515  0.66212  1.0000
  S   S714      1.0  0.70024  0.95337  0.61193  1.0000
  H   H5592     1.0  0.93241  0.94635  0.48194  1.0000
  Fe  Fe357     1.0  0.69511  0.50584  0.59460  1.0000
  N   N175      1.0  0.88455  0.74562  0.67571  1.0000
  Fe  Fe358     1.0  0.68885  0.66754  0.64072  1.0000
  S   S715      1.0  0.67961  0.64523  0.66229  1.0000
  S   S716      1.0  0.72156  0.67372  0.63799  1.0000
  H   H5593     1.0  0.69490  0.71771  0.70954  1.0000
  Fe  Fe359     1.0  0.66531  0.63111  0.64567  1.0000
  H   H5594     1.0  0.89903  0.75339  0.69419  1.0000
  C   C3149     1.0  0.69410  0.71686  0.68057  1.0000
  S   S717      1.0  0.67668  0.65171  0.62380  1.0000
  H   H5595     1.0  0.77369  0.94929  0.49376  1.0000
  H   H5596     1.0  0.69319  0.67636  0.68945  1.0000
  H   H5597     1.0  0.72510  0.74001  0.67343  1.0000
  C   C3150     1.0  0.67381  0.58123  0.63316  1.0000
  H   H5598     1.0  0.84379  0.71122  0.66398  1.0000
  C   C3151     1.0  0.67614  0.54824  0.62382  1.0000
  H   H5599     1.0  0.97760  0.68719  0.48614  1.0000
  S   S718      1.0  0.93734  0.56338  0.48747  1.0000
  H   H5600     1.0  0.97680  0.61443  0.56146  1.0000
  C   C3152     1.0  0.65750  0.72995  0.67600  1.0000
  S   S719      1.0  0.79300  0.50452  0.49657  1.0000
  S   S720      1.0  0.66039  0.69015  0.64432  1.0000
  H   H5601     1.0  0.96612  0.73291  0.47346  1.0000
  H   H5602     1.0  0.87105  0.81794  0.67243  1.0000
  H   H5603     1.0  0.72203  0.91968  0.52439  1.0000
  H   H5604     1.0  0.77636  0.93365  0.67320  1.0000
  H   H5605     1.0  0.73051  0.68302  0.71565  1.0000
  H   H5606     1.0  0.84987  0.80381  0.67661  1.0000
  S   S721      1.0  0.69697  0.53955  0.59438  1.0000
  C   C3153     1.0  0.74340  0.73495  0.63831  1.0000
  C   C3154     1.0  0.72282  0.73440  0.63748  1.0000
  C   C3155     1.0  0.71593  0.71583  0.63714  1.0000
  C   C3156     1.0  0.72957  0.69760  0.63773  1.0000
  C   C3157     1.0  0.75018  0.69819  0.63839  1.0000
  C   C3158     1.0  0.75708  0.71676  0.63871  1.0000
  H   H5607     1.0  0.71214  0.74841  0.63712  1.0000
  H   H5608     1.0  0.70007  0.71559  0.63649  1.0000
  H   H5609     1.0  0.76087  0.68416  0.63873  1.0000
  H   H5610     1.0  0.77297  0.71697  0.63927  1.0000
  C   C3159     1.0  0.81520  0.76967  0.70533  1.0000
  C   C3160     1.0  0.73008  0.70754  0.68333  1.0000
  H   H5611     1.0  0.72674  0.64534  0.67294  1.0000
  C   C3161     1.0  0.81223  0.79095  0.70173  1.0000
  H   H5612     1.0  0.86431  0.80662  0.65679  1.0000
  H   H5613     1.0  0.73282  0.93925  0.64119  1.0000
  H   H5614     1.0  0.81067  0.79810  0.68965  1.0000
  C   C3162     1.0  0.78598  0.85316  0.62866  1.0000
  C   C3163     1.0  0.78579  0.87060  0.61707  1.0000
  C   C3164     1.0  0.76838  0.88552  0.61664  1.0000
  C   C3165     1.0  0.75128  0.88331  0.62810  1.0000
  C   C3166     1.0  0.75187  0.86645  0.64018  1.0000
  C   C3167     1.0  0.76905  0.85124  0.64037  1.0000
  H   H5615     1.0  0.79897  0.87231  0.60811  1.0000
  H   H5616     1.0  0.76816  0.89861  0.60737  1.0000
  H   H5617     1.0  0.73881  0.86506  0.64925  1.0000
  H   H5618     1.0  0.76930  0.83816  0.64962  1.0000
  C   C3168     1.0  0.73219  0.73020  0.68341  1.0000
  H   H5619     1.0  0.73010  0.94358  0.49108  1.0000
  C   C3169     1.0  0.87202  0.76596  0.67106  1.0000
  C   C3170     1.0  0.76418  0.50300  0.52328  1.0000
  H   H5620     1.0  0.78284  0.91514  0.65100  1.0000
  H   H5621     1.0  0.88027  0.71378  0.67935  1.0000
  C   C3171     1.0  0.92430  0.74515  0.60635  1.0000
  C   C3172     1.0  0.91128  0.75732  0.61683  1.0000
  C   C3173     1.0  0.89011  0.75678  0.61966  1.0000
  C   C3174     1.0  0.88176  0.74392  0.61209  1.0000
  C   C3175     1.0  0.89482  0.73163  0.60175  1.0000
  C   C3176     1.0  0.91596  0.73225  0.59885  1.0000
  H   H5622     1.0  0.91759  0.76742  0.62263  1.0000
  H   H5623     1.0  0.88024  0.76646  0.62752  1.0000
  H   H5624     1.0  0.88852  0.72162  0.59584  1.0000
  H   H5625     1.0  0.92577  0.72275  0.59081  1.0000
  C   C3177     1.0  0.77578  0.49207  0.51139  1.0000
  C   C3178     1.0  0.89416  0.53314  0.47776  1.0000
  C   C3179     1.0  0.90717  0.54114  0.48565  1.0000
  H   H5626     1.0  0.76272  0.86441  0.68756  1.0000
  H   H5627     1.0  0.90602  0.53801  0.49852  1.0000
  H   H5628     1.0  0.72450  0.73563  0.69472  1.0000
  H   H5629     1.0  0.85192  0.80210  0.58462  1.0000
  H   H5630     1.0  0.93552  0.64745  0.58135  1.0000
  C   C3180     1.0  0.92144  0.55340  0.47704  1.0000
  H   H5631     1.0  0.91523  0.68006  0.47371  1.0000
  H   H5632     1.0  0.81390  0.48641  0.52205  1.0000
  C   C3181     1.0  0.76033  0.94042  0.67189  1.0000
  H   H5633     1.0  0.66245  0.73354  0.66297  1.0000
  H   H5634     1.0  0.73478  0.52672  0.65464  1.0000
  C   C3182     1.0  0.75566  0.78134  0.71510  1.0000
  H   H5635     1.0  0.76043  0.90184  0.55272  1.0000
  H   H5636     1.0  0.68922  0.53406  0.66923  1.0000
  H   H5637     1.0  0.69792  0.52783  0.64989  1.0000
  H   H5638     1.0  0.66396  0.93980  0.50965  1.0000
  H   H5639     1.0  0.74287  0.97150  0.67133  1.0000
  C   C3183     1.0  0.70790  0.50076  0.68595  1.0000
  C   C3184     1.0  0.83841  0.51542  0.52168  1.0000
  H   H5640     1.0  0.76229  0.72474  0.69103  1.0000
  H   H5641     1.0  0.82645  0.98122  0.53227  1.0000
  C   C3185     1.0  0.69866  0.95347  0.51557  1.0000
  H   H5642     1.0  0.76261  0.72822  0.66968  1.0000
  C   C3186     1.0  0.75090  0.87712  0.68366  1.0000
  H   H5643     1.0  0.92386  0.49967  0.47951  1.0000
  H   H5644     1.0  0.76588  0.51876  0.52318  1.0000
  H   H5645     1.0  0.97600  0.58967  0.54277  1.0000
  H   H5646     1.0  0.95082  0.64677  0.56204  1.0000
  C   C3187     1.0  0.97769  0.67596  0.52850  1.0000
  H   H5647     1.0  0.85593  0.76620  0.67685  1.0000
  H   H5648     1.0  0.96153  0.78998  0.59467  1.0000
  H   H5649     1.0  0.96033  0.80648  0.51802  1.0000
  C   C3188     1.0  0.65910  0.94182  0.56837  1.0000
  C   C3189     1.0  0.75947  0.81415  0.69581  1.0000
  H   H5650     1.0  0.85389  0.81858  0.59868  1.0000
  N   N176      1.0  0.71714  0.95262  0.52361  1.0000
  S   S722      1.0  0.98419  0.69894  0.58309  1.0000
  H   H5651     1.0  0.85907  0.73476  0.70573  1.0000
  Fe  Fe360     1.0  0.98447  0.70742  0.55650  1.0000
  C   C3190     1.0  0.66917  0.56122  0.63556  1.0000
  C   C3191     1.0  0.95096  0.79589  0.57140  1.0000
  H   H5652     1.0  0.89348  0.48733  0.49732  1.0000
  C   C3192     1.0  0.90353  0.95903  0.49359  1.0000
  H   H5653     1.0  0.84064  0.95320  0.51678  1.0000
  C   C3193     1.0  0.72251  0.64334  0.68614  1.0000
  H   H5654     1.0  0.92230  0.65640  0.48626  1.0000
  H   H5655     1.0  0.77114  0.89951  0.67986  1.0000
  H   H5656     1.0  0.68896  0.60365  0.61680  1.0000
  H   H5657     1.0  0.76610  0.97024  0.65790  1.0000
  H   H5658     1.0  0.69650  0.51153  0.69264  1.0000
  H   H5659     1.0  0.95798  0.78055  0.56852  1.0000
  H   H5660     1.0  0.85270  0.50944  0.51435  1.0000
  H   H5661     1.0  0.94468  0.68138  0.48733  1.0000
  C   C3194     1.0  0.75451  0.73335  0.68102  1.0000
  H   H5662     1.0  0.66557  0.64616  0.69664  1.0000
  H   H5663     1.0  0.89451  0.97413  0.49546  1.0000
  C   C3195     1.0  0.97078  0.50711  0.47822  1.0000
  C   C3196     1.0  0.97661  0.80541  0.51760  1.0000
  Fe  Fe361     1.0  0.72271  0.97576  0.60636  1.0000
  C   C3197     1.0  0.67155  0.50345  0.65530  1.0000
  C   C3198     1.0  0.76403  0.98177  0.53751  1.0000
  H   H5664     1.0  0.95864  0.65951  0.47891  1.0000
  C   C3199     1.0  0.96285  0.72126  0.49847  1.0000
  H   H5665     1.0  0.71887  0.65995  0.70581  1.0000
  H   H5666     1.0  0.72731  0.96758  0.54064  1.0000
  H   H5667     1.0  0.73338  0.63068  0.69142  1.0000
  H   H5668     1.0  0.97903  0.77809  0.53488  1.0000
  C   C3200     1.0  0.67849  0.95065  0.52688  1.0000
  H   H5669     1.0  0.76508  0.91903  0.63718  1.0000
  C   C3201     1.0  0.85888  0.70947  0.65640  1.0000
  N   N177      1.0  0.73241  0.82527  0.61268  1.0000
  C   C3202     1.0  0.71907  0.83937  0.60171  1.0000
  C   C3203     1.0  0.73144  0.80314  0.61170  1.0000
  C   C3204     1.0  0.72407  0.82922  0.62956  1.0000
  C   C3205     1.0  0.75415  0.82944  0.60917  1.0000
  C   C3206     1.0  0.76538  0.82676  0.59224  1.0000
  C   C3207     1.0  0.71805  0.86263  0.60192  1.0000
  C   C3208     1.0  0.73327  0.81398  0.64316  1.0000
  C   C3209     1.0  0.72873  0.79764  0.59539  1.0000
  C   C3210     1.0  0.73188  0.77447  0.59570  1.0000
  C   C3211     1.0  0.78605  0.83422  0.58941  1.0000
  C   C3212     1.0  0.70466  0.87522  0.58999  1.0000
  C   C3213     1.0  0.72365  0.81946  0.65961  1.0000
  H   H5670     1.0  0.70318  0.83581  0.60468  1.0000
  H   H5671     1.0  0.72386  0.83687  0.58911  1.0000
  H   H5672     1.0  0.74527  0.79328  0.61568  1.0000
  H   H5673     1.0  0.71831  0.79775  0.62010  1.0000
  H   H5674     1.0  0.70728  0.82919  0.63179  1.0000
  H   H5675     1.0  0.72637  0.84462  0.63131  1.0000
  H   H5676     1.0  0.75503  0.84503  0.61148  1.0000
  H   H5677     1.0  0.76365  0.81910  0.61749  1.0000
  H   H5678     1.0  0.75661  0.83544  0.58283  1.0000
  H   H5679     1.0  0.76837  0.81032  0.59089  1.0000
  H   H5680     1.0  0.71138  0.86690  0.61383  1.0000
  H   H5681     1.0  0.73337  0.86737  0.59867  1.0000
  H   H5682     1.0  0.74987  0.81386  0.64215  1.0000
  H   H5683     1.0  0.73053  0.79828  0.64293  1.0000
  H   H5684     1.0  0.71302  0.80367  0.59278  1.0000
  H   H5685     1.0  0.73946  0.80405  0.58540  1.0000
  H   H5686     1.0  0.72942  0.77082  0.58408  1.0000
  H   H5687     1.0  0.74764  0.76773  0.59782  1.0000
  H   H5688     1.0  0.72098  0.76734  0.60529  1.0000
  H   H5689     1.0  0.78409  0.85082  0.59012  1.0000
  H   H5690     1.0  0.79575  0.82575  0.59835  1.0000
  H   H5691     1.0  0.79398  0.83163  0.57734  1.0000
  H   H5692     1.0  0.68894  0.87136  0.59273  1.0000
  H   H5693     1.0  0.70382  0.89169  0.59077  1.0000
  H   H5694     1.0  0.71114  0.87259  0.57760  1.0000
  H   H5695     1.0  0.72647  0.83480  0.66100  1.0000
  H   H5696     1.0  0.70698  0.81916  0.66141  1.0000
  H   H5697     1.0  0.73048  0.80814  0.66898  1.0000
  C   C3214     1.0  0.87008  0.72734  0.65665  1.0000
  H   H5698     1.0  0.70747  0.93574  0.66377  1.0000
  H   H5699     1.0  0.93400  0.72729  0.64179  1.0000
  H   H5700     1.0  0.69609  0.96806  0.50736  1.0000
  C   C3215     1.0  0.93801  0.72427  0.65411  1.0000
  H   H5701     1.0  0.74763  0.89370  0.53854  1.0000
  H   H5702     1.0  0.88482  0.72487  0.64877  1.0000
  H   H5703     1.0  0.86090  0.74142  0.65142  1.0000
  H   H5704     1.0  0.73932  0.66591  0.68996  1.0000
  H   H5705     1.0  0.74673  0.92778  0.50410  1.0000
  H   H5706     1.0  0.84114  0.52886  0.52656  1.0000
  S   S723      1.0  0.67177  0.96035  0.57365  1.0000
  H   H5707     1.0  0.69160  0.69182  0.71214  1.0000
  H   H5708     1.0  0.90674  0.95051  0.50537  1.0000
  H   H5709     1.0  0.94663  0.73630  0.65573  1.0000
  H   H5710     1.0  0.85970  0.96016  0.52645  1.0000
  H   H5711     1.0  0.74176  0.88289  0.69444  1.0000
  H   H5712     1.0  0.67485  0.63676  0.59030  1.0000
  C   C3216     1.0  0.71319  0.96737  0.53564  1.0000
  H   H5713     1.0  0.65984  0.49006  0.52237  1.0000
  H   H5714     1.0  0.75578  0.92865  0.52968  1.0000
  C   C3217     1.0  0.79733  0.93717  0.62324  1.0000
  H   H5715     1.0  0.75620  0.77272  0.70496  1.0000
  C   C3218     1.0  0.74261  0.92653  0.53911  1.0000
  H   H5716     1.0  0.75736  0.50728  0.47785  1.0000
  H   H5717     1.0  0.74069  0.96060  0.64632  1.0000
  H   H5718     1.0  0.66282  0.66293  0.58705  1.0000
  H   H5719     1.0  0.69319  0.73240  0.68379  1.0000
  H   H5720     1.0  0.71010  0.92821  0.54255  1.0000
  H   H5721     1.0  0.95296  0.73559  0.50134  1.0000
  C   C3219     1.0  0.94736  0.67335  0.47670  1.0000
  H   H5722     1.0  0.70887  0.98196  0.65658  1.0000
  H   H5723     1.0  0.73339  0.90137  0.55696  1.0000
  H   H5724     1.0  0.70699  0.63903  0.68922  1.0000
  H   H5725     1.0  0.94658  0.71703  0.48016  1.0000
  H   H5726     1.0  0.67983  0.93548  0.53438  1.0000
  S   S724      1.0  0.97343  0.83979  0.49544  1.0000
  H   H5727     1.0  0.85640  0.70905  0.64398  1.0000
  C   C3220     1.0  0.97338  0.65143  0.51166  1.0000
  H   H5728     1.0  0.97918  0.80029  0.57846  1.0000
  H   H5729     1.0  0.69930  0.71816  0.66751  1.0000
  H   H5730     1.0  0.72976  0.70978  0.71541  1.0000
  H   H5731     1.0  0.65995  0.55584  0.64649  1.0000
  H   H5732     1.0  0.93943  0.48642  0.49364  1.0000
  H   H5733     1.0  0.74260  0.93661  0.54809  1.0000
  C   C3221     1.0  0.71838  0.55711  0.65226  1.0000
  H   H5734     1.0  0.96710  0.62502  0.58555  1.0000
  C   C3222     1.0  0.70299  0.70234  0.70723  1.0000
  H   H5735     1.0  0.73300  0.91456  0.67663  1.0000
  H   H5736     1.0  0.68192  0.91608  0.57363  1.0000
  H   H5737     1.0  0.77068  0.95698  0.63180  1.0000
  H   H5738     1.0  0.80574  0.96091  0.50471  1.0000
  N   N178      1.0  0.70374  0.50279  0.66892  1.0000
  H   H5739     1.0  0.66373  0.89121  0.56525  1.0000
  H   H5740     1.0  0.95707  0.81675  0.58641  1.0000
  N   N179      1.0  0.91457  0.79127  0.56736  1.0000
  C   C3223     1.0  0.89390  0.78945  0.57703  1.0000
  C   C3224     1.0  0.92408  0.77098  0.56193  1.0000
  C   C3225     1.0  0.92798  0.79647  0.57817  1.0000
  C   C3226     1.0  0.91362  0.80815  0.55338  1.0000
  C   C3227     1.0  0.89966  0.80677  0.54114  1.0000
  C   C3228     1.0  0.88270  0.80850  0.58455  1.0000
  C   C3229     1.0  0.87978  0.78504  0.67449  1.0000
  C   C3230     1.0  0.90961  0.75745  0.55785  1.0000
  C   C3231     1.0  0.92159  0.73891  0.55058  1.0000
  C   C3232     1.0  0.89817  0.82611  0.52888  1.0000
  C   C3233     1.0  0.86153  0.80492  0.59314  1.0000
  C   C3234     1.0  0.73453  0.95833  0.51106  1.0000
  H   H5741     1.0  0.89539  0.77655  0.58696  1.0000
  H   H5742     1.0  0.88334  0.78536  0.56987  1.0000
  H   H5743     1.0  0.93609  0.77331  0.55146  1.0000
  H   H5744     1.0  0.93200  0.76107  0.57150  1.0000
  H   H5745     1.0  0.92698  0.78593  0.58966  1.0000
  H   H5746     1.0  0.92261  0.81209  0.58134  1.0000
  H   H5747     1.0  0.90915  0.82329  0.55763  1.0000
  H   H5748     1.0  0.92899  0.80876  0.54635  1.0000
  H   H5749     1.0  0.88399  0.80489  0.54691  1.0000
  H   H5750     1.0  0.90621  0.79388  0.53439  1.0000
  H   H5751     1.0  0.89117  0.81194  0.59358  1.0000
  H   H5752     1.0  0.88073  0.82205  0.57529  1.0000
  H   H5753     1.0  0.80934  0.92526  0.62792  1.0000
  C   C3235     1.0  0.66161  0.64700  0.58577  1.0000
  H   H5754     1.0  0.89996  0.75156  0.56887  1.0000
  H   H5755     1.0  0.89932  0.76590  0.54944  1.0000
  H   H5756     1.0  0.93100  0.72906  0.55919  1.0000
  H   H5757     1.0  0.91088  0.72965  0.54767  1.0000
  H   H5758     1.0  0.93163  0.74373  0.53944  1.0000
  H   H5759     1.0  0.88849  0.82461  0.51998  1.0000
  H   H5760     1.0  0.89121  0.83966  0.53481  1.0000
  H   H5761     1.0  0.91350  0.82858  0.52245  1.0000
  H   H5762     1.0  0.86266  0.79161  0.60273  1.0000
  H   H5763     1.0  0.67216  0.53304  0.62559  1.0000
  C   C3236     1.0  0.73618  0.94550  0.65156  1.0000
  C   C3237     1.0  0.69241  0.57524  0.60715  1.0000
  H   H5764     1.0  0.74185  0.69777  0.68992  1.0000
  C   C3238     1.0  0.72213  0.93128  0.53224  1.0000
  H   H5765     1.0  0.75142  0.93615  0.68378  1.0000
  C   C3239     1.0  0.70189  0.96811  0.65665  1.0000
  C   C3240     1.0  0.86533  0.80449  0.66976  1.0000
  H   H5766     1.0  0.76233  0.96535  0.69448  1.0000
  C   C3241     1.0  0.97798  0.70017  0.47619  1.0000
  H   H5767     1.0  0.71819  0.95044  0.67505  1.0000
  H   H5768     1.0  0.95327  0.80709  0.56046  1.0000
  H   H5769     1.0  0.70232  0.96216  0.54615  1.0000
  H   H5770     1.0  0.65849  0.96716  0.50994  1.0000
  N   N180      1.0  0.70916  0.70179  0.68949  1.0000
  H   H5771     1.0  0.75495  0.49166  0.63563  1.0000
  C   C3242     1.0  0.96238  0.71866  0.48119  1.0000
  H   H5772     1.0  0.74168  0.50229  0.54450  1.0000
  H   H5773     1.0  0.79013  0.93086  0.61477  1.0000
  C   C3243     1.0  0.96282  0.80108  0.58353  1.0000
  C   C3244     1.0  0.86908  0.74636  0.70541  1.0000
  H   H5774     1.0  0.74086  0.87109  0.67710  1.0000
  H   H5775     1.0  0.65934  0.51734  0.54616  1.0000
  H   H5776     1.0  0.78981  0.94991  0.64502  1.0000
  H   H5777     1.0  0.68701  0.96946  0.66450  1.0000
  H   H5778     1.0  0.91118  0.71121  0.66438  1.0000
  Fe  Fe362     1.0  0.96106  0.58366  0.47525  1.0000
  C   C3245     1.0  0.78148  0.94424  0.63694  1.0000
  C   C3246     1.0  0.74215  0.94363  0.49845  1.0000
  C   C3247     1.0  0.91882  0.72371  0.66644  1.0000
  H   H5779     1.0  0.72447  0.53624  0.67324  1.0000
  C   C3248     1.0  0.92726  0.66663  0.47526  1.0000
  C   C3249     1.0  0.72128  0.53532  0.66113  1.0000
  H   H5780     1.0  0.73209  0.56432  0.65204  1.0000
  C   C3250     1.0  0.79414  0.96681  0.51381  1.0000
  C   C3251     1.0  0.76117  0.89407  0.67290  1.0000
  H   H5781     1.0  0.86011  0.76169  0.70285  1.0000
  C   C3252     1.0  0.79205  0.95620  0.52942  1.0000
  H   H5782     1.0  0.95894  0.51135  0.48824  1.0000
  C   C3253     1.0  0.76940  0.97069  0.68220  1.0000
  C   C3254     1.0  0.70851  0.68092  0.68537  1.0000
  S   S725      1.0  0.95760  0.61768  0.47545  1.0000
  H   H5783     1.0  0.67120  0.69878  0.67743  1.0000
  H   H5784     1.0  0.73472  0.70452  0.67076  1.0000
  H   H5785     1.0  0.89620  0.72738  0.69639  1.0000
  C   C3255     1.0  0.84975  0.96544  0.51702  1.0000
  C   C3256     1.0  0.96506  0.66550  0.52233  1.0000
  H   H5786     1.0  0.69914  0.96739  0.64437  1.0000
  H   H5787     1.0  0.80214  0.94215  0.53229  1.0000
  H   H5788     1.0  0.94803  0.70931  0.65550  1.0000
  C   C3257     1.0  0.68798  0.55513  0.60961  1.0000
  C   C3258     1.0  0.87300  0.72894  0.67393  1.0000
  S   S726      1.0  0.68442  0.49676  0.57359  1.0000
  C   C3259     1.0  0.68532  0.58827  0.61883  1.0000
  H   H5789     1.0  0.96357  0.64304  0.50733  1.0000
  H   H5790     1.0  0.71613  0.55706  0.63973  1.0000
  H   H5791     1.0  0.70499  0.56651  0.65827  1.0000
  H   H5792     1.0  0.82628  0.52052  0.51391  1.0000
  C   C3260     1.0  0.77698  0.96359  0.54132  1.0000
  C   C3261     1.0  0.90475  0.74459  0.66498  1.0000
  C   C3262     1.0  0.77054  0.92641  0.64607  1.0000
  H   H5793     1.0  0.77082  0.88708  0.66282  1.0000
  H   H5794     1.0  0.73800  0.90599  0.65773  1.0000
  C   C3263     1.0  0.88834  0.74306  0.69282  1.0000
  H   H5795     1.0  0.87131  0.76836  0.65804  1.0000
  H   H5796     1.0  0.95702  0.70832  0.50675  1.0000
  H   H5797     1.0  0.86798  0.69478  0.66072  1.0000
  S   S727      1.0  0.66461  0.59686  0.64834  1.0000
  N   N181      1.0  0.75320  0.93152  0.65906  1.0000
  H   H5798     1.0  0.71937  0.50809  0.63586  1.0000
  C   C3264     1.0  0.72335  0.66295  0.69269  1.0000
  C   C3265     1.0  0.67197  0.71209  0.68331  1.0000
  H   H5799     1.0  0.70144  0.58076  0.59614  1.0000
  H   H5800     1.0  0.80460  0.95033  0.61661  1.0000
  C   C3266     1.0  0.75896  0.96405  0.66982  1.0000
  H   H5801     1.0  0.74772  0.96004  0.51672  1.0000
  H   H5802     1.0  0.90246  0.74912  0.65225  1.0000
  C   C3267     1.0  0.66089  0.95200  0.51739  1.0000
  C   C3268     1.0  0.74614  0.90447  0.54732  1.0000
  H   H5803     1.0  0.88083  0.78427  0.68733  1.0000
  H   H5804     1.0  0.70004  0.48939  0.71915  1.0000
  H   H5805     1.0  0.71119  0.68132  0.67214  1.0000
  C   C3269     1.0  0.71572  0.94898  0.66285  1.0000
  C   C3270     1.0  0.96811  0.64146  0.58219  1.0000
  S   S728      1.0  0.96663  0.69270  0.54242  1.0000
  H   H5806     1.0  0.92366  0.71984  0.67846  1.0000
  H   H5807     1.0  0.70124  0.94131  0.50779  1.0000
  H   H5808     1.0  0.89501  0.78664  0.66757  1.0000
  C   C3271     1.0  0.74526  0.91182  0.66647  1.0000
  H   H5809     1.0  0.94878  0.66801  0.52607  1.0000
  H   H5810     1.0  0.94878  0.66853  0.57240  1.0000
  C   C3272     1.0  0.66093  0.65522  0.70626  1.0000
  H   H5811     1.0  0.88307  0.52399  0.48454  1.0000
  H   H5812     1.0  0.91368  0.75595  0.66737  1.0000
  H   H5813     1.0  0.75548  0.74982  0.68036  1.0000
  Fe  Fe363     1.0  0.81956  0.49031  0.47976  1.0000
  H   H5814     1.0  0.68110  0.50205  0.64366  1.0000
  C   C3273     1.0  0.75045  0.49371  0.53540  1.0000
  C   C3274     1.0  0.83195  0.49907  0.53536  1.0000
  H   H5815     1.0  0.66637  0.70876  0.69623  1.0000
  H   H5816     1.0  0.93203  0.97046  0.48850  1.0000
  H   H5817     1.0  0.89442  0.95022  0.48832  1.0000
  H   H5818     1.0  0.76543  0.71086  0.71815  1.0000
  H   H5819     1.0  0.96402  0.81142  0.47372  1.0000
  C   C3275     1.0  0.66744  0.92117  0.56933  1.0000
  C   C3276     1.0  0.68372  0.49518  0.66942  1.0000
  C   C3277     1.0  0.94975  0.65164  0.57393  1.0000
  H   H5820     1.0  0.98788  0.53029  0.48167  1.0000
  H   H5821     1.0  0.96651  0.64768  0.59365  1.0000
  H   H5822     1.0  0.75707  0.96624  0.48120  1.0000
  S   S729      1.0  0.72114  0.97969  0.57987  1.0000
  H   H5823     1.0  0.67422  0.96256  0.53487  1.0000
  H   H5824     1.0  0.80893  0.81951  0.71102  1.0000
  H   H5825     1.0  0.67890  0.48584  0.53519  1.0000
  C   C3278     1.0  0.72211  0.49204  0.64161  1.0000
  H   H5826     1.0  0.67303  0.49907  0.68026  1.0000
  H   H5827     1.0  0.74150  0.81302  0.71886  1.0000
  H   H5828     1.0  0.85935  0.96787  0.50527  1.0000
  C   C3279     1.0  0.98706  0.82007  0.50745  1.0000
  H   H5829     1.0  0.81842  0.50636  0.54276  1.0000
  H   H5830     1.0  0.76530  0.94015  0.47777  1.0000
  H   H5831     1.0  0.90295  0.90614  0.47851  1.0000
  H   H5832     1.0  0.84462  0.49439  0.54257  1.0000
  C   C3280     1.0  0.81122  0.80304  0.71386  1.0000
  C   C3281     1.0  0.76064  0.95029  0.48714  1.0000
  H   H5833     1.0  0.73021  0.97361  0.50421  1.0000
  H   H5834     1.0  0.66210  0.64607  0.57291  1.0000
  H   H5835     1.0  0.66533  0.51979  0.65569  1.0000
  H   H5836     1.0  0.73134  0.80264  0.70449  1.0000
  H   H5837     1.0  0.77292  0.81725  0.70042  1.0000
  H   H5838     1.0  0.78591  0.96463  0.68068  1.0000
  H   H5839     1.0  0.97854  0.72196  0.50052  1.0000
  C   C3282     1.0  0.72110  0.48990  0.65997  1.0000
  H   H5840     1.0  0.75111  0.82894  0.69084  1.0000
  H   H5841     1.0  0.77846  0.74453  0.71311  1.0000
  C   C3283     1.0  0.74554  0.80334  0.70923  1.0000
  C   C3284     1.0  0.72030  0.69734  0.71783  1.0000
  H   H5842     1.0  0.98563  0.65859  0.56216  1.0000
  C   C3285     1.0  0.98717  0.78932  0.52713  1.0000
  H   H5843     1.0  0.98451  0.63349  0.54575  1.0000
  H   H5844     1.0  0.98215  0.49457  0.48295  1.0000
  H   H5845     1.0  0.98192  0.60973  0.52665  1.0000
  H   H5846     1.0  0.72303  0.50510  0.68628  1.0000
  H   H5847     1.0  0.77188  0.78178  0.71606  1.0000
  C   C3286     1.0  0.65710  0.90713  0.56454  1.0000
  C   C3287     1.0  0.66969  0.64956  0.72040  1.0000
  H   H5848     1.0  0.98554  0.57463  0.91228  1.0000
  Fe  Fe364     1.0  0.66821  0.96997  0.95568  1.0000
  S   S730      1.0  0.81393  0.97723  0.82612  1.0000
  H   H5849     1.0  0.98131  0.51327  0.93270  1.0000
  Fe  Fe365     1.0  0.76207  0.53554  0.83157  1.0000
  S   S731      1.0  0.78902  0.51062  0.82878  1.0000
  S   S732      1.0  0.76076  0.56521  0.81449  1.0000
  C   C3288     1.0  0.69542  0.89477  0.91355  1.0000
  C   C3289     1.0  0.79681  0.96425  0.90923  1.0000
  S   S733      1.0  0.76151  0.53399  0.85796  1.0000
  S   S734      1.0  0.73892  0.51450  0.83369  1.0000
  Fe  Fe366     1.0  0.93639  0.52473  0.90974  1.0000
  S   S735      1.0  0.90359  0.53147  0.92056  1.0000
  H   H5850     1.0  0.85602  0.48672  0.84731  1.0000
  Fe  Fe367     1.0  0.93936  0.56998  0.89825  1.0000
  S   S736      1.0  0.90686  0.57992  0.90833  1.0000
  S   S737      1.0  0.96303  0.58971  0.88505  1.0000
  Fe  Fe368     1.0  0.91361  0.55695  0.92988  1.0000
  S   S738      1.0  0.90184  0.56180  0.95559  1.0000
  Fe  Fe369     1.0  0.89955  0.55341  0.89817  1.0000
  S   S739      1.0  0.87299  0.55874  0.88360  1.0000
  S   S740      1.0  0.94659  0.54880  0.92055  1.0000
  S   S741      1.0  0.93189  0.54492  0.88662  1.0000
  C   C3290     1.0  0.75167  0.79660  0.74768  1.0000
  C   C3291     1.0  0.98777  0.96760  0.91266  1.0000
  S   S742      1.0  0.78706  0.95158  0.85588  1.0000
  H   H5851     1.0  0.89702  0.50240  0.83518  1.0000
  Fe  Fe370     1.0  0.79298  0.95361  0.82896  1.0000
  S   S743      1.0  0.80111  0.93072  0.81098  1.0000
  H   H5852     1.0  0.79557  0.96175  0.92244  1.0000
  Fe  Fe371     1.0  0.81647  0.79706  0.77015  1.0000
  S   S744      1.0  0.82440  0.76373  0.77913  1.0000
  S   S745      1.0  0.81161  0.80979  0.74449  1.0000
  Fe  Fe372     1.0  0.81516  0.81031  0.80292  1.0000
  S   S746      1.0  0.82272  0.77762  0.81431  1.0000
  S   S747      1.0  0.81059  0.83337  0.82053  1.0000
  Fe  Fe373     1.0  0.84595  0.77394  0.79269  1.0000
  S   S748      1.0  0.87766  0.75569  0.79340  1.0000
  Fe  Fe374     1.0  0.80055  0.77011  0.80000  1.0000
  S   S749      1.0  0.77755  0.74907  0.81188  1.0000
  S   S750      1.0  0.83997  0.80701  0.78202  1.0000
  S   S751      1.0  0.79109  0.80300  0.79035  1.0000
  H   H5853     1.0  0.67000  0.60038  0.81947  1.0000
  C   C3292     1.0  0.70750  0.87704  0.90530  1.0000
  C   C3293     1.0  0.66292  0.93754  0.92071  1.0000
  Fe  Fe375     1.0  0.96613  0.75019  0.84533  1.0000
  S   S752      1.0  0.93636  0.77011  0.84005  1.0000
  S   S753      1.0  0.96768  0.74023  0.87143  1.0000
  Fe  Fe376     1.0  0.69708  0.69936  0.78133  1.0000
  S   S754      1.0  0.70193  0.66572  0.78026  1.0000
  S   S755      1.0  0.72378  0.71611  0.77030  1.0000
  Fe  Fe377     1.0  0.67217  0.67160  0.77059  1.0000
  Fe  Fe378     1.0  0.68319  0.66258  0.80437  1.0000
  S   S756      1.0  0.68866  0.63804  0.82542  1.0000
  S   S757      1.0  0.68077  0.69582  0.80640  1.0000
  H   H5854     1.0  0.72470  0.56731  0.89674  1.0000
  H   H5855     1.0  0.74761  0.76513  0.75570  1.0000
  C   C3294     1.0  0.89359  0.75899  0.80692  1.0000
  C   C3295     1.0  0.91397  0.74950  0.80535  1.0000
  C   C3296     1.0  0.92720  0.75228  0.81567  1.0000
  C   C3297     1.0  0.92009  0.76461  0.82764  1.0000
  C   C3298     1.0  0.89957  0.77358  0.82949  1.0000
  C   C3299     1.0  0.88634  0.77079  0.81921  1.0000
  H   H5856     1.0  0.91967  0.74027  0.79591  1.0000
  H   H5857     1.0  0.94299  0.74534  0.81410  1.0000
  H   H5858     1.0  0.89395  0.78277  0.83893  1.0000
  H   H5859     1.0  0.87058  0.77787  0.82069  1.0000
  C   C3300     1.0  0.76269  0.74000  0.80023  1.0000
  C   C3301     1.0  0.74420  0.73336  0.80742  1.0000
  C   C3302     1.0  0.73208  0.72599  0.79841  1.0000
  C   C3303     1.0  0.73865  0.72479  0.78222  1.0000
  C   C3304     1.0  0.75753  0.73063  0.77522  1.0000
  C   C3305     1.0  0.76934  0.73857  0.78408  1.0000
  H   H5860     1.0  0.73903  0.73435  0.81993  1.0000
  H   H5861     1.0  0.71756  0.72156  0.80394  1.0000
  H   H5862     1.0  0.76312  0.72907  0.76289  1.0000
  H   H5863     1.0  0.78373  0.74330  0.77851  1.0000
  C   C3306     1.0  0.80227  0.90374  0.81399  1.0000
  C   C3307     1.0  0.80599  0.89340  0.80057  1.0000
  C   C3308     1.0  0.80814  0.87191  0.80229  1.0000
  C   C3309     1.0  0.80653  0.86051  0.81751  1.0000
  C   C3310     1.0  0.80258  0.87086  0.83094  1.0000
  C   C3311     1.0  0.80045  0.89235  0.82921  1.0000
  H   H5864     1.0  0.80744  0.90208  0.78876  1.0000
  H   H5865     1.0  0.81124  0.86417  0.79186  1.0000
  H   H5866     1.0  0.80131  0.86219  0.84277  1.0000
  H   H5867     1.0  0.79763  0.90007  0.83964  1.0000
  H   H5868     1.0  0.72428  0.91823  0.94792  1.0000
  H   H5869     1.0  0.66268  0.59390  0.76787  1.0000
  H   H5870     1.0  0.81785  0.76552  0.74521  1.0000
  C   C3312     1.0  0.96128  0.61670  0.88261  1.0000
  C   C3313     1.0  0.94357  0.62912  0.88824  1.0000
  C   C3314     1.0  0.94326  0.65037  0.88698  1.0000
  C   C3315     1.0  0.96049  0.65948  0.87979  1.0000
  C   C3316     1.0  0.97798  0.64714  0.87370  1.0000
  C   C3317     1.0  0.97839  0.62584  0.87519  1.0000
  H   H5871     1.0  0.93021  0.62230  0.89371  1.0000
  C   C3318     1.0  0.86591  0.49727  0.83968  1.0000
  H   H5872     1.0  0.96905  0.67329  0.82682  1.0000
  H   H5873     1.0  0.79072  0.70894  0.72306  1.0000
  C   C3319     1.0  0.74060  0.58516  0.81797  1.0000
  C   C3320     1.0  0.73890  0.60259  0.80648  1.0000
  C   C3321     1.0  0.72287  0.61869  0.80864  1.0000
  C   C3322     1.0  0.70867  0.61774  0.82247  1.0000
  C   C3323     1.0  0.71046  0.60041  0.83409  1.0000
  C   C3324     1.0  0.72629  0.58404  0.83179  1.0000
  H   H5874     1.0  0.74997  0.60355  0.79579  1.0000
  H   H5875     1.0  0.72153  0.63188  0.79961  1.0000
  H   H5876     1.0  0.69950  0.59953  0.84484  1.0000
  H   H5877     1.0  0.72750  0.57064  0.84074  1.0000
  C   C3325     1.0  0.82896  0.51747  0.87454  1.0000
  C   C3326     1.0  0.84190  0.51057  0.88627  1.0000
  C   C3327     1.0  0.85512  0.52311  0.88948  1.0000
  C   C3328     1.0  0.85595  0.54254  0.88070  1.0000
  C   C3329     1.0  0.84288  0.54948  0.86909  1.0000
  C   C3330     1.0  0.82940  0.53710  0.86606  1.0000
  Fe  Fe379     1.0  0.78694  0.50776  0.85553  1.0000
  H   H5878     1.0  0.86470  0.51774  0.89870  1.0000
  H   H5879     1.0  0.84328  0.56453  0.86229  1.0000
  H   H5880     1.0  0.81958  0.54263  0.85700  1.0000
  H   H5881     1.0  0.71507  0.76518  0.75781  1.0000
  H   H5882     1.0  0.71318  0.55092  0.80161  1.0000
  H   H5883     1.0  0.74305  0.62702  0.73567  1.0000
  H   H5884     1.0  0.75154  0.51036  0.95271  1.0000
  C   C3331     1.0  0.69340  0.97849  0.90906  1.0000
  H   H5885     1.0  0.94576  0.56010  0.95289  1.0000
  H   H5886     1.0  0.91621  0.94707  0.88069  1.0000
  H   H5887     1.0  0.92292  0.64325  0.93747  1.0000
  N   N182      1.0  0.74543  0.77044  0.73044  1.0000
  H   H5888     1.0  0.79891  0.97615  0.73034  1.0000
  C   C3332     1.0  0.66354  0.66093  0.73314  1.0000
  C   C3333     1.0  0.77446  0.71515  0.72641  1.0000
  N   N183      1.0  0.78764  0.97432  0.76433  1.0000
  H   H5889     1.0  0.74960  0.78984  0.77366  1.0000
  H   H5890     1.0  0.70106  0.58524  0.80156  1.0000
  C   C3334     1.0  0.81176  0.98416  0.78173  1.0000
  H   H5891     1.0  0.78414  0.98246  0.95479  1.0000
  N   N184      1.0  0.90401  0.70318  0.84983  1.0000
  C   C3335     1.0  0.88557  0.71632  0.84370  1.0000
  C   C3336     1.0  0.91415  0.71525  0.85889  1.0000
  C   C3337     1.0  0.91894  0.69747  0.83552  1.0000
  C   C3338     1.0  0.89891  0.68366  0.86004  1.0000
  C   C3339     1.0  0.88250  0.68582  0.87478  1.0000
  C   C3340     1.0  0.87444  0.70687  0.83294  1.0000
  C   C3341     1.0  0.93952  0.68455  0.83917  1.0000
  C   C3342     1.0  0.90012  0.73153  0.86825  1.0000
  C   C3343     1.0  0.91162  0.73961  0.87918  1.0000
  C   C3344     1.0  0.87760  0.66487  0.88306  1.0000
  C   C3345     1.0  0.85427  0.72025  0.82991  1.0000
  C   C3346     1.0  0.95436  0.68224  0.82383  1.0000
  H   H5892     1.0  0.89011  0.73072  0.83665  1.0000
  H   H5893     1.0  0.87401  0.72124  0.85363  1.0000
  H   H5894     1.0  0.92326  0.70473  0.86740  1.0000
  H   H5895     1.0  0.92538  0.72387  0.85062  1.0000
  H   H5896     1.0  0.92228  0.71153  0.82726  1.0000
  H   H5897     1.0  0.91236  0.68832  0.82855  1.0000
  H   H5898     1.0  0.89442  0.67344  0.85270  1.0000
  H   H5899     1.0  0.91270  0.67488  0.86486  1.0000
  H   H5900     1.0  0.86810  0.69501  0.87152  1.0000
  H   H5901     1.0  0.88824  0.69285  0.88363  1.0000
  H   H5902     1.0  0.88384  0.70577  0.82110  1.0000
  H   H5903     1.0  0.87103  0.69149  0.83847  1.0000
  H   H5904     1.0  0.93727  0.66893  0.84509  1.0000
  H   H5905     1.0  0.94683  0.69156  0.84710  1.0000
  H   H5906     1.0  0.89430  0.74477  0.85975  1.0000
  H   H5907     1.0  0.88685  0.72550  0.87570  1.0000
  H   H5908     1.0  0.91840  0.72696  0.88769  1.0000
  H   H5909     1.0  0.92385  0.74770  0.87198  1.0000
  H   H5910     1.0  0.90105  0.75065  0.88609  1.0000
  H   H5911     1.0  0.86611  0.66673  0.89381  1.0000
  H   H5912     1.0  0.87127  0.65714  0.87492  1.0000
  H   H5913     1.0  0.89150  0.65507  0.88688  1.0000
  H   H5914     1.0  0.84715  0.71386  0.82143  1.0000
  H   H5915     1.0  0.84355  0.72089  0.84120  1.0000
  H   H5916     1.0  0.85682  0.73601  0.82458  1.0000
  C   C3347     1.0  0.67586  0.59296  0.75824  1.0000
  C   C3348     1.0  0.77223  0.73835  0.72541  1.0000
  C   C3349     1.0  0.94377  0.63628  0.96395  1.0000
  N   N185      1.0  0.87347  0.84505  0.82122  1.0000
  C   C3350     1.0  0.87572  0.82857  0.81080  1.0000
  C   C3351     1.0  0.85721  0.84155  0.83547  1.0000
  C   C3352     1.0  0.86639  0.86510  0.81139  1.0000
  C   C3353     1.0  0.89340  0.84671  0.82652  1.0000
  C   C3354     1.0  0.90656  0.82654  0.83265  1.0000
  C   C3355     1.0  0.89050  0.83139  0.79493  1.0000
  C   C3356     1.0  0.86044  0.88386  0.82054  1.0000
  C   C3357     1.0  0.85487  0.81915  0.84270  1.0000
  C   C3358     1.0  0.83901  0.81833  0.85768  1.0000
  C   C3359     1.0  0.92662  0.83064  0.83670  1.0000
  C   C3360     1.0  0.89699  0.81140  0.78791  1.0000
  C   C3361     1.0  0.85669  0.90367  0.80905  1.0000
  H   H5917     1.0  0.86058  0.82738  0.80764  1.0000
  H   H5918     1.0  0.88073  0.81342  0.81741  1.0000
  H   H5919     1.0  0.85911  0.84977  0.84525  1.0000
  H   H5920     1.0  0.84195  0.84828  0.83221  1.0000
  H   H5921     1.0  0.85286  0.86377  0.80588  1.0000
  H   H5922     1.0  0.87834  0.86903  0.80125  1.0000
  H   H5923     1.0  0.90323  0.85489  0.81666  1.0000
  H   H5924     1.0  0.89071  0.85634  0.83624  1.0000
  H   H5925     1.0  0.91057  0.81602  0.82356  1.0000
  H   H5926     1.0  0.89863  0.81881  0.84371  1.0000
  H   H5927     1.0  0.88282  0.84274  0.78602  1.0000
  H   H5928     1.0  0.90453  0.83684  0.79657  1.0000
  H   H5929     1.0  0.87257  0.88543  0.82733  1.0000
  H   H5930     1.0  0.84624  0.88247  0.82905  1.0000
  H   H5931     1.0  0.84959  0.81135  0.83403  1.0000
  H   H5932     1.0  0.86926  0.81031  0.84602  1.0000
  H   H5933     1.0  0.84373  0.82535  0.86705  1.0000
  H   H5934     1.0  0.82396  0.82648  0.85480  1.0000
  H   H5935     1.0  0.83737  0.80218  0.86240  1.0000
  H   H5936     1.0  0.92377  0.84074  0.84610  1.0000
  H   H5937     1.0  0.93563  0.81597  0.84124  1.0000
  H   H5938     1.0  0.93579  0.83779  0.82590  1.0000
  H   H5939     1.0  0.90593  0.81428  0.77589  1.0000
  H   H5940     1.0  0.90673  0.80033  0.79562  1.0000
  H   H5941     1.0  0.88353  0.80453  0.78677  1.0000
  H   H5942     1.0  0.84537  0.90264  0.80130  1.0000
  H   H5943     1.0  0.85064  0.91658  0.81593  1.0000
  H   H5944     1.0  0.87109  0.90698  0.80141  1.0000
  N   N186      1.0  0.70493  0.58545  0.77594  1.0000
  C   C3362     1.0  0.71248  0.60547  0.76914  1.0000
  H   H5945     1.0  0.81141  0.96993  0.90436  1.0000
  C   C3363     1.0  0.72334  0.56964  0.77893  1.0000
  H   H5946     1.0  0.90084  0.93140  0.86099  1.0000
  C   C3364     1.0  0.72663  0.60591  0.75291  1.0000
  C   C3365     1.0  0.71895  0.54892  0.78898  1.0000
  H   H5947     1.0  0.81086  0.93279  0.90828  1.0000
  C   C3366     1.0  0.81627  0.77269  0.73315  1.0000
  C   C3367     1.0  0.73276  0.62711  0.74721  1.0000
  C   C3368     1.0  0.73824  0.53315  0.78896  1.0000
  H   H5948     1.0  0.72078  0.61006  0.77782  1.0000
  H   H5949     1.0  0.69972  0.61808  0.76748  1.0000
  H   H5950     1.0  0.88398  0.60890  0.94173  1.0000
  C   C3369     1.0  0.66203  0.60604  0.80888  1.0000
  H   H5951     1.0  0.73372  0.57574  0.78520  1.0000
  H   H5952     1.0  0.73249  0.56599  0.76745  1.0000
  H   H5953     1.0  0.68657  0.90475  0.90467  1.0000
  H   H5954     1.0  0.97199  0.50455  0.88272  1.0000
  H   H5955     1.0  0.74085  0.59497  0.75391  1.0000
  H   H5956     1.0  0.71884  0.60217  0.74359  1.0000
  C   C3370     1.0  0.81731  0.76061  0.72104  1.0000
  H   H5957     1.0  0.80762  0.51686  0.90990  1.0000
  H   H5958     1.0  0.81229  0.53233  0.93312  1.0000
  H   H5959     1.0  0.85974  0.51316  0.84190  1.0000
  C   C3371     1.0  0.78046  0.49021  0.91173  1.0000
  H   H5960     1.0  0.71912  0.63868  0.74536  1.0000
  C   C3372     1.0  0.94364  0.49967  0.95585  1.0000
  H   H5961     1.0  0.73477  0.51869  0.79650  1.0000
  H   H5962     1.0  0.74424  0.52977  0.77667  1.0000
  H   H5963     1.0  0.75018  0.53873  0.79387  1.0000
  H   H5964     1.0  0.72835  0.54556  0.88634  1.0000
  C   C3373     1.0  0.68734  0.77433  0.74775  1.0000
  H   H5965     1.0  0.96165  0.69223  0.91917  1.0000
  H   H5966     1.0  0.66842  0.87846  0.95934  1.0000
  C   C3374     1.0  0.74046  0.95964  0.79515  1.0000
  C   C3375     1.0  0.71174  0.69528  0.73556  1.0000
  H   H5967     1.0  0.79478  0.55482  0.92682  1.0000
  H   H5968     1.0  0.73562  0.80405  0.74851  1.0000
  H   H5969     1.0  0.78990  0.53901  0.90379  1.0000
  H   H5970     1.0  0.70947  0.50340  0.94704  1.0000
  H   H5971     1.0  0.70756  0.54230  0.78431  1.0000
  H   H5972     1.0  0.77928  0.94289  0.74902  1.0000
  C   C3376     1.0  0.77811  0.51945  0.92562  1.0000
  C   C3377     1.0  0.70640  0.96684  0.91937  1.0000
  H   H5973     1.0  0.72443  0.69177  0.74282  1.0000
  H   H5974     1.0  0.89389  0.62367  0.92348  1.0000
  H   H5975     1.0  0.70244  0.68268  0.73881  1.0000
  C   C3378     1.0  0.74960  0.74774  0.72967  1.0000
  C   C3379     1.0  0.68893  0.49180  0.92286  1.0000
  S   S758      1.0  0.67427  0.65242  0.75089  1.0000
  H   H5976     1.0  0.90928  0.96057  0.92278  1.0000
  H   H5977     1.0  0.97983  0.67525  0.93028  1.0000
  C   C3380     1.0  0.69150  0.58732  0.79179  1.0000
  H   H5978     1.0  0.67641  0.49271  0.83987  1.0000
  H   H5979     1.0  0.68107  0.77414  0.73660  1.0000
  H   H5980     1.0  0.95308  0.59030  0.93668  1.0000
  H   H5981     1.0  0.66877  0.61361  0.78349  1.0000
  H   H5982     1.0  0.78502  0.50930  0.93560  1.0000
  H   H5983     1.0  0.88329  0.72923  0.72566  1.0000
  H   H5984     1.0  0.76834  0.53210  0.93123  1.0000
  H   H5985     1.0  0.74398  0.73912  0.74132  1.0000
  H   H5986     1.0  0.89971  0.97573  0.89604  1.0000
  C   C3381     1.0  0.93906  0.56305  0.96476  1.0000
  H   H5987     1.0  0.80015  0.94496  0.89062  1.0000
  C   C3382     1.0  0.65825  0.89125  0.95338  1.0000
  H   H5988     1.0  0.93634  0.50498  0.86115  1.0000
  H   H5989     1.0  0.86537  0.49625  0.82699  1.0000
  C   C3383     1.0  0.93005  0.62863  0.93320  1.0000
  H   H5990     1.0  0.66953  0.88021  0.92349  1.0000
  H   H5991     1.0  0.66531  0.94766  0.92900  1.0000
  N   N187      1.0  0.90990  0.48947  0.86572  1.0000
  H   H5992     1.0  0.68200  0.57479  0.79489  1.0000
  C   C3384     1.0  0.73569  0.55384  0.89343  1.0000
  Fe  Fe380     1.0  0.76552  0.48923  0.83280  1.0000
  C   C3385     1.0  0.77840  0.97937  0.90357  1.0000
  N   N188      1.0  0.93679  0.96972  0.87517  1.0000
  H   H5993     1.0  0.74699  0.51166  0.89942  1.0000
  H   H5994     1.0  0.68658  0.61983  0.79442  1.0000
  C   C3386     1.0  0.66889  0.58543  0.74447  1.0000
  H   H5995     1.0  0.93361  0.95809  0.84526  1.0000
  H   H5996     1.0  0.89901  0.50692  0.88528  1.0000
  H   H5997     1.0  0.89761  0.52991  0.84864  1.0000
  C   C3387     1.0  0.79783  0.94347  0.90386  1.0000
  H   H5998     1.0  0.97881  0.49942  0.96713  1.0000
  H   H5999     1.0  0.81847  0.54801  0.91433  1.0000
  H   H6000     1.0  0.94815  0.67408  0.81591  1.0000
  H   H6001     1.0  0.78126  0.93105  0.76938  1.0000
  C   C3388     1.0  0.90954  0.97704  0.91835  1.0000
  C   C3389     1.0  0.70042  0.89887  0.95487  1.0000
  H   H6002     1.0  0.74936  0.55932  0.88599  1.0000
  H   H6003     1.0  0.70928  0.88674  0.94814  1.0000
  H   H6004     1.0  0.76444  0.97282  0.90919  1.0000
  H   H6005     1.0  0.71598  0.51026  0.96474  1.0000
  H   H6006     1.0  0.84161  0.49545  0.89295  1.0000
  H   H6007     1.0  0.74930  0.94623  0.80166  1.0000
  N   N189      1.0  0.75751  0.66036  0.81871  1.0000
  C   C3390     1.0  0.76140  0.65578  0.80175  1.0000
  C   C3391     1.0  0.76071  0.64072  0.83021  1.0000
  C   C3392     1.0  0.73542  0.66974  0.82212  1.0000
  C   C3393     1.0  0.77039  0.67562  0.82117  1.0000
  C   C3394     1.0  0.79359  0.67105  0.81577  1.0000
  C   C3395     1.0  0.75734  0.67421  0.78867  1.0000
  C   C3396     1.0  0.72757  0.67316  0.83971  1.0000
  C   C3397     1.0  0.77761  0.62343  0.82473  1.0000
  C   C3398     1.0  0.78015  0.60548  0.83813  1.0000
  C   C3399     1.0  0.80399  0.68924  0.81687  1.0000
  C   C3400     1.0  0.76352  0.66803  0.77199  1.0000
  C   C3401     1.0  0.70548  0.68367  0.84158  1.0000
  H   H6008     1.0  0.75182  0.64439  0.80050  1.0000
  H   H6009     1.0  0.77728  0.64841  0.79859  1.0000
  H   H6010     1.0  0.76358  0.64398  0.84188  1.0000
  H   H6011     1.0  0.74655  0.63347  0.83289  1.0000
  H   H6012     1.0  0.72535  0.66014  0.81866  1.0000
  H   H6013     1.0  0.73252  0.68494  0.81477  1.0000
  H   H6014     1.0  0.76487  0.69113  0.81513  1.0000
  H   H6015     1.0  0.76866  0.67730  0.83401  1.0000
  H   H6016     1.0  0.79723  0.66810  0.80322  1.0000
  H   H6017     1.0  0.80041  0.65781  0.82369  1.0000
  H   H6018     1.0  0.74088  0.68022  0.78979  1.0000
  H   H6019     1.0  0.76598  0.68656  0.78949  1.0000
  H   H6020     1.0  0.73665  0.68306  0.84380  1.0000
  H   H6021     1.0  0.72821  0.65844  0.84784  1.0000
  H   H6022     1.0  0.77347  0.61732  0.81463  1.0000
  H   H6023     1.0  0.79250  0.62877  0.82079  1.0000
  H   H6024     1.0  0.78504  0.61031  0.84848  1.0000
  H   H6025     1.0  0.76564  0.59913  0.84204  1.0000
  H   H6026     1.0  0.79190  0.59314  0.83374  1.0000
  H   H6027     1.0  0.79827  0.70290  0.80868  1.0000
  H   H6028     1.0  0.80112  0.69302  0.82924  1.0000
  H   H6029     1.0  0.82068  0.68552  0.81336  1.0000
  H   H6030     1.0  0.75493  0.65592  0.77051  1.0000
  H   H6031     1.0  0.75995  0.68149  0.76293  1.0000
  H   H6032     1.0  0.78012  0.66249  0.76987  1.0000
  H   H6033     1.0  0.70028  0.68583  0.85424  1.0000
  H   H6034     1.0  0.70408  0.69891  0.83412  1.0000
  H   H6035     1.0  0.69542  0.67420  0.83810  1.0000
  H   H6036     1.0  0.67814  0.98478  0.91381  1.0000
  H   H6037     1.0  0.68206  0.51818  0.90543  1.0000
  H   H6038     1.0  0.70496  0.57369  0.75393  1.0000
  C   C3402     1.0  0.77317  0.97103  0.77972  1.0000
  H   H6039     1.0  0.73497  0.52715  0.94027  1.0000
  Fe  Fe381     1.0  0.76084  0.97688  0.85216  1.0000
  H   H6040     1.0  0.92303  0.49212  0.88663  1.0000
  H   H6041     1.0  0.68112  0.63615  0.72154  1.0000
  C   C3403     1.0  0.96424  0.93806  0.88016  1.0000
  C   C3404     1.0  0.95398  0.66165  0.92682  1.0000
  C   C3405     1.0  0.96961  0.67629  0.92118  1.0000
  H   H6042     1.0  0.95734  0.69743  0.81735  1.0000
  C   C3406     1.0  0.98356  0.92651  0.87183  1.0000
  H   H6043     1.0  0.93936  0.54110  0.85084  1.0000
  C   C3407     1.0  0.69197  0.50387  0.90784  1.0000
  H   H6044     1.0  0.65560  0.59617  0.74051  1.0000
  H   H6045     1.0  0.73763  0.97256  0.80219  1.0000
  C   C3408     1.0  0.95313  0.61879  0.95412  1.0000
  H   H6046     1.0  0.69269  0.89171  0.96635  1.0000
  H   H6047     1.0  0.88758  0.63486  0.94185  1.0000
  H   H6048     1.0  0.65942  0.70750  0.83929  1.0000
  H   H6049     1.0  0.72554  0.95553  0.79400  1.0000
  H   H6050     1.0  0.76375  0.97521  0.93518  1.0000
  C   C3409     1.0  0.72018  0.97448  0.88616  1.0000
  H   H6051     1.0  0.90628  0.53241  0.86673  1.0000
  H   H6052     1.0  0.71726  0.86670  0.91342  1.0000
  H   H6053     1.0  0.71056  0.74888  0.74444  1.0000
  H   H6054     1.0  0.81294  0.95738  0.75063  1.0000
  H   H6055     1.0  0.67756  0.93414  0.91300  1.0000
  H   H6056     1.0  0.70220  0.70973  0.73856  1.0000
  H   H6057     1.0  0.67856  0.76529  0.75775  1.0000
  H   H6058     1.0  0.94312  0.66458  0.91797  1.0000
  S   S759      1.0  0.81296  0.50081  0.87075  1.0000
  H   H6059     1.0  0.69365  0.92179  0.93506  1.0000
  H   H6060     1.0  0.70746  0.92325  0.96603  1.0000
  C   C3410     1.0  0.87480  0.74459  0.72214  1.0000
  N   N190      1.0  0.76584  0.50764  0.91819  1.0000
  S   S760      1.0  0.82776  0.97691  0.87050  1.0000
  H   H6061     1.0  0.81628  0.91379  0.76025  1.0000
  H   H6062     1.0  0.92971  0.53911  0.83277  1.0000
  S   S761      1.0  0.97689  0.71889  0.83865  1.0000
  C   C3411     1.0  0.71556  0.91107  0.95897  1.0000
  C   C3412     1.0  0.92212  0.50531  0.85602  1.0000
  H   H6063     1.0  0.92974  0.63153  0.92011  1.0000
  C   C3413     1.0  0.75193  0.96575  0.77859  1.0000
  H   H6064     1.0  0.79690  0.90724  0.75068  1.0000
  C   C3414     1.0  0.80508  0.91983  0.75183  1.0000
  H   H6065     1.0  0.68778  0.56392  0.77000  1.0000
  H   H6066     1.0  0.97890  0.67274  0.90974  1.0000
  H   H6067     1.0  0.98095  0.92306  0.86019  1.0000
  C   C3415     1.0  0.95832  0.95947  0.87069  1.0000
  H   H6068     1.0  0.78052  0.95909  0.78846  1.0000
  H   H6069     1.0  0.93438  0.95366  0.89937  1.0000
  H   H6070     1.0  0.74254  0.97934  0.77278  1.0000
  C   C3416     1.0  0.91549  0.61285  0.94048  1.0000
  Fe  Fe382     1.0  0.97933  0.70892  0.86472  1.0000
  C   C3417     1.0  0.78982  0.93742  0.75796  1.0000
  C   C3418     1.0  0.67735  0.60792  0.79363  1.0000
  H   H6071     1.0  0.94145  0.51640  0.95178  1.0000
  C   C3419     1.0  0.69401  0.57812  0.76445  1.0000
  C   C3420     1.0  0.74149  0.54004  0.90852  1.0000
  C   C3421     1.0  0.97628  0.48828  0.88591  1.0000
  H   H6072     1.0  0.91265  0.93370  0.84044  1.0000
  H   H6073     1.0  0.80921  0.94772  0.77109  1.0000
  H   H6074     1.0  0.75293  0.95314  0.77158  1.0000
  H   H6075     1.0  0.94536  0.66558  0.93829  1.0000
  C   C3422     1.0  0.81324  0.79398  0.72962  1.0000
  H   H6076     1.0  0.96940  0.96916  0.87249  1.0000
  C   C3423     1.0  0.89393  0.62066  0.93661  1.0000
  C   C3424     1.0  0.90788  0.49184  0.88313  1.0000
  C   C3425     1.0  0.91804  0.56404  0.96925  1.0000
  N   N191      1.0  0.67001  0.90243  0.93897  1.0000
  H   H6077     1.0  0.69708  0.86822  0.90148  1.0000
  H   H6078     1.0  0.93787  0.93430  0.85796  1.0000
  C   C3426     1.0  0.75618  0.52059  0.90450  1.0000
  H   H6079     1.0  0.89666  0.95542  0.84797  1.0000
  C   C3427     1.0  0.92537  0.54239  0.84525  1.0000
  S   S762      1.0  0.95066  0.49159  0.91452  1.0000
  C   C3428     1.0  0.75911  0.79760  0.76337  1.0000
  H   H6080     1.0  0.92965  0.65981  0.89170  1.0000
  H   H6081     1.0  0.77072  0.76891  0.74345  1.0000
  H   H6082     1.0  0.76122  0.80537  0.73806  1.0000
  H   H6083     1.0  0.78186  0.74139  0.73375  1.0000
  C   C3429     1.0  0.91255  0.98084  0.90011  1.0000
  S   S763      1.0  0.76526  0.97706  0.82546  1.0000
  H   H6084     1.0  0.71839  0.79320  0.73323  1.0000
  H   H6085     1.0  0.75828  0.81379  0.76503  1.0000
  H   H6086     1.0  0.79161  0.49607  0.90173  1.0000
  H   H6087     1.0  0.77520  0.79017  0.76321  1.0000
  C   C3430     1.0  0.68078  0.88695  0.92832  1.0000
  H   H6088     1.0  0.96961  0.63670  0.91527  1.0000
  C   C3431     1.0  0.92085  0.95910  0.87079  1.0000
  H   H6089     1.0  0.76803  0.52488  0.89439  1.0000
  C   C3432     1.0  0.80083  0.95455  0.76090  1.0000
  C   C3433     1.0  0.70980  0.76498  0.74628  1.0000
  S   S764      1.0  0.71102  0.51316  0.87730  1.0000
  H   H6090     1.0  0.72718  0.53565  0.91567  1.0000
  C   C3434     1.0  0.72261  0.77676  0.73211  1.0000
  H   H6091     1.0  0.74827  0.54934  0.91514  1.0000
  H   H6092     1.0  0.81334  0.92502  0.73992  1.0000
  H   H6093     1.0  0.91460  0.60972  0.95366  1.0000
  H   H6094     1.0  0.96160  0.95806  0.85781  1.0000
  H   H6095     1.0  0.73723  0.49558  0.92487  1.0000
  Fe  Fe383     1.0  0.74046  0.51075  0.86005  1.0000
  C   C3435     1.0  0.93333  0.96959  0.89305  1.0000
  N   N192      1.0  0.95180  0.62282  0.93645  1.0000
  H   H6096     1.0  0.81978  0.74415  0.72389  1.0000
  H   H6097     1.0  0.74827  0.95626  0.89165  1.0000
  H   H6098     1.0  0.72646  0.90081  0.96617  1.0000
  C   C3436     1.0  0.96443  0.63906  0.92797  1.0000
  H   H6099     1.0  0.96734  0.93974  0.89217  1.0000
  H   H6100     1.0  0.81964  0.96825  0.78358  1.0000
  C   C3437     1.0  0.75408  0.77423  0.74463  1.0000
  S   S765      1.0  0.69886  0.96179  0.94030  1.0000
  C   C3438     1.0  0.74983  0.49863  0.93066  1.0000
  H   H6101     1.0  0.92053  0.59827  0.93555  1.0000
  C   C3439     1.0  0.80583  0.54180  0.92273  1.0000
  C   C3440     1.0  0.70778  0.49762  0.89601  1.0000
  C   C3441     1.0  0.92669  0.94829  0.85567  1.0000
  H   H6102     1.0  0.68537  0.79029  0.75032  1.0000
  H   H6103     1.0  0.92737  0.50173  0.84366  1.0000
  H   H6104     1.0  0.71750  0.88310  0.89453  1.0000
  S   S766      1.0  0.66830  0.70564  0.77009  1.0000
  H   H6105     1.0  0.95184  0.92864  0.88177  1.0000
  C   C3442     1.0  0.73307  0.96263  0.89646  1.0000
  H   H6106     1.0  0.91741  0.55835  0.84502  1.0000
  H   H6107     1.0  0.87980  0.50665  0.86446  1.0000
  C   C3443     1.0  0.72619  0.95882  0.91296  1.0000
  C   C3444     1.0  0.74018  0.51094  0.94455  1.0000
  H   H6108     1.0  0.70664  0.90317  0.91670  1.0000
  S   S767      1.0  0.95971  0.68600  0.87982  1.0000
  C   C3445     1.0  0.68477  0.91288  0.94499  1.0000
  H   H6109     1.0  0.68932  0.87381  0.93536  1.0000
  H   H6110     1.0  0.67681  0.49683  0.93196  1.0000
  C   C3446     1.0  0.90803  0.94183  0.85103  1.0000
  H   H6111     1.0  0.86076  0.74692  0.73088  1.0000
  Fe  Fe384     1.0  0.80599  0.97727  0.85259  1.0000
  C   C3447     1.0  0.91124  0.52775  0.85476  1.0000
  C   C3448     1.0  0.79559  0.52894  0.91423  1.0000
  C   C3449     1.0  0.77596  0.98418  0.75074  1.0000
  H   H6112     1.0  0.67977  0.60840  0.75372  1.0000
  H   H6113     1.0  0.74085  0.63156  0.75606  1.0000
  H   H6114     1.0  0.78359  0.93693  0.90864  1.0000
  H   H6115     1.0  0.73628  0.94959  0.92083  1.0000
  H   H6116     1.0  0.67617  0.92440  0.95250  1.0000
  H   H6117     1.0  0.74103  0.74398  0.72076  1.0000
  C   C3450     1.0  0.96036  0.60321  0.92965  1.0000
  H   H6118     1.0  0.76518  0.97444  0.74874  1.0000
  H   H6119     1.0  0.76935  0.70814  0.73878  1.0000
  S   S768      1.0  0.72824  0.98002  0.86533  1.0000
  H   H6120     1.0  0.69543  0.50492  0.84570  1.0000
  H   H6121     1.0  0.94549  0.97636  0.89672  1.0000
  H   H6122     1.0  0.72621  0.48553  0.95894  1.0000
  H   H6123     1.0  0.98088  0.96256  0.92466  1.0000
  C   C3451     1.0  0.72189  0.50193  0.95438  1.0000
  C   C3452     1.0  0.70023  0.98216  0.89253  1.0000
  H   H6124     1.0  0.90664  0.97015  0.86937  1.0000
  H   H6125     1.0  0.68125  0.58482  0.73415  1.0000
  H   H6126     1.0  0.88424  0.75644  0.72265  1.0000
  H   H6127     1.0  0.66429  0.57004  0.74830  1.0000
  H   H6128     1.0  0.96923  0.61489  0.95627  1.0000
  H   H6129     1.0  0.95671  0.60433  0.91731  1.0000
  H   H6130     1.0  0.97858  0.63769  0.93345  1.0000
  H   H6131     1.0  0.94605  0.60509  0.95973  1.0000
  H   H6132     1.0  0.88915  0.49394  0.91451  1.0000
  C   C3453     1.0  0.98375  0.59647  0.92883  1.0000
  H   H6133     1.0  0.92196  0.98221  0.92298  1.0000
  H   H6134     1.0  0.71697  0.77483  0.72103  1.0000
  C   C3454     1.0  0.69282  0.49431  0.83785  1.0000
  H   H6135     1.0  0.95341  0.64862  0.96105  1.0000
  H   H6136     1.0  0.85310  0.98331  0.89257  1.0000
  H   H6137     1.0  0.69692  0.50100  0.82522  1.0000
  H   H6138     1.0  0.77926  0.97897  0.89054  1.0000
  H   H6139     1.0  0.92801  0.64260  0.96182  1.0000
  H   H6140     1.0  0.92977  0.49371  0.95437  1.0000
  H   H6141     1.0  0.98281  0.56367  0.93314  1.0000
  C   C3455     1.0  0.88786  0.49162  0.84322  1.0000
  H   H6142     1.0  0.95671  0.49218  0.94819  1.0000
  C   C3456     1.0  0.88886  0.49217  0.86106  1.0000
  H   H6143     1.0  0.75743  0.98378  0.96247  1.0000
  H   H6144     1.0  0.98815  0.91188  0.87941  1.0000
