data_image0
_chemical_formula_structural       SFeSH4CNH2CHCHFeS2FeS2FeCFeS3FeS2FeS2FeSFeS3C3H3C6H4C2H3CHC2HC7H4SHC7H4SC2HCH2CH5FeHNC12H20CH4CH2CHNHCH2SH4CH4CH2CH2CSCH3C3H5C2NC8HC3H15SNSCH9CHCHCSH6SH3CHC3H6CH10CSCH4CH4CHCFeH2CNC12H25C2H2CH3C4H4SHC3H6CHNCHC5HC2SNH2CFeSFeHCHCH3C2H3NH2CH3CH2C3HSH2CH6C2H3C2H2CHCH4CH4CSCHCNHC3H9C2H2CH7CH2CHSHCHC3H6CHCHCHC3H3NCSH2FeS2FeSHSFeS2FeS2FeSFeHS2CHSC6H3C6H5C2H2C2HC2HFeH2C6H8CH2CH2CH4C2H4CH2CHC3H2CHCHCH4CFeC2NC2H3CH2CH3CNC5HC3HCH4CH7C2HCHSH2CH6C2HSHCH2CFeH2CHCHCH7SH3CH4C2HC5H6CH5CFeC2H2SH5SH2CH4SH4SHCH4CH6CH2CH2CHCHCH2CH2CHCH4FeH2C2SH3NHCHCHC2H3CH3SH2CSHFeNC2H2CHSH4C2HNHC2HFeHSHCNC2H6C2H4CHS2H2SHCHCH9C2H7CH4CH2C2HFeHFeSNC2HS2H2CHC3H2FeCHFeS2FeH3S2FeS2FeSFeCFeS3CHS2FeSH2CHSHSC2SH2CH3C2NCHSC7H6CHC2H2C2H2FeHCHCHCH6C2H5NC6H2CH9CH3SH2CH2CH3C2H2NCH4CHFeH3C2H2SH4C2HSH5SNC4HC7H9CH9CH2CH5C4H4CHCH13C8H10C2H2CHC4HCH2C2H2CHCHCHCH8CH3SCHCH2CH4CHCHCH2CHCH2CHCH3CH2CH2C2H2CNC2HFeH3CH5FeS2H3CHFeSHSCSHCH3CSCSFeS2FeS2FeSFeHS2H3FeC2H2CHS3FeH5CH4CH2FeHCHSH2SH2CHCH2CH2C6H5SH3C2H2C3HCH5C6H7C2HFeCH2C8HC7H3C2H2CHCH2CH4CHCS2H3CH2CHC3H6CHCHCHCSH2CHSH4CHCSC5SC5HC2H3C2HCHCH2CSH4NC12H26CH8CHSHFe2H5CH3SHN2C11H13CH12FeHFeCH4NCHC2HCNHCHC2H3CSH2CH6FeHSFeCSH2CH6CSC2HSCSH3C2NH5CHC2HCH2CHCFeHCHCH3NHCHC2H2CHSH3CH5C2H2FeS2HC3H5SNH3FeCSFeS2H2FeS3C2H5CH2CHCHC6H3CHCH3CSHFeH2C2H2CHCHC2FeHC4H2CH2CH3SCH4CH2SHCHSHC2SH8FeHCHC2H4CHCH4CHCH3SCHCHCH2CHCHCH2CH2CH7SC5HCSC3H2CHCH3CH3C4H5SHSFeH2CH3C2SHCHSCH2SCH4CHFe2H4CH3CH4C2H2CNH2C2FeH4CH6SCHCH3CH3C3HC3SH3NC8FeC3H13CH4CH3CH2CH2NH2C2H7CH2CH2SCNH3CH2CH3FeSHCSHSFeS2H2FeS2FeSFeSFeS4CHNSCSCFeS2FeS2FeHFeCS2H6C4H4C6H4C5FeH2CHC6H4C6H5CSNC6H5SC4H4SNC6HCFeC2H3CH9CHC3H6NCSCSHC2HSH3CHCHFeHC2HCHC2H3C2HSH3CHCH3SH2CH3NC12H26CSCH2C2HC2H2CFeH5CHCHCHCH2NC12H22SHCH7CH3CHCFeC2H2NCH2C2H3CHCH2CH9CH4C2H3CH2FeHC4H3C2H10CNH2C2FeH4SH2CH4CH3CH4NC4HCH10C2H2CH3C2H8CHCH6CHSHC2H2FeH4SC2H6CHCH4NCH2C2H4C2H2SHNSCHSHSC3SCHFeS2FeS2FeSFeCS3HCHFeSHSFeSHFeSFeS3CH4CFeCHC4H5FeC3H4C6H4C6H7SC2H4SH6CH2C7H3C4H4CNC7H2C2FeH25CNC2HC3HCHC2H2CHCSH6SHSH2C3H5SCHCHC2H3CHCH6CHNHCFeH4C2H2CH3NCSHNC12H24NHCHSC2HC2HFeSH2CFeH2CH4CHCHCH2CH4CH2SH3C2HCH4CSH2C2H2NCFeCHCH3CFeCH2CHC4H3SHFeH4SCHNCH10CHC2H3C3H3C2H3CHCHCHCH8CHCH5C2NCHC4HCHC2H4FeCH8CHC2H9NCSCH3SH3CH3CH3SH2CHC2HCHFeH3CH3CH6C3H5CH2CH2CH3SH3CFeCHCFeS2FeSHCS2CH2CSHFeS2FeS2FeSFeS4H2C4H2C2SHC2SHSH2CH2CH8SH2C2HC2SHC2HCH2C6H3C6HCH3SHC6H6FeCHC2H5NHCHC6HC2H4CH2NH2SH7CH2CH3CHSHCHCFe2CH2CH3CFeC2H8CH3CHFeC2HNHC7HCH25CH3CNC4HC4H12CH8CH3CH7CH2CH5C2HCH5NH3CH2CH2CH2CH2NC12H18CFeCHNCH4CH3CHCHCSHC2SCHCH2SCFeSHFeSFeSHSFeS2FeS2FeSFeS4C2H2CH2CHSC3H4CHCH2C6H5C2FeHCNHC3HCHCHSHCH2CH2C6H4NHSH2CH2FeH3CHSH2CFeH4CH5CHC3HCHNCHCSFeHCH2CH3CHCH8SH7NH5NC7H18NC7FeC2H21CH6CH3CHSCH4CH4NHSCHCHCHC2HCHCHCSCH3CHCH2CH2CH3CH2C2H6CH6FeSH3CHSCH2SC2SH4CHFeH2C2NHCH2CH3C2HCSCFeH3SHCHSC2H2C4H3C3H2C3SCH3CHCHCSHC2HCH5C2HCHCHC2H2CH9C2HC3HC4H4CHSH2CH2CH3NH4FeHCH4CHC2HCHCHC3HC2H2C6H3C2SCH2CHS2H7CHCH2FeS2FeS2H2SNSCFeH3FeS2FeS2FeSFeHS2CH3SCSH4C3H2CHCHC3HC3HCH3CH2CHC2HSHC7H4FeCH3C6H4C6H4C2H2CHCHC2HSH2CH5C2H5SC4HCH2NC2HC5H5CH7C3HNCH7CH3CH3C2FeHSH3CSHCH4FeH6CH3FeH3C3HCH3CHCH4CHC4HCH2C3FeHCSH3SHCHCH3C2H6CH5SCH3CSH7CSHCH3C2H6NFeH7CHSHCNH4NC12H28CH2CH2C2HC3HFeH3FeSCH3FeH2CH9CHCH3CH2CH2FeH2CHSH3CNCH4C2FeS3FeSHC2SH2C2H2FeSHCH4FeS2FeSHFeSFeCS2HC3HC3HSHCH2C3FeH4CH2CHC6H5FeSHSH2C2H2CHC4HSH2CHC4H5CHCH9C2HC2HCH2C2H8CH2SH3CH3CH2CH3CH4CH4C2H2CHCH2CH4CH5SCSHCH7SCHCHCH2SHCHC3NC6H4C2H7CH5SH3CNCH7CHFeCH3CHCHC2H2SHCHC3NC12H28NH2C7HCHCH8CSHCH4NC2SH2SH2SCNC8HCHCH23C2H3CHC3HCH3CHC2HSHCHCHCHFe2H2CHCH2NCH2S2CH6CNCH3SH3C3H4SCHCHCHC4HCHC3H4CNH2CHCHFeSH3CHNFeSHFeS2FeSFeS3C2HFeS2HFeSHSHCH3CHCSH6FeSFeS2FeHFeS5HC2H3SC3FeSH3SCH5CHFeH4C2HCFeHNFeHNH3SCH5CH3C2H2CHSC6H3SCHCH3CHC6H4C6H4C6H6C2H2C4SHC2H4C4HCHCH4CH4CH5FeCH4CH2CHNH8C2H4CHCHC2H7CH2SHCH3NCH8SC2FeHCH2CSCH4C2H2SCH2C2H2CH4NC12H16CNH4CH9C2H2CHC2HC3HC2H6CH2CH2CH3C2HCH2NC6H4C2H2CH9CHCH8CHFeHCH3CH4C2HCHCHC2HC2H14CHFeHCH5CH2CHSH2CH2C2HFeNC2HCH2CH4CH2CHCH2CHCH5CFeSFeSFeH2NHSCH4FeH2S2HSCH3CH6FeS2FeSFeS3FeSFe2S2FeSFeS3CHC2H2C2H2C6H4CH3C6H5C2H2CSH2SCHC3H3SHC5H3CH2CH5SCHC4H3SC4H4SHSH14CHCH3C2HCH2CH3CH5CSHNC9H19C2HCHCHC3HNC11H13CH12CH4NC7SC2HCHCH7SH6CHC2H2C2H3NC2HC3HC3HCH2CHCH14C2H4CHNC2HSCH6C2H8C2H3FeH2CH2C2H6C2HNH2CH2C2H2CH3C2HSFeH2C2NC5H2C4H6CH5CH4CH4CHCH3FeHCH4S2CH2CHSH4SHC3HFeHC2H3CFeHCHCHC4HSHCHC2SCHCHCHFeSFeS2FeS2CH2SH4S2CHCH2FeSHS4CH3FeCHS2HC2HFeHC2H5C4H2C8H3C6H5C6HCH2C6H5CH10C2HCHCH2C2H2FeH2SHCFeHCH3NH4C2SHC3HCHCH2CHSH5CHCHCFeCNC12H27C2H4SH2CH4C2H5CHCH2SH7FeCHSHCHFeC4HC3H2C2H12C3H2SH2CH11NHSC2HCHCHNSH4CHCH6CHC3NCH3FeH3SH2CH4CH2SFeNHC2HFeH4CSHCH5NFeH2CH4C2HCH2SNC3H2SH4CHCHCH6SHCH4CFeCHC2H2C2H4CH2SFeS2FeS2FeSFeS3HC3H6C4H2CHCHC2FeHFeS3FeSFeSFeS2H2S2CH2SCFeSH3C4H3C5H12C2H3CHC7H4FeC2SH5C7H4C6H4CHCHC2H4C5SH2CSH2CHCFeH3CHCH5C3H2CSH2CH4CH5CHSHNC2HC5HCH5CHCH4C2H2CH2CH5NFeC2H3CH2NC8HC2H7CH10CH4NFeH3SH8CH2CH3CHCHC2HCHSHCH12CH3CNCH4C2SH2CH2SC2H2C4H2CHSHNC5HC6H16SH8C2H4S2H3C2H2CNC4H7CH5CH4C2HCH4CH2CHSHC2FeCH4FeHCH4C3H2FeH3C2HC2HNCH3FeS2FeS2FeSFeHS2HCSHSFeS2FeS2FeSFeS3H5CHSCHFeCH2FeHSCHFeHCHCHCH4CHC3HCHC4H5CHC2HC7H3C5H3C2HC5SH2FeH4C6H4CHC3SH2C2HC6H5CHNH2FeC6H5CHCH3CH2C3HCSCH8CH5CSNC12H7CH14NH4NC3H2C4H8CH3CH2CH12SH2CHSNC12H33S2CH2CSCHFeH4CHSH18C3H3C2H3SCHNH5C3HCH2CH9CH4CHCHSCH4CHCH2CH2SH2SC2NH4C3SH3SCHC2HNC2H7NH5CNCH4CH2SNHSCH4CSHCHCHC2H3CHC2H2C3HCH3CNH3C2H3CHCHCHC2FeH2NH2CSFeHC3H2SCH3FeHCHCH2C4H2CHCHCHCH5CHSCHCH2CH2C2SH4CFeHC2H5CH3CH2CH3C2H2SH3CH3SCH3CFeHCHFeH2CHSHCH2CHFeH3FeHCHCH3FeS2FeCH2SH2SFeS3FeSFeS2CHFeS2FeHS3HSHC2H2SFeHCHCH2CH2C2H3C4SH3C2HSH3CHSCHS2HSC6H8C2HCHCHCFeCHCH4CHC7H3C5H2C2H2CHS2HCHFeH3CH5C3SHCH2CSH2FeCSH5SH4CHCHNH3NC4NC2H3C2H16CHSHSH7CH4CH2C2H2CH2CH2CFeHC2H3SH3SFeC2HCHNH2CH4CHC2HCH2C2FeHFeCH2CHCH3CNC2HC4H12CH2CHCHC2SH7CH4SC2H3CH2SCHSCH5CFeHCHNHCSHCH6CHCH3CHC2HC2H6CHC2H2FeH5CH4CHFeH3FeH4C2H7CHCH3CSHC2NCNH2CFeS2FeSHFeCFeS5FeS2FeS2FeSFeCS2FeS2FeSCFe2S3HCFeHC2H3CH2CHC6H7C6H6SHC6H8CH2S2H3C6H3C4H3C3HCH2CH3CH4SCHCH2CHC2H2C3HCH2NH6CH2C2SH2CH2CHSCSH2C4H4C2H5C2H3CH2CHSH2CH3CH2CHCH3CH6CHCH5C2H3CH4C2HSHNH2C2H2CHCFeHCSHCHCH3C4NC12H28SHFeH6FeH2CH6NC9NCH4C2H3CHCH2C3H3C2H2CHCHCH6CH3CH4CH5CSH3NH4CH5CHCFeHCHSCH2CH8FeHC2H7NH4CH2FeHC3H5CH3C2H2C3H5FeS2FeS2FeCFeS4CFeSH2FeS2H2CSHCH2NC2S3H2C5H2C3H7CHCH4C6H5CHCH4CHCH2C4H3SH2CHSC2H3SHCHCH2FeSC3H5FeH2SCHC2H2C2H2CSC2H2CSC2H3SH2CSH7CH3CSH6CH3CHSCH2CH4NHNC11H26SHCH5C3SHNCH3CH2CHCHCFeHFeSHCHCHCHCSC4H6CFeSHCH10CH2NC6H2FeCH3CH3CHCH3CH3CH4FeH2CH8CFeHCH3SH4C2FeHC2H2C3FeSHC2HFeHC2FeCH2CH2CH2CH3CH3C2HCHCHC2SC4H3CHCSH5C2HCH2CH3FeSHFeS2FeSFeS3C2H2CHFeS2FeSCFeHFeS2C3H2CH3CH6CH3CH3CHCHCHCHCH4CH6C2HCHC6H4C3HCH2C2HCHCHC2H3SH3SCHSC4HC2FeCHSH2NH2CH2CHCH2CH3CHSH4C2HCSH2FeHCHCHC2H4CH4CH10SCH3C3H3NH4CH5SH4CH9C2H2C4HCH2CH4SH2CH3C3HCH2N2CH4NC4H2CHCH2CH3C2H2C2HCFeHSCH3C2H3C2H6C3FeS2FeSHFeSFeS2H2CHFeS2FeS2FeSFeCS2FeSHFeS2FeSFeS3FeH2SC3H5CHC6H4FeHSHCHC2H5NHCH2C3H3CHC3HCH3CHC2HCFeHC6H5CH3C3H2SHNC11H26C2H6CH2C2HCSHCHCHC3H10CH4CH5CHCHSH3CHCHCH4C2HC2H3SHCH3CHNHCH2NCH4CH5C3HCHCH2SC2HCH6CHCHC6HCHCH3CH2CH2CNH2C2HCHCHCH5CHCNC8H8SC2H3SHCH6C2H3C2H3CHCHC2HCH2NHC2S2CHCHCH2CH2CH5FeH4CH3CSHSHCH3C2HCH3C2H2NHCH2SH3CHCH2CFeCH2CH2C3H4CHCH2CH5CHC3H3CH2C4H2CHCH5CH4SH4CHSHCSHFeSHCSFeCH9CH3SFeS2FeS2Fe2S3HCH4CFeSHFeS2FeSFeS3H3CHCH2NHC6H7CH5C6H2C3H2C2H3C5H3FeC6H4CHCH3C3H4CHC3HC2H4SH2NFeCHCH2CH3CHCSH4CNC6HC5H12CH13CHNC10H21C2H7C2H2SH2C2H4SCH3C2H2C3H3CHC2SFeCH3CFeH2NHC2H2NC2HFeH2SH4C2HSH2CHC3H4C2HC3NC5HC4HCH5C2HFeH10C2H5CH6C3HC3H2CH5C2H3CH6CH2CSH3CH2CH3C2H3CHC2HCH2C2H4SC6H3CHC2NC2HCH2CH3NHCH10SCH8CH7CSFeCSHCH3CH2CH8CNCH3CH2CH2SH2CH4FeS2FeSHFeSFeS3HFeSH2CHCHCHC2H2CH3CH9C3H2C6H5C2NHC2HNC12H21CH7SC2HSCH3CSHCFeC2H7C3HCH2CSH3CHC2H4C2HSH4C2NH3SC3H2FeNH4FeH5SHFeH4CHSH2C2H2CHCNCHCHC2H3FeHCH2CHCHCHC2H3CSC2HC2HCHCNSCHSH2CH3C3HCHCH3CH2CHCSHFeCHC2HCH5C6H2C3SH6CHNSH3SHCHCHC2HCH4CH5CH8SCH3CH2CH2CHSCFeS2FeS2FeCFeS3HFeS2FeS2Fe2HS2CHCH2FeS2H2FeCHSHCHCHCHCH5C3HC2HC2NCHC2HCHCSH2CH5CH3SHNH3CH3CH3C6H4C6H6CHSH2CH5C4H2NHFeSHCH2CH4CH3CH3CH2FeCH3CH2CNHFeH2CH2SH2C3FeHCH6CH2CH4CHNC9H14FeH8CHCH2CHSCH3CHC2H2NC6H2C2HCH12SH2CH2CSCHFeNC11H15CH9NC7HC4H15C2HSH10FeCH3CH3CSH2SHC2H2C4HCH2CHCHCHC3H3CH5CHCHCH3SHCH5CHCH7CH4CHCH2SH2C
_chemical_formula_sum              "S768 Fe384 H6144 C3456 N192"
_cell_length_a       56.4405
_cell_length_b       56.6589
_cell_length_c       96.4922
_cell_angle_alpha    76.238
_cell_angle_beta     76.3244
_cell_angle_gamma    76.2169

_space_group_name_H-M_alt    "P 1"
_space_group_IT_number       1

loop_
  _space_group_symop_operation_xyz
  'x, y, z'

loop_
  _atom_site_type_symbol
  _atom_site_label
  _atom_site_symmetry_multiplicity
  _atom_site_fract_x
  _atom_site_fract_y
  _atom_site_fract_z
  _atom_site_occupancy
  S   S1        1.0  0.15198  0.05337  0.01311  1.0000
  Fe  Fe1       1.0  0.18221  0.07245  0.01364  1.0000
  S   S2        1.0  0.19121  0.07294  0.03534  1.0000
  H   H1        1.0  0.11785  0.12685  0.16399  1.0000
  H   H2        1.0  0.35092  0.27773  0.15529  1.0000
  H   H3        1.0  0.45321  0.01686  0.16302  1.0000
  H   H4        1.0  0.14262  0.07891  0.07874  1.0000
  C   C1        1.0  0.28297  0.08601  0.21998  1.0000
  N   N1        1.0  0.13467  0.04730  0.09580  1.0000
  H   H5        1.0  0.05926  0.13295  0.98517  1.0000
  H   H6        1.0  0.12353  0.99128  0.21410  1.0000
  C   C2        1.0  0.01604  0.99263  0.20346  1.0000
  H   H7        1.0  0.15816  0.27901  0.10836  1.0000
  C   C3        1.0  0.33722  0.18161  0.07749  1.0000
  H   H8        1.0  0.17357  0.04699  0.07034  1.0000
  Fe  Fe2       1.0  0.28562  0.24810  0.18125  1.0000
  S   S3        1.0  0.30966  0.21259  0.18998  1.0000
  S   S4        1.0  0.28214  0.28523  0.18744  1.0000
  Fe  Fe3       1.0  0.27140  0.22412  0.15942  1.0000
  S   S5        1.0  0.29474  0.18714  0.16652  1.0000
  S   S6        1.0  0.25096  0.23204  0.14071  1.0000
  Fe  Fe4       1.0  0.27875  0.19443  0.18910  1.0000
  C   C4        1.0  0.16026  0.16982  0.16603  1.0000
  Fe  Fe5       1.0  0.32316  0.20919  0.16652  1.0000
  S   S7        1.0  0.36418  0.19882  0.15718  1.0000
  S   S8        1.0  0.25360  0.23041  0.18192  1.0000
  S   S9        1.0  0.30081  0.24567  0.15789  1.0000
  Fe  Fe6       1.0  0.15418  0.16379  0.08976  1.0000
  S   S10       1.0  0.11460  0.17345  0.10104  1.0000
  S   S11       1.0  0.15902  0.16630  0.06550  1.0000
  Fe  Fe7       1.0  0.17401  0.15825  0.11755  1.0000
  S   S12       1.0  0.13574  0.16765  0.13080  1.0000
  S   S13       1.0  0.20578  0.14704  0.12994  1.0000
  Fe  Fe8       1.0  0.12550  0.14272  0.11920  1.0000
  S   S14       1.0  0.09992  0.11587  0.13046  1.0000
  Fe  Fe9       1.0  0.12847  0.19736  0.11145  1.0000
  S   S15       1.0  0.10959  0.23704  0.11195  1.0000
  S   S16       1.0  0.16421  0.13100  0.10713  1.0000
  S   S17       1.0  0.16764  0.19009  0.09898  1.0000
  C   C5        1.0  0.11603  0.08613  0.13677  1.0000
  C   C6        1.0  0.14120  0.08228  0.13728  1.0000
  C   C7        1.0  0.15426  0.05832  0.14166  1.0000
  H   H9        1.0  0.19684  0.07978  0.06266  1.0000
  H   H10       1.0  0.15070  0.09773  0.13425  1.0000
  H   H11       1.0  0.17389  0.05538  0.14173  1.0000
  C   C8        1.0  0.24008  0.20761  0.13733  1.0000
  C   C9        1.0  0.22996  0.21126  0.12485  1.0000
  C   C10       1.0  0.21988  0.19259  0.12230  1.0000
  C   C11       1.0  0.21988  0.17015  0.13222  1.0000
  C   C12       1.0  0.23096  0.16612  0.14437  1.0000
  C   C13       1.0  0.24081  0.18487  0.14701  1.0000
  H   H12       1.0  0.22964  0.22868  0.11721  1.0000
  H   H13       1.0  0.21199  0.19558  0.11270  1.0000
  H   H14       1.0  0.23149  0.14861  0.15191  1.0000
  H   H15       1.0  0.24878  0.18179  0.15659  1.0000
  C   C14       1.0  0.36531  0.24312  0.13774  1.0000
  C   C15       1.0  0.10376  0.06601  0.14108  1.0000
  H   H16       1.0  0.34540  0.24601  0.13984  1.0000
  H   H17       1.0  0.42144  0.01457  0.17115  1.0000
  H   H18       1.0  0.18392  0.07256  0.11271  1.0000
  C   C16       1.0  0.19353  0.05736  0.10675  1.0000
  H   H19       1.0  0.08424  0.06898  0.14072  1.0000
  C   C17       1.0  0.31341  0.26534  0.20713  1.0000
  C   C18       1.0  0.30159  0.28678  0.19894  1.0000
  H   H20       1.0  0.09950  0.09034  0.10413  1.0000
  C   C19       1.0  0.45896  0.30868  0.04195  1.0000
  C   C20       1.0  0.03006  0.25256  0.13709  1.0000
  C   C21       1.0  0.04287  0.22802  0.13738  1.0000
  C   C22       1.0  0.06742  0.22296  0.12974  1.0000
  C   C23       1.0  0.07937  0.24250  0.12215  1.0000
  C   C24       1.0  0.06694  0.26698  0.12243  1.0000
  C   C25       1.0  0.04223  0.27203  0.12975  1.0000
  H   H21       1.0  0.03354  0.21290  0.14315  1.0000
  H   H22       1.0  0.07701  0.20402  0.12964  1.0000
  H   H23       1.0  0.07633  0.28211  0.11677  1.0000
  H   H24       1.0  0.03262  0.29098  0.12972  1.0000
  S   S18       1.0  0.21097  0.05067  0.99854  1.0000
  H   H25       1.0  0.19983  0.29122  0.16817  1.0000
  C   C26       1.0  0.11169  0.04013  0.10614  1.0000
  C   C27       1.0  0.17952  0.09824  0.04429  1.0000
  C   C28       1.0  0.16569  0.12029  0.03787  1.0000
  C   C29       1.0  0.15888  0.14091  0.04469  1.0000
  C   C30       1.0  0.16530  0.13938  0.05812  1.0000
  C   C31       1.0  0.17829  0.11702  0.06482  1.0000
  C   C32       1.0  0.18566  0.09663  0.05781  1.0000
  H   H26       1.0  0.16085  0.12166  0.02747  1.0000
  H   H27       1.0  0.14887  0.15822  0.03945  1.0000
  H   H28       1.0  0.18362  0.11582  0.07506  1.0000
  H   H29       1.0  0.03234  0.24855  0.98443  1.0000
  S   S19       1.0  0.29245  0.05367  0.22473  1.0000
  C   C33       1.0  0.08951  0.00772  0.12378  1.0000
  C   C34       1.0  0.15334  0.04693  0.10478  1.0000
  H   H30       1.0  0.38721  0.21038  0.18497  1.0000
  C   C35       1.0  0.04330  0.05959  0.21275  1.0000
  H   H31       1.0  0.45773  0.22509  0.07125  1.0000
  H   H32       1.0  0.15530  0.15882  0.17710  1.0000
  C   C36       1.0  0.99852  0.24009  0.11103  1.0000
  H   H33       1.0  0.45648  0.24652  0.17372  1.0000
  H   H34       1.0  0.18914  0.04098  0.08995  1.0000
  H   H35       1.0  0.12433  0.12421  0.07779  1.0000
  H   H36       1.0  0.16700  0.25252  0.09972  1.0000
  H   H37       1.0  0.33798  0.25023  0.22244  1.0000
  Fe  Fe10      1.0  0.14447  0.08375  0.99390  1.0000
  H   H38       1.0  0.41388  0.31863  0.15663  1.0000
  N   N2        1.0  0.33561  0.20263  0.11374  1.0000
  C   C37       1.0  0.33183  0.17891  0.12436  1.0000
  C   C38       1.0  0.36137  0.20666  0.11312  1.0000
  C   C39       1.0  0.31722  0.22362  0.11980  1.0000
  C   C40       1.0  0.33146  0.20295  0.09876  1.0000
  C   C41       1.0  0.33825  0.17780  0.09357  1.0000
  C   C42       1.0  0.30487  0.17408  0.12832  1.0000
  C   C43       1.0  0.31965  0.25024  0.11138  1.0000
  C   C44       1.0  0.38352  0.18789  0.10670  1.0000
  C   C45       1.0  0.40812  0.19229  0.10869  1.0000
  C   C46       1.0  0.06990  0.16238  0.00971  1.0000
  C   C47       1.0  0.30406  0.14715  0.13563  1.0000
  C   C48       1.0  0.29661  0.26927  0.11598  1.0000
  H   H39       1.0  0.33722  0.17876  0.13481  1.0000
  H   H40       1.0  0.34435  0.16260  0.12041  1.0000
  H   H41       1.0  0.36425  0.22500  0.10644  1.0000
  H   H42       1.0  0.36360  0.20678  0.12424  1.0000
  H   H43       1.0  0.31844  0.22263  0.13130  1.0000
  H   H44       1.0  0.29788  0.22182  0.12011  1.0000
  H   H45       1.0  0.31155  0.21030  0.09799  1.0000
  H   H46       1.0  0.34184  0.21615  0.09050  1.0000
  H   H47       1.0  0.32490  0.16572  0.09973  1.0000
  H   H48       1.0  0.35702  0.16752  0.09506  1.0000
  H   H49       1.0  0.29339  0.18585  0.13610  1.0000
  H   H50       1.0  0.29602  0.17868  0.11865  1.0000
  H   H51       1.0  0.32219  0.25161  0.09949  1.0000
  H   H52       1.0  0.33575  0.25569  0.11368  1.0000
  H   H53       1.0  0.38220  0.16852  0.11202  1.0000
  H   H54       1.0  0.38444  0.19028  0.09484  1.0000
  H   H55       1.0  0.42388  0.17966  0.10325  1.0000
  H   H56       1.0  0.41036  0.21170  0.10388  1.0000
  H   H57       1.0  0.40893  0.18847  0.12042  1.0000
  H   H58       1.0  0.17448  0.07330  0.08908  1.0000
  C   C49       1.0  0.37734  0.26058  0.12743  1.0000
  H   H59       1.0  0.31467  0.13449  0.12813  1.0000
  H   H60       1.0  0.31194  0.14229  0.14570  1.0000
  H   H61       1.0  0.28451  0.14448  0.13861  1.0000
  H   H62       1.0  0.05938  0.07378  0.17767  1.0000
  C   C50       1.0  0.32883  0.26698  0.21620  1.0000
  H   H63       1.0  0.18443  0.00255  0.06819  1.0000
  H   H64       1.0  0.10855  0.02259  0.19246  1.0000
  C   C51       1.0  0.26160  0.05703  0.02991  1.0000
  H   H65       1.0  0.31913  0.29451  0.13982  1.0000
  N   N3        1.0  0.02331  0.21212  0.98797  1.0000
  H   H66       1.0  0.45806  0.23012  0.05201  1.0000
  C   C52       1.0  0.15862  0.03753  0.07030  1.0000
  H   H67       1.0  0.36895  0.23071  0.19702  1.0000
  H   H68       1.0  0.03281  0.21961  0.07983  1.0000
  S   S20       1.0  0.99867  0.25836  0.14561  1.0000
  H   H69       1.0  0.48747  0.29097  0.20202  1.0000
  H   H70       1.0  0.29924  0.28814  0.11011  1.0000
  H   H71       1.0  0.07609  0.01034  0.11652  1.0000
  H   H72       1.0  0.13705  0.09649  0.16470  1.0000
  C   C53       1.0  0.11617  0.09400  0.09584  1.0000
  H   H73       1.0  0.07449  0.01691  0.18175  1.0000
  H   H74       1.0  0.23769  0.20676  0.98479  1.0000
  H   H75       1.0  0.44947  0.99082  0.18775  1.0000
  H   H76       1.0  0.12897  0.02138  0.08409  1.0000
  C   C54       1.0  0.45362  0.27270  0.19346  1.0000
  H   H77       1.0  0.10484  0.05209  0.11442  1.0000
  H   H78       1.0  0.40191  0.23052  0.19066  1.0000
  C   C55       1.0  0.10767  0.03057  0.21332  1.0000
  H   H79       1.0  0.15435  0.99520  0.98158  1.0000
  H   H80       1.0  0.45456  0.27300  0.21606  1.0000
  C   C56       1.0  0.11683  0.04197  0.14560  1.0000
  S   S21       1.0  0.15982  0.00834  0.14997  1.0000
  C   C57       1.0  0.49057  0.25628  0.17675  1.0000
  H   H81       1.0  0.11279  0.07238  0.08084  1.0000
  H   H82       1.0  0.08692  0.24430  0.16986  1.0000
  H   H83       1.0  0.00490  0.99553  0.19527  1.0000
  C   C58       1.0  0.18025  0.27087  0.15963  1.0000
  C   C59       1.0  0.47457  0.25067  0.16726  1.0000
  C   C60       1.0  0.11464  0.24849  0.14983  1.0000
  H   H84       1.0  0.10748  0.02638  0.14875  1.0000
  H   H85       1.0  0.46067  0.25497  0.06004  1.0000
  H   H86       1.0  0.08539  0.11024  0.18345  1.0000
  H   H87       1.0  0.05798  0.18591  0.98401  1.0000
  H   H88       1.0  0.12080  0.05992  0.18036  1.0000
  C   C61       1.0  0.12256  0.10865  0.17122  1.0000
  C   C62       1.0  0.17032  0.01585  0.06244  1.0000
  N   N4        1.0  0.21745  0.09132  0.19413  1.0000
  C   C63       1.0  0.20413  0.07682  0.18822  1.0000
  C   C64       1.0  0.20875  0.08770  0.21039  1.0000
  C   C65       1.0  0.21155  0.11822  0.18700  1.0000
  C   C66       1.0  0.24521  0.08248  0.19094  1.0000
  C   C67       1.0  0.25454  0.05461  0.19679  1.0000
  C   C68       1.0  0.21400  0.07416  0.17211  1.0000
  C   C69       1.0  0.22241  0.13634  0.19243  1.0000
  C   C70       1.0  0.18157  0.10033  0.21572  1.0000
  H   H89       1.0  0.05635  0.09021  0.19760  1.0000
  C   C71       1.0  0.28221  0.04677  0.19081  1.0000
  C   C72       1.0  0.19869  0.05962  0.16738  1.0000
  C   C73       1.0  0.21047  0.16322  0.18721  1.0000
  H   H90       1.0  0.18411  0.08551  0.18911  1.0000
  H   H91       1.0  0.20425  0.05786  0.19493  1.0000
  H   H92       1.0  0.21037  0.06760  0.21518  1.0000
  H   H93       1.0  0.22113  0.09402  0.21559  1.0000
  H   H94       1.0  0.19110  0.12476  0.18802  1.0000
  H   H95       1.0  0.21885  0.12065  0.17510  1.0000
  H   H96       1.0  0.25267  0.08692  0.17906  1.0000
  H   H97       1.0  0.25457  0.09273  0.19589  1.0000
  H   H98       1.0  0.24459  0.04248  0.19379  1.0000
  H   H99       1.0  0.25184  0.05109  0.20883  1.0000
  H   H100      1.0  0.21301  0.09253  0.16474  1.0000
  H   H101      1.0  0.23354  0.06402  0.17048  1.0000
  H   H102      1.0  0.24274  0.13419  0.18816  1.0000
  H   H103      1.0  0.21934  0.13317  0.20443  1.0000
  H   H104      1.0  0.17936  0.12079  0.21277  1.0000
  S   S22       1.0  0.35282  0.29093  0.22834  1.0000
  N   N5        1.0  0.16167  0.24034  0.15088  1.0000
  S   S23       1.0  0.10509  0.10466  0.99294  1.0000
  C   C74       1.0  0.30541  0.30992  0.19987  1.0000
  H   H105      1.0  0.28894  0.02746  0.19615  1.0000
  H   H106      1.0  0.28550  0.04770  0.17890  1.0000
  H   H107      1.0  0.29311  0.05890  0.19307  1.0000
  H   H108      1.0  0.17893  0.06921  0.16837  1.0000
  H   H109      1.0  0.20611  0.05800  0.15584  1.0000
  H   H110      1.0  0.19976  0.04064  0.17409  1.0000
  H   H111      1.0  0.21990  0.17585  0.19022  1.0000
  H   H112      1.0  0.21219  0.16742  0.17524  1.0000
  H   H113      1.0  0.19055  0.16679  0.19245  1.0000
  C   C75       1.0  0.11462  0.01312  0.11496  1.0000
  H   H114      1.0  0.01277  0.22900  0.00692  1.0000
  C   C76       1.0  0.37475  0.27519  0.17773  1.0000
  H   H115      1.0  0.09565  0.99760  0.22740  1.0000
  C   C77       1.0  0.17845  0.24371  0.16011  1.0000
  S   S24       1.0  0.47480  0.30947  0.10366  1.0000
  H   H116      1.0  0.05914  0.20884  0.99354  1.0000
  H   H117      1.0  0.19071  0.25210  0.13307  1.0000
  H   H118      1.0  0.06193  0.17722  0.08495  1.0000
  H   H119      1.0  0.27087  0.12870  0.98693  1.0000
  H   H120      1.0  0.49081  0.99725  0.20868  1.0000
  H   H121      1.0  0.41019  0.28715  0.22430  1.0000
  S   S25       1.0  0.48620  0.25013  0.11928  1.0000
  H   H122      1.0  0.99976  0.20260  0.00907  1.0000
  H   H123      1.0  0.43804  0.99692  0.15734  1.0000
  H   H124      1.0  0.04708  0.03105  0.19272  1.0000
  C   C78       1.0  0.04705  0.19662  0.99255  1.0000
  H   H125      1.0  0.08178  0.02005  0.13183  1.0000
  C   C79       1.0  0.17050  0.26054  0.10833  1.0000
  C   C80       1.0  0.12691  0.07284  0.08709  1.0000
  C   C81       1.0  0.17789  0.05507  0.09636  1.0000
  H   H126      1.0  0.30086  0.13583  0.19521  1.0000
  H   H127      1.0  0.34151  0.16336  0.07414  1.0000
  H   H128      1.0  0.12572  0.03681  0.20910  1.0000
  H   H129      1.0  0.03518  0.16579  0.09672  1.0000
  H   H130      1.0  0.08760  0.05509  0.17074  1.0000
  H   H131      1.0  0.27784  0.05392  0.03520  1.0000
  C   C82       1.0  0.04468  0.17842  0.00744  1.0000
  H   H132      1.0  0.06770  0.14910  0.02024  1.0000
  H   H133      1.0  0.12722  0.01010  0.12274  1.0000
  H   H134      1.0  0.36649  0.27706  0.12196  1.0000
  H   H135      1.0  0.09394  0.11696  0.08005  1.0000
  H   H136      1.0  0.13694  0.20353  0.17131  1.0000
  H   H137      1.0  0.46307  0.30641  0.06387  1.0000
  H   H138      1.0  0.15587  0.00614  0.06169  1.0000
  H   H139      1.0  0.01999  0.15995  0.98989  1.0000
  H   H140      1.0  0.38532  0.31181  0.14340  1.0000
  H   H141      1.0  0.08312  0.17401  0.00985  1.0000
  C   C83       1.0  0.41724  0.23554  0.13126  1.0000
  S   S26       1.0  0.18907  0.99073  0.00098  1.0000
  C   C84       1.0  0.43987  0.00401  0.16676  1.0000
  H   H142      1.0  0.07444  0.25385  0.15345  1.0000
  H   H143      1.0  0.11333  0.07418  0.19583  1.0000
  H   H144      1.0  0.39333  0.27944  0.14812  1.0000
  H   H145      1.0  0.27991  0.26548  0.11334  1.0000
  C   C85       1.0  0.09458  0.03213  0.20059  1.0000
  H   H146      1.0  0.35111  0.19269  0.07069  1.0000
  H   H147      1.0  0.18225  0.01137  0.19661  1.0000
  H   H148      1.0  0.44171  0.30189  0.04531  1.0000
  H   H149      1.0  0.12210  0.99929  0.10782  1.0000
  C   C86       1.0  0.40331  0.25687  0.12415  1.0000
  H   H150      1.0  0.06294  0.16260  0.10362  1.0000
  C   C87       1.0  0.39023  0.29659  0.15249  1.0000
  Fe  Fe11      1.0  0.17995  0.03321  0.99689  1.0000
  H   H151      1.0  0.06238  0.28692  0.09367  1.0000
  H   H152      1.0  0.43731  0.23248  0.12875  1.0000
  C   C88       1.0  0.13534  0.25182  0.15688  1.0000
  N   N6        1.0  0.24418  0.12952  0.02563  1.0000
  C   C89       1.0  0.23225  0.14378  0.03770  1.0000
  C   C90       1.0  0.22637  0.13343  0.01541  1.0000
  C   C91       1.0  0.24917  0.10225  0.03239  1.0000
  C   C92       1.0  0.26881  0.13637  0.01773  1.0000
  C   C93       1.0  0.26819  0.16322  0.00916  1.0000
  C   C94       1.0  0.24685  0.13983  0.05007  1.0000
  C   C95       1.0  0.25614  0.08377  0.02174  1.0000
  C   C96       1.0  0.20953  0.15943  0.01235  1.0000
  C   C97       1.0  0.19496  0.16101  0.00056  1.0000
  C   C98       1.0  0.29442  0.16867  0.00367  1.0000
  C   C99       1.0  0.23244  0.15516  0.06156  1.0000
  C   C100      1.0  0.19961  0.27169  0.16813  1.0000
  H   H153      1.0  0.21377  0.13891  0.04283  1.0000
  H   H154      1.0  0.22836  0.16401  0.03341  1.0000
  H   H155      1.0  0.23664  0.12851  0.00487  1.0000
  H   H156      1.0  0.21304  0.12055  0.01979  1.0000
  H   H157      1.0  0.23258  0.09734  0.04048  1.0000
  H   H158      1.0  0.26460  0.09789  0.03850  1.0000
  H   H159      1.0  0.28190  0.13239  0.02534  1.0000
  H   H160      1.0  0.27819  0.12443  0.00968  1.0000
  H   H161      1.0  0.25753  0.17700  0.01589  1.0000
  H   H162      1.0  0.25994  0.16574  0.99942  1.0000
  H   H163      1.0  0.24990  0.12018  0.05572  1.0000
  H   H164      1.0  0.26507  0.14561  0.04580  1.0000
  H   H165      1.0  0.27286  0.08698  0.01338  1.0000
  H   H166      1.0  0.24073  0.08525  0.01606  1.0000
  H   H167      1.0  0.19573  0.16304  0.02229  1.0000
  H   H168      1.0  0.22014  0.17454  0.00884  1.0000
  H   H169      1.0  0.20768  0.15596  0.99057  1.0000
  H   H170      1.0  0.18155  0.14828  0.00451  1.0000
  H   H171      1.0  0.18439  0.18016  0.99782  1.0000
  H   H172      1.0  0.29357  0.18748  0.99677  1.0000
  H   H173      1.0  0.30331  0.16791  0.01292  1.0000
  H   H174      1.0  0.30611  0.15513  0.99697  1.0000
  H   H175      1.0  0.24332  0.15235  0.07021  1.0000
  H   H176      1.0  0.22886  0.17521  0.05665  1.0000
  H   H177      1.0  0.21438  0.14936  0.06666  1.0000
  C   C101      1.0  0.47120  0.31097  0.05249  1.0000
  C   C102      1.0  0.01998  0.99824  0.22693  1.0000
  H   H178      1.0  0.17968  0.02288  0.05122  1.0000
  H   H179      1.0  0.42200  0.28572  0.16382  1.0000
  C   C103      1.0  0.01300  0.19900  0.97949  1.0000
  H   H180      1.0  0.17674  0.22496  0.12217  1.0000
  H   H181      1.0  0.18581  0.28082  0.14836  1.0000
  H   H182      1.0  0.07788  0.15158  0.00093  1.0000
  C   C104      1.0  0.04127  0.19998  0.10088  1.0000
  C   C105      1.0  0.10815  0.11850  0.08585  1.0000
  C   C106      1.0  0.06508  0.07215  0.20359  1.0000
  C   C107      1.0  0.02410  0.28362  0.09485  1.0000
  H   H183      1.0  0.39473  0.24596  0.16529  1.0000
  H   H184      1.0  0.15881  0.02797  0.11107  1.0000
  H   H185      1.0  0.09193  0.09620  0.16773  1.0000
  H   H186      1.0  0.39143  0.27598  0.18165  1.0000
  S   S27       1.0  0.17263  0.10446  0.99573  1.0000
  H   H187      1.0  0.33172  0.28972  0.17044  1.0000
  C   C108      1.0  0.38463  0.22899  0.18762  1.0000
  C   C109      1.0  0.11318  0.00393  0.22162  1.0000
  C   C110      1.0  0.18011  0.99528  0.20512  1.0000
  H   H188      1.0  0.03068  0.05892  0.20569  1.0000
  H   H189      1.0  0.11511  0.26066  0.13894  1.0000
  H   H190      1.0  0.04347  0.25594  0.08177  1.0000
  H   H191      1.0  0.14481  0.05852  0.11316  1.0000
  H   H192      1.0  0.45401  0.25240  0.19709  1.0000
  H   H193      1.0  0.09633  0.04313  0.10008  1.0000
  C   C111      1.0  0.05084  0.17492  0.09618  1.0000
  H   H194      1.0  0.03215  0.19625  0.11248  1.0000
  N   N7        1.0  0.36921  0.29668  0.16549  1.0000
  C   C112      1.0  0.26826  0.13774  0.21213  1.0000
  H   H195      1.0  0.26583  0.04423  0.02215  1.0000
  C   C113      1.0  0.32057  0.31160  0.20915  1.0000
  C   C114      1.0  0.14454  0.02857  0.08589  1.0000
  C   C115      1.0  0.17016  0.25327  0.13545  1.0000
  C   C116      1.0  0.00575  0.00196  0.21627  1.0000
  C   C117      1.0  0.10538  0.07136  0.18697  1.0000
  H   H196      1.0  0.07436  0.07718  0.21116  1.0000
  C   C118      1.0  0.34648  0.29383  0.16077  1.0000
  C   C119      1.0  0.18439  0.99479  0.21893  1.0000
  S   S28       1.0  0.41734  0.27968  0.11136  1.0000
  N   N8        1.0  0.08397  0.05779  0.19317  1.0000
  H   H197      1.0  0.13072  0.24491  0.16881  1.0000
  H   H198      1.0  0.15686  0.01213  0.09116  1.0000
  C   C120      1.0  0.37906  0.22171  0.14484  1.0000
  Fe  Fe12      1.0  0.45913  0.27543  0.10609  1.0000
  S   S29       1.0  0.48156  0.26596  0.08497  1.0000
  Fe  Fe13      1.0  0.19885  0.08112  0.98053  1.0000
  H   H199      1.0  0.21840  0.26309  0.16291  1.0000
  C   C121      1.0  0.46592  0.23469  0.06034  1.0000
  H   H200      1.0  0.18461  0.20510  0.14754  1.0000
  C   C122      1.0  0.00385  0.17490  0.98780  1.0000
  H   H201      1.0  0.14804  0.16752  0.15916  1.0000
  H   H202      1.0  0.14555  0.05069  0.06372  1.0000
  H   H203      1.0  0.27097  0.98749  0.20276  1.0000
  C   C123      1.0  0.16498  0.24339  0.12302  1.0000
  C   C124      1.0  0.25406  0.12413  0.22385  1.0000
  H   H204      1.0  0.43936  0.27966  0.18645  1.0000
  H   H205      1.0  0.09996  0.13309  0.09243  1.0000
  H   H206      1.0  0.19703  0.03976  0.11470  1.0000
  N   N9        1.0  0.01123  0.24226  0.09530  1.0000
  H   H207      1.0  0.08021  0.02049  0.20478  1.0000
  H   H208      1.0  0.05868  0.03960  0.15934  1.0000
  C   C125      1.0  0.43534  0.29704  0.14100  1.0000
  H   H209      1.0  0.15437  0.20887  0.14431  1.0000
  H   H210      1.0  0.29337  0.26883  0.12783  1.0000
  H   H211      1.0  0.11639  0.22909  0.14876  1.0000
  C   C126      1.0  0.15683  0.19710  0.16683  1.0000
  H   H212      1.0  0.44415  0.30314  0.20592  1.0000
  H   H213      1.0  0.03169  0.16598  0.00851  1.0000
  C   C127      1.0  0.47621  0.30105  0.17371  1.0000
  C   C128      1.0  0.44345  0.28331  0.20763  1.0000
  C   C129      1.0  0.29720  0.09959  0.20822  1.0000
  H   H214      1.0  0.49206  0.21158  0.16865  1.0000
  S   S30       1.0  0.19226  0.02090  0.22235  1.0000
  H   H215      1.0  0.47100  0.26656  0.15832  1.0000
  H   H216      1.0  0.00901  0.29405  0.08901  1.0000
  C   C130      1.0  0.02766  0.07432  0.22427  1.0000
  H   H217      1.0  0.19531  0.26179  0.17956  1.0000
  H   H218      1.0  0.31402  0.09012  0.20222  1.0000
  H   H219      1.0  0.03730  0.02145  0.17147  1.0000
  H   H220      1.0  0.40423  0.29165  0.20628  1.0000
  H   H221      1.0  0.01226  0.23195  0.11823  1.0000
  H   H222      1.0  0.14562  0.24121  0.12499  1.0000
  C   C131      1.0  0.14220  0.03813  0.14570  1.0000
  C   C132      1.0  0.06018  0.03412  0.18229  1.0000
  H   H223      1.0  0.35915  0.27647  0.18724  1.0000
  H   H224      1.0  0.05774  0.20813  0.09995  1.0000
  H   H225      1.0  0.04494  0.24717  0.10058  1.0000
  C   C133      1.0  0.09930  0.09729  0.17720  1.0000
  C   C134      1.0  0.03205  0.25622  0.09290  1.0000
  H   H226      1.0  0.00850  0.20644  0.09192  1.0000
  H   H227      1.0  0.44003  0.18311  0.98514  1.0000
  C   C135      1.0  0.41546  0.29974  0.15468  1.0000
  H   H228      1.0  0.13031  0.09662  0.10131  1.0000
  C   C136      1.0  0.40511  0.21794  0.14155  1.0000
  H   H229      1.0  0.41593  0.20131  0.14690  1.0000
  H   H230      1.0  0.36199  0.24563  0.17174  1.0000
  H   H231      1.0  0.17225  0.23586  0.17176  1.0000
  H   H232      1.0  0.13015  0.11149  0.18019  1.0000
  C   C137      1.0  0.37888  0.24886  0.17442  1.0000
  H   H233      1.0  0.24518  0.05260  0.03828  1.0000
  H   H234      1.0  0.16818  0.19799  0.17454  1.0000
  H   H235      1.0  0.31838  0.19123  0.07550  1.0000
  H   H236      1.0  0.45283  0.30144  0.14218  1.0000
  C   C138      1.0  0.02283  0.21718  0.09137  1.0000
  S   S31       1.0  0.25802  0.16998  0.20768  1.0000
  C   C139      1.0  0.07286  0.05639  0.18061  1.0000
  H   H237      1.0  0.03092  0.05448  0.17027  1.0000
  C   C140      1.0  0.28979  0.12543  0.20424  1.0000
  N   N10       1.0  0.47881  0.27733  0.18484  1.0000
  H   H238      1.0  0.21167  0.06176  0.10048  1.0000
  C   C141      1.0  0.33230  0.29007  0.21735  1.0000
  C   C142      1.0  0.00453  0.21918  0.00106  1.0000
  C   C143      1.0  0.04592  0.03777  0.17006  1.0000
  H   H239      1.0  0.46347  0.30092  0.16657  1.0000
  H   H240      1.0  0.16217  0.28122  0.16458  1.0000
  H   H241      1.0  0.13342  0.27216  0.15567  1.0000
  H   H242      1.0  0.16839  0.09452  0.21092  1.0000
  H   H243      1.0  0.17987  0.16240  0.16141  1.0000
  H   H244      1.0  0.01971  0.09337  0.21909  1.0000
  H   H245      1.0  0.41474  0.26077  0.21597  1.0000
  H   H246      1.0  0.31047  0.24746  0.20663  1.0000
  H   H247      1.0  0.43928  0.27780  0.13907  1.0000
  C   C144      1.0  0.16481  0.21284  0.15162  1.0000
  C   C145      1.0  0.41656  0.28048  0.21385  1.0000
  H   H248      1.0  0.09607  0.04200  0.22122  1.0000
  H   H249      1.0  0.19024  0.26262  0.10572  1.0000
  C   C146      1.0  0.04580  0.29729  0.08905  1.0000
  H   H250      1.0  0.19770  0.23329  0.15692  1.0000
  H   H251      1.0  0.23826  0.10707  0.98527  1.0000
  H   H252      1.0  0.05075  0.29974  0.07702  1.0000
  H   H253      1.0  0.47597  0.22465  0.15369  1.0000
  H   H254      1.0  0.16187  0.27341  0.13403  1.0000
  H   H255      1.0  0.42920  0.31000  0.13133  1.0000
  H   H256      1.0  0.08558  0.27586  0.15979  1.0000
  C   C147      1.0  0.31266  0.31025  0.14567  1.0000
  H   H257      1.0  0.09184  0.98822  0.12972  1.0000
  H   H258      1.0  0.39740  0.31619  0.17982  1.0000
  C   C148      1.0  0.08889  0.25613  0.15884  1.0000
  H   H259      1.0  0.04988  0.04064  0.21855  1.0000
  S   S32       1.0  0.45281  0.31151  0.01441  1.0000
  H   H260      1.0  0.03789  0.18890  0.01645  1.0000
  C   C149      1.0  0.48795  0.22836  0.16025  1.0000
  H   H261      1.0  0.04038  0.31588  0.09203  1.0000
  C   C150      1.0  0.26136  0.09837  0.22775  1.0000
  C   C151      1.0  0.33446  0.31624  0.15016  1.0000
  C   C152      1.0  0.46875  0.31529  0.02712  1.0000
  H   H262      1.0  0.01750  0.28444  0.10652  1.0000
  H   H263      1.0  0.29825  0.30547  0.15536  1.0000
  H   H264      1.0  0.00316  0.26760  0.07540  1.0000
  H   H265      1.0  0.37032  0.31064  0.19311  1.0000
  H   H266      1.0  0.23875  0.31837  0.22744  1.0000
  H   H267      1.0  0.16437  0.02190  0.34860  1.0000
  C   C153      1.0  0.31807  0.09136  0.47336  1.0000
  H   H268      1.0  0.40267  0.21021  0.45166  1.0000
  C   C154      1.0  0.05388  0.02266  0.26930  1.0000
  H   H269      1.0  0.46915  0.23925  0.40569  1.0000
  C   C155      1.0  0.20734  0.04154  0.32767  1.0000
  H   H270      1.0  0.13766  0.99857  0.31926  1.0000
  C   C156      1.0  0.44899  0.30540  0.26146  1.0000
  C   C157      1.0  0.15545  0.15271  0.40686  1.0000
  C   C158      1.0  0.13214  0.01122  0.34426  1.0000
  H   H271      1.0  0.04450  0.03217  0.29742  1.0000
  H   H272      1.0  0.29902  0.02915  0.41788  1.0000
  H   H273      1.0  0.05489  0.02247  0.24657  1.0000
  N   N11       1.0  0.01319  0.03455  0.28755  1.0000
  C   C159      1.0  0.03117  0.13548  0.39522  1.0000
  S   S33       1.0  0.37791  0.30026  0.38566  1.0000
  H   H274      1.0  0.12631  0.24353  0.44316  1.0000
  H   H275      1.0  0.18681  0.09888  0.23762  1.0000
  Fe  Fe14      1.0  0.19119  0.07213  0.38310  1.0000
  S   S34       1.0  0.16601  0.05307  0.40193  1.0000
  S   S35       1.0  0.19819  0.11057  0.38171  1.0000
  Fe  Fe15      1.0  0.15310  0.04042  0.38501  1.0000
  S   S36       1.0  0.11529  0.03067  0.38714  1.0000
  H   H276      1.0  0.02963  0.06281  0.29137  1.0000
  S   S37       1.0  0.17564  0.06223  0.36605  1.0000
  Fe  Fe16      1.0  0.32039  0.18813  0.40688  1.0000
  S   S38       1.0  0.31020  0.20839  0.42542  1.0000
  S   S39       1.0  0.35116  0.19714  0.38793  1.0000
  Fe  Fe17      1.0  0.28332  0.15393  0.42107  1.0000
  S   S40       1.0  0.27031  0.17182  0.44069  1.0000
  S   S41       1.0  0.26888  0.11949  0.42188  1.0000
  Fe  Fe18      1.0  0.27101  0.20754  0.42469  1.0000
  S   S42       1.0  0.24218  0.24266  0.42536  1.0000
  Fe  Fe19      1.0  0.31060  0.17089  0.43961  1.0000
  H   H277      1.0  0.43351  0.19261  0.44749  1.0000
  S   S43       1.0  0.28109  0.18988  0.40497  1.0000
  S   S44       1.0  0.32379  0.15037  0.42119  1.0000
  C   C160      1.0  0.26169  0.03160  0.41450  1.0000
  H   H278      1.0  0.99993  0.11907  0.42046  1.0000
  S   S45       1.0  0.22854  0.00847  0.34957  1.0000
  C   C161      1.0  0.08779  0.04891  0.38150  1.0000
  C   C162      1.0  0.06735  0.03750  0.38364  1.0000
  C   C163      1.0  0.04533  0.05068  0.37890  1.0000
  C   C164      1.0  0.04333  0.07552  0.37198  1.0000
  C   C165      1.0  0.06370  0.08708  0.36995  1.0000
  C   C166      1.0  0.08583  0.07388  0.37475  1.0000
  H   H279      1.0  0.03002  0.04144  0.38050  1.0000
  H   H280      1.0  0.06241  0.10630  0.36460  1.0000
  H   H281      1.0  0.10138  0.08293  0.37313  1.0000
  C   C167      1.0  0.21695  0.11374  0.39322  1.0000
  C   C168      1.0  0.22736  0.13503  0.39032  1.0000
  C   C169      1.0  0.24289  0.13750  0.39919  1.0000
  C   C170      1.0  0.24774  0.11880  0.41114  1.0000
  C   C171      1.0  0.23641  0.09816  0.41438  1.0000
  C   C172      1.0  0.22130  0.09546  0.40541  1.0000
  H   H282      1.0  0.22392  0.14934  0.38095  1.0000
  H   H283      1.0  0.25162  0.15347  0.39653  1.0000
  H   H284      1.0  0.23956  0.08404  0.42383  1.0000
  H   H285      1.0  0.21295  0.07924  0.40793  1.0000
  H   H286      1.0  0.16420  0.21683  0.45167  1.0000
  C   C173      1.0  0.36878  0.13524  0.44652  1.0000
  C   C174      1.0  0.39199  0.11927  0.44613  1.0000
  H   H287      1.0  0.36208  0.14361  0.43656  1.0000
  H   H288      1.0  0.40299  0.11514  0.43587  1.0000
  C   C175      1.0  0.11673  0.01088  0.42871  1.0000
  C   C176      1.0  0.32876  0.99372  0.44360  1.0000
  H   H289      1.0  0.12078  0.01768  0.35418  1.0000
  C   C177      1.0  0.22331  0.24645  0.44230  1.0000
  C   C178      1.0  0.21188  0.27035  0.44470  1.0000
  H   H290      1.0  0.01207  0.06498  0.23051  1.0000
  Fe  Fe20      1.0  0.20598  0.02844  0.36766  1.0000
  H   H291      1.0  0.21445  0.28619  0.43606  1.0000
  H   H292      1.0  0.31690  0.24276  0.46557  1.0000
  C   C179      1.0  0.37124  0.27157  0.38570  1.0000
  C   C180      1.0  0.38878  0.25331  0.37933  1.0000
  C   C181      1.0  0.38236  0.23063  0.37967  1.0000
  C   C182      1.0  0.35876  0.22590  0.38686  1.0000
  C   C183      1.0  0.34134  0.24423  0.39318  1.0000
  C   C184      1.0  0.34750  0.26704  0.39250  1.0000
  H   H293      1.0  0.40718  0.25673  0.37415  1.0000
  H   H294      1.0  0.39580  0.21660  0.37459  1.0000
  H   H295      1.0  0.32287  0.24108  0.39832  1.0000
  H   H296      1.0  0.33381  0.28121  0.39733  1.0000
  H   H297      1.0  0.00837  0.03479  0.42217  1.0000
  H   H298      1.0  0.32674  0.06790  0.43174  1.0000
  H   H299      1.0  0.29341  0.98958  0.39468  1.0000
  H   H300      1.0  0.14602  0.04854  0.29938  1.0000
  C   C185      1.0  0.00361  0.99357  0.28470  1.0000
  H   H301      1.0  0.19985  0.05376  0.33538  1.0000
  H   H302      1.0  0.04403  0.13254  0.38485  1.0000
  C   C186      1.0  0.40805  0.17275  0.46339  1.0000
  H   H303      1.0  0.27720  0.23774  0.46003  1.0000
  H   H304      1.0  0.32485  0.00006  0.37128  1.0000
  C   C187      1.0  0.01294  0.00750  0.29374  1.0000
  H   H305      1.0  0.44692  0.26246  0.41464  1.0000
  H   H306      1.0  0.27239  0.01635  0.38869  1.0000
  H   H307      1.0  0.41343  0.29015  0.30495  1.0000
  H   H308      1.0  0.99960  0.13281  0.38732  1.0000
  C   C188      1.0  0.34765  0.30036  0.32762  1.0000
  C   C189      1.0  0.21190  0.03327  0.30336  1.0000
  H   H309      1.0  0.10432  0.00505  0.43915  1.0000
  H   H310      1.0  0.31076  0.05229  0.37723  1.0000
  H   H311      1.0  0.30159  0.99162  0.35490  1.0000
  H   H312      1.0  0.06722  0.04739  0.24936  1.0000
  C   C190      1.0  0.40728  0.18488  0.43637  1.0000
  H   H313      1.0  0.40527  0.17184  0.38760  1.0000
  H   H314      1.0  0.08618  0.04238  0.35238  1.0000
  C   C191      1.0  0.01199  0.04489  0.31257  1.0000
  H   H315      1.0  0.44607  0.20593  0.42040  1.0000
  C   C192      1.0  0.19934  0.21634  0.40634  1.0000
  C   C193      1.0  0.16136  0.20525  0.43201  1.0000
  C   C194      1.0  0.38684  0.11373  0.47223  1.0000
  H   H316      1.0  0.14590  0.25746  0.42699  1.0000
  H   H317      1.0  0.11733  0.03805  0.30188  1.0000
  C   C195      1.0  0.40703  0.15796  0.39777  1.0000
  H   H318      1.0  0.12685  0.99341  0.34445  1.0000
  C   C196      1.0  0.17602  0.16517  0.42396  1.0000
  H   H319      1.0  0.33727  0.02379  0.40205  1.0000
  C   C197      1.0  0.22712  0.01041  0.30736  1.0000
  H   H320      1.0  0.32170  0.05977  0.45690  1.0000
  H   H321      1.0  0.40531  0.00181  0.45287  1.0000
  H   H322      1.0  0.43480  0.04229  0.45019  1.0000
  H   H323      1.0  0.34962  0.26088  0.36016  1.0000
  C   C198      1.0  0.22243  0.22049  0.39478  1.0000
  Fe  Fe21      1.0  0.46819  0.31322  0.36546  1.0000
  C   C199      1.0  0.09953  0.03408  0.32986  1.0000
  C   C200      1.0  0.37971  0.28442  0.34241  1.0000
  N   N12       1.0  0.18360  0.18479  0.42930  1.0000
  C   C201      1.0  0.40956  0.31002  0.30414  1.0000
  C   C202      1.0  0.16513  0.22466  0.43989  1.0000
  H   H324      1.0  0.20437  0.13537  0.46735  1.0000
  H   H325      1.0  0.41890  0.15407  0.46192  1.0000
  H   H326      1.0  0.14806  0.02715  0.28000  1.0000
  C   C203      1.0  0.33038  0.01422  0.39542  1.0000
  H   H327      1.0  0.41197  0.20345  0.39947  1.0000
  H   H328      1.0  0.08490  0.01620  0.25156  1.0000
  C   C204      1.0  0.23232  0.00309  0.32151  1.0000
  H   H329      1.0  0.38945  0.26144  0.32557  1.0000
  H   H330      1.0  0.13934  0.00024  0.29276  1.0000
  H   H331      1.0  0.22848  0.15336  0.43555  1.0000
  C   C205      1.0  0.41341  0.19197  0.44954  1.0000
  N   N13       1.0  0.36061  0.04303  0.45083  1.0000
  C   C206      1.0  0.33902  0.05435  0.46135  1.0000
  C   C207      1.0  0.35593  0.01860  0.44938  1.0000
  C   C208      1.0  0.38360  0.03773  0.45744  1.0000
  C   C209      1.0  0.36523  0.05993  0.43615  1.0000
  C   C210      1.0  0.34220  0.07747  0.43063  1.0000
  H   H332      1.0  0.30875  0.29808  0.32984  1.0000
  C   C211      1.0  0.40707  0.02161  0.44979  1.0000
  C   C212      1.0  0.33345  0.01967  0.44247  1.0000
  C   C213      1.0  0.21999  0.14113  0.45876  1.0000
  H   H333      1.0  0.34215  0.26672  0.43910  1.0000
  C   C214      1.0  0.43066  0.02340  0.45430  1.0000
  H   H334      1.0  0.17470  0.16772  0.45207  1.0000
  H   H335      1.0  0.41334  0.17773  0.47254  1.0000
  H   H336      1.0  0.37212  0.00880  0.44248  1.0000
  H   H337      1.0  0.25737  0.05095  0.40875  1.0000
  C   C215      1.0  0.19450  0.25350  0.46961  1.0000
  H   H338      1.0  0.38893  0.05535  0.45767  1.0000
  H   H339      1.0  0.37796  0.07234  0.43605  1.0000
  H   H340      1.0  0.37533  0.04875  0.42773  1.0000
  H   H341      1.0  0.33494  0.09263  0.43689  1.0000
  H   H342      1.0  0.32313  0.06429  0.39785  1.0000
  H   H343      1.0  0.00581  0.07901  0.42014  1.0000
  H   H344      1.0  0.40962  0.02731  0.43779  1.0000
  C   C216      1.0  0.30035  0.09523  0.38656  1.0000
  C   C217      1.0  0.00848  0.12404  0.39689  1.0000
  H   H345      1.0  0.33737  0.02798  0.43073  1.0000
  C   C218      1.0  0.31358  0.22626  0.47410  1.0000
  H   H346      1.0  0.37975  0.02831  0.46902  1.0000
  S   S46       1.0  0.44227  0.30181  0.35459  1.0000
  H   H347      1.0  0.46813  0.29703  0.26336  1.0000
  H   H348      1.0  0.15019  0.99025  0.36986  1.0000
  C   C219      1.0  0.36367  0.12996  0.47260  1.0000
  H   H349      1.0  0.30411  0.29025  0.25012  1.0000
  H   H350      1.0  0.01501  0.99413  0.27363  1.0000
  H   H351      1.0  0.30020  0.29369  0.35363  1.0000
  H   H352      1.0  0.19776  0.18628  0.44801  1.0000
  H   H353      1.0  0.23576  0.12509  0.45831  1.0000
  H   H354      1.0  0.21707  0.20022  0.42470  1.0000
  C   C220      1.0  0.29247  0.00884  0.38855  1.0000
  C   C221      1.0  0.02587  0.04401  0.29667  1.0000
  H   H355      1.0  0.42673  0.23444  0.33355  1.0000
  S   S47       1.0  0.18276  0.00594  0.38560  1.0000
  H   H356      1.0  0.27261  0.99937  0.36704  1.0000
  C   C222      1.0  0.39859  0.17044  0.41099  1.0000
  H   H357      1.0  0.21718  0.23583  0.38581  1.0000
  H   H358      1.0  0.35584  0.27029  0.42007  1.0000
  C   C223      1.0  0.29996  0.25687  0.36601  1.0000
  Fe  Fe22      1.0  0.22484  0.02415  0.26719  1.0000
  H   H359      1.0  0.14806  0.26108  0.44467  1.0000
  H   H360      1.0  0.26048  0.28244  0.44074  1.0000
  C   C224      1.0  0.13089  0.98845  0.42199  1.0000
  H   H361      1.0  0.35376  0.00611  0.46025  1.0000
  C   C225      1.0  0.25157  0.03094  0.43071  1.0000
  H   H362      1.0  0.08487  0.99716  0.35527  1.0000
  C   C226      1.0  0.34897  0.08941  0.41463  1.0000
  H   H363      1.0  0.15100  0.15764  0.39579  1.0000
  H   H364      1.0  0.31398  0.09590  0.37615  1.0000
  H   H365      1.0  0.28102  0.30162  0.44184  1.0000
  H   H366      1.0  0.02554  0.15573  0.39498  1.0000
  H   H367      1.0  0.43404  0.18081  0.40845  1.0000
  H   H368      1.0  0.36645  0.22512  0.44422  1.0000
  H   H369      1.0  0.36805  0.20918  0.42330  1.0000
  S   S48       1.0  0.22333  0.03992  0.38316  1.0000
  H   H370      1.0  0.18345  0.23010  0.43545  1.0000
  H   H371      1.0  0.16906  0.00818  0.29149  1.0000
  H   H372      1.0  0.38224  0.24424  0.34378  1.0000
  C   C227      1.0  0.27665  0.28278  0.44534  1.0000
  H   H373      1.0  0.23458  0.99831  0.29959  1.0000
  H   H374      1.0  0.25564  0.01182  0.43702  1.0000
  H   H375      1.0  0.36312  0.10095  0.41312  1.0000
  H   H376      1.0  0.28123  0.10098  0.38421  1.0000
  C   C228      1.0  0.13526  0.05330  0.32914  1.0000
  C   C229      1.0  0.12383  0.06779  0.34158  1.0000
  H   H377      1.0  0.45311  0.26624  0.39512  1.0000
  C   C230      1.0  0.20467  0.22954  0.46692  1.0000
  C   C231      1.0  0.07986  0.03607  0.34415  1.0000
  C   C232      1.0  0.07014  0.01205  0.35110  1.0000
  C   C233      1.0  0.13543  0.09057  0.33922  1.0000
  C   C234      1.0  0.29283  0.99184  0.36647  1.0000
  H   H378      1.0  0.38670  0.24659  0.43457  1.0000
  H   H379      1.0  0.28663  0.27814  0.46618  1.0000
  H   H380      1.0  0.25058  0.08819  0.23701  1.0000
  H   H381      1.0  0.16145  0.15697  0.43244  1.0000
  H   H382      1.0  0.25429  0.29013  0.46571  1.0000
  H   H383      1.0  0.19000  0.29248  0.46037  1.0000
  C   C235      1.0  0.19109  0.17289  0.44381  1.0000
  H   H384      1.0  0.15573  0.04983  0.32798  1.0000
  H   H385      1.0  0.13119  0.06626  0.31898  1.0000
  H   H386      1.0  0.12695  0.05615  0.35223  1.0000
  H   H387      1.0  0.10364  0.07463  0.34188  1.0000
  H   H388      1.0  0.02943  0.07323  0.31572  1.0000
  C   C236      1.0  0.02718  0.03829  0.27204  1.0000
  Fe  Fe23      1.0  0.26391  0.03252  0.23961  1.0000
  C   C237      1.0  0.41892  0.25206  0.33755  1.0000
  C   C238      1.0  0.31227  0.27951  0.36029  1.0000
  H   H389      1.0  0.06355  0.05054  0.34146  1.0000
  H   H390      1.0  0.29739  0.24962  0.35685  1.0000
  S   S49       1.0  0.00716  0.00885  0.24336  1.0000
  H   H391      1.0  0.17295  0.99887  0.33736  1.0000
  H   H392      1.0  0.12756  0.10028  0.34851  1.0000
  H   H393      1.0  0.15589  0.08513  0.33844  1.0000
  H   H394      1.0  0.13142  0.10363  0.32909  1.0000
  H   H395      1.0  0.16184  0.01504  0.31723  1.0000
  S   S50       1.0  0.21537  0.99184  0.26122  1.0000
  H   H396      1.0  0.33486  0.04033  0.47143  1.0000
  H   H397      1.0  0.27935  0.05656  0.38613  1.0000
  C   C239      1.0  0.14150  0.01751  0.31783  1.0000
  H   H398      1.0  0.20578  0.13367  0.44201  1.0000
  H   H399      1.0  0.33553  0.24822  0.42816  1.0000
  H   H400      1.0  0.23606  0.22579  0.39949  1.0000
  H   H401      1.0  0.05390  0.00253  0.27259  1.0000
  S   S51       1.0  0.22331  0.04804  0.24504  1.0000
  H   H402      1.0  0.18259  0.17584  0.40027  1.0000
  H   H403      1.0  0.00781  0.98638  0.36869  1.0000
  H   H404      1.0  0.30208  0.02674  0.36559  1.0000
  H   H405      1.0  0.31143  0.24195  0.37276  1.0000
  S   S52       1.0  0.01580  0.09248  0.36572  1.0000
  H   H406      1.0  0.25148  0.02067  0.41073  1.0000
  C   C240      1.0  0.42769  0.21874  0.42032  1.0000
  H   H407      1.0  0.42124  0.16770  0.43463  1.0000
  H   H408      1.0  0.16877  0.13473  0.40773  1.0000
  H   H409      1.0  0.21814  0.17872  0.41390  1.0000
  H   H410      1.0  0.09470  0.05172  0.32212  1.0000
  C   C241      1.0  0.13728  0.03194  0.30248  1.0000
  H   H411      1.0  0.23109  0.03745  0.43253  1.0000
  H   H412      1.0  0.15517  0.21539  0.42176  1.0000
  H   H413      1.0  0.01541  0.10409  0.39658  1.0000
  H   H414      1.0  0.42502  0.22830  0.42949  1.0000
  H   H415      1.0  0.05473  0.01535  0.36041  1.0000
  H   H416      1.0  0.40082  0.15564  0.42063  1.0000
  C   C242      1.0  0.34430  0.31528  0.35058  1.0000
  H   H417      1.0  0.19079  0.06677  0.31039  1.0000
  H   H418      1.0  0.13810  0.15048  0.41494  1.0000
  C   C243      1.0  0.21959  0.22602  0.45342  1.0000
  H   H419      1.0  0.35629  0.07507  0.40779  1.0000
  H   H420      1.0  0.43304  0.30887  0.31915  1.0000
  C   C244      1.0  0.28994  0.02082  0.41168  1.0000
  H   H421      1.0  0.04548  0.04166  0.32100  1.0000
  C   C245      1.0  0.39125  0.25965  0.33699  1.0000
  H   H422      1.0  0.15488  0.10358  0.23579  1.0000
  C   C246      1.0  0.43026  0.23898  0.40629  1.0000
  H   H423      1.0  0.38794  0.17207  0.46628  1.0000
  H   H424      1.0  0.17432  0.07336  0.23572  1.0000
  C   C247      1.0  0.30384  0.06921  0.39589  1.0000
  H   H425      1.0  0.29167  0.00091  0.41693  1.0000
  H   H426      1.0  0.33884  0.25974  0.34454  1.0000
  C   C248      1.0  0.06586  0.02758  0.25320  1.0000
  H   H427      1.0  0.35148  0.08996  0.45697  1.0000
  C   C249      1.0  0.21204  0.14951  0.44398  1.0000
  H   H428      1.0  0.18534  0.21383  0.40082  1.0000
  H   H429      1.0  0.23115  0.20354  0.39019  1.0000
  H   H430      1.0  0.30314  0.10867  0.39246  1.0000
  H   H431      1.0  0.00895  0.02627  0.31863  1.0000
  Fe  Fe24      1.0  0.19736  0.02013  0.40093  1.0000
  H   H432      1.0  0.37857  0.17865  0.41173  1.0000
  H   H433      1.0  0.06866  0.01821  0.38886  1.0000
  C   C250      1.0  0.37256  0.23682  0.43357  1.0000
  C   C251      1.0  0.20546  0.19413  0.41883  1.0000
  S   S53       1.0  0.26628  0.01101  0.26224  1.0000
  H   H434      1.0  0.38423  0.28238  0.35329  1.0000
  H   H435      1.0  0.31607  0.03041  0.44785  1.0000
  H   H436      1.0  0.39019  0.29836  0.33515  1.0000
  N   N14       1.0  0.30286  0.02358  0.39596  1.0000
  H   H437      1.0  0.35300  0.28384  0.32242  1.0000
  C   C252      1.0  0.35011  0.25667  0.42997  1.0000
  H   H438      1.0  0.25998  0.04317  0.43478  1.0000
  C   C253      1.0  0.45115  0.25248  0.40547  1.0000
  H   H439      1.0  0.22612  0.15624  0.46167  1.0000
  C   C254      1.0  0.22226  0.01854  0.33176  1.0000
  C   C255      1.0  0.16668  0.17302  0.40939  1.0000
  H   H440      1.0  0.41288  0.25312  0.40602  1.0000
  H   H441      1.0  0.19201  0.14967  0.42213  1.0000
  H   H442      1.0  0.19187  0.23367  0.41067  1.0000
  C   C256      1.0  0.40115  0.10867  0.45894  1.0000
  H   H443      1.0  0.44665  0.00999  0.44971  1.0000
  H   H444      1.0  0.29095  0.07009  0.40648  1.0000
  H   H445      1.0  0.33212  0.10149  0.41093  1.0000
  S   S54       1.0  0.20313  0.04235  0.28617  1.0000
  H   H446      1.0  0.39512  0.14440  0.39870  1.0000
  H   H447      1.0  0.38891  0.17906  0.43990  1.0000
  C   C257      1.0  0.33908  0.27248  0.35169  1.0000
  S   S55       1.0  0.32577  0.16126  0.46029  1.0000
  H   H448      1.0  0.22811  0.20755  0.45163  1.0000
  Fe  Fe25      1.0  0.41238  0.31439  0.37282  1.0000
  N   N15       1.0  0.40766  0.20395  0.42236  1.0000
  C   C258      1.0  0.14504  0.24807  0.43855  1.0000
  C   C259      1.0  0.27070  0.27625  0.46194  1.0000
  H   H449      1.0  0.42663  0.14798  0.39712  1.0000
  H   H450      1.0  0.38210  0.23243  0.41101  1.0000
  C   C260      1.0  0.35463  0.14077  0.45973  1.0000
  H   H451      1.0  0.04127  0.12659  0.40429  1.0000
  S   S56       1.0  0.43093  0.09005  0.45777  1.0000
  H   H452      1.0  0.43480  0.23089  0.39637  1.0000
  H   H453      1.0  0.15218  0.19007  0.40898  1.0000
  H   H454      1.0  0.42182  0.24918  0.34886  1.0000
  H   H455      1.0  0.14510  0.19728  0.43873  1.0000
  C   C261      1.0  0.19790  0.27393  0.45842  1.0000
  C   C262      1.0  0.28577  0.29149  0.25762  1.0000
  H   H456      1.0  0.28145  0.26208  0.37286  1.0000
  N   N16       1.0  0.35209  0.29340  0.34302  1.0000
  H   H457      1.0  0.29294  0.26947  0.44093  1.0000
  C   C263      1.0  0.38242  0.22041  0.42192  1.0000
  C   C264      1.0  0.41413  0.19030  0.40985  1.0000
  H   H458      1.0  0.02909  0.05797  0.26808  1.0000
  Fe  Fe26      1.0  0.21735  0.01467  0.23862  1.0000
  H   H459      1.0  0.00561  0.05073  0.40394  1.0000
  S   S57       1.0  0.37967  0.31108  0.28541  1.0000
  H   H460      1.0  0.44481  0.29614  0.25362  1.0000
  C   C265      1.0  0.20227  0.04889  0.31351  1.0000
  N   N17       1.0  0.12685  0.02938  0.33058  1.0000
  C   C266      1.0  0.29870  0.05029  0.38822  1.0000
  C   C267      1.0  0.30468  0.00794  0.37247  1.0000
  H   H461      1.0  0.42918  0.26643  0.33057  1.0000
  H   H462      1.0  0.00077  0.00530  0.30465  1.0000
  H   H463      1.0  0.24594  0.25107  0.46530  1.0000
  H   H464      1.0  0.48027  0.29455  0.40627  1.0000
  H   H465      1.0  0.42864  0.01899  0.46630  1.0000
  H   H466      1.0  0.35516  0.07106  0.47439  1.0000
  C   C268      1.0  0.26476  0.24984  0.46734  1.0000
  C   C269      1.0  0.34277  0.07714  0.46627  1.0000
  H   H467      1.0  0.30588  0.09982  0.46524  1.0000
  H   H468      1.0  0.31288  0.28702  0.36983  1.0000
  H   H469      1.0  0.36000  0.31308  0.32081  1.0000
  H   H470      1.0  0.34100  0.01897  0.38417  1.0000
  C   C270      1.0  0.02699  0.05398  0.32081  1.0000
  H   H471      1.0  0.12994  0.02099  0.43060  1.0000
  S   S58       1.0  0.47541  0.03633  0.47682  1.0000
  S   S59       1.0  0.25799  0.00079  0.23159  1.0000
  H   H472      1.0  0.06590  0.02735  0.27543  1.0000
  H   H473      1.0  0.09563  0.01968  0.32505  1.0000
  S   S60       1.0  0.20665  0.99708  0.42230  1.0000
  H   H474      1.0  0.10517  0.02373  0.42114  1.0000
  C   C271      1.0  0.15936  0.00530  0.34667  1.0000
  H   H475      1.0  0.43554  0.30207  0.27184  1.0000
  C   C272      1.0  0.14915  0.01583  0.29103  1.0000
  H   H476      1.0  0.01644  0.03473  0.26467  1.0000
  H   H477      1.0  0.01699  0.05381  0.33223  1.0000
  H   H478      1.0  0.31360  0.99476  0.43784  1.0000
  H   H479      1.0  0.14206  0.99573  0.41141  1.0000
  H   H480      1.0  0.06271  0.00579  0.34320  1.0000
  H   H481      1.0  0.35307  0.21073  0.47091  1.0000
  H   H482      1.0  0.34808  0.30932  0.36187  1.0000
  H   H483      1.0  0.24724  0.30596  0.25735  1.0000
  H   H484      1.0  0.03169  0.99726  0.29563  1.0000
  C   C273      1.0  0.17403  0.09358  0.23223  1.0000
  C   C274      1.0  0.99575  0.04818  0.41543  1.0000
  H   H485      1.0  0.23747  0.13360  0.23005  1.0000
  H   H486      1.0  0.26476  0.29425  0.24137  1.0000
  H   H487      1.0  0.31024  0.21258  0.46867  1.0000
  H   H488      1.0  0.12468  0.00277  0.22974  1.0000
  H   H489      1.0  0.28279  0.27237  0.26260  1.0000
  H   H490      1.0  0.32670  0.30595  0.30339  1.0000
  H   H491      1.0  0.37190  0.98863  0.40777  1.0000
  C   C275      1.0  0.32072  0.31214  0.32557  1.0000
  H   H492      1.0  0.20164  0.21373  0.47550  1.0000
  H   H493      1.0  0.27042  0.20053  0.46703  1.0000
  H   H494      1.0  0.03903  0.07530  0.23199  1.0000
  H   H495      1.0  0.28591  0.30098  0.26642  1.0000
  C   C276      1.0  0.26498  0.30536  0.24938  1.0000
  H   H496      1.0  0.26484  0.15783  0.47731  1.0000
  H   H497      1.0  0.32145  0.10648  0.47770  1.0000
  C   C277      1.0  0.33853  0.98597  0.40099  1.0000
  C   C278      1.0  0.49218  0.30610  0.40812  1.0000
  H   H498      1.0  0.49117  0.30362  0.42000  1.0000
  Fe  Fe27      1.0  0.44126  0.06624  0.47859  1.0000
  H   H499      1.0  0.20405  0.26288  0.70422  1.0000
  Fe  Fe28      1.0  0.42776  0.05008  0.51161  1.0000
  S   S61       1.0  0.39693  0.05934  0.53042  1.0000
  N   N18       1.0  0.13662  0.20791  0.71313  1.0000
  C   C279      1.0  0.13611  0.18918  0.72720  1.0000
  C   C280      1.0  0.22766  0.22691  0.70818  1.0000
  H   H500      1.0  0.43027  0.98937  0.56618  1.0000
  S   S62       1.0  0.47725  0.19083  0.72579  1.0000
  S   S63       1.0  0.44954  0.07809  0.49718  1.0000
  H   H501      1.0  0.28798  0.27541  0.70661  1.0000
  H   H502      1.0  0.33393  0.07006  0.68058  1.0000
  C   C281      1.0  0.38178  0.13734  0.61643  1.0000
  H   H503      1.0  0.24016  0.28493  0.51369  1.0000
  C   C282      1.0  0.29267  0.27648  0.63745  1.0000
  C   C283      1.0  0.41692  0.10235  0.55187  1.0000
  C   C284      1.0  0.27284  0.26806  0.63513  1.0000
  H   H504      1.0  0.32049  0.01926  0.68424  1.0000
  H   H505      1.0  0.25223  0.16535  0.49506  1.0000
  Fe  Fe29      1.0  0.36038  0.99368  0.60968  1.0000
  C   C285      1.0  0.12701  0.23343  0.71669  1.0000
  H   H506      1.0  0.23290  0.23355  0.51220  1.0000
  Fe  Fe30      1.0  0.32373  0.03384  0.62351  1.0000
  S   S64       1.0  0.31292  0.00747  0.64401  1.0000
  S   S65       1.0  0.30675  0.07437  0.62204  1.0000
  Fe  Fe31      1.0  0.35359  0.99202  0.64211  1.0000
  H   H507      1.0  0.35327  0.99287  0.55708  1.0000
  H   H508      1.0  0.40560  0.99284  0.63670  1.0000
  H   H509      1.0  0.30844  0.07890  0.48251  1.0000
  S   S66       1.0  0.36456  0.02021  0.62248  1.0000
  S   S67       1.0  0.32008  0.00968  0.60894  1.0000
  Fe  Fe32      1.0  0.33043  0.20571  0.67735  1.0000
  S   S68       1.0  0.32166  0.16938  0.68996  1.0000
  S   S69       1.0  0.36209  0.22110  0.68018  1.0000
  Fe  Fe33      1.0  0.28886  0.21460  0.66050  1.0000
  S   S70       1.0  0.27738  0.17815  0.67166  1.0000
  Fe  Fe34      1.0  0.28173  0.18822  0.69186  1.0000
  C   C286      1.0  0.25434  0.17291  0.48320  1.0000
  Fe  Fe35      1.0  0.31830  0.16249  0.66866  1.0000
  S   S71       1.0  0.33847  0.12432  0.66497  1.0000
  S   S72       1.0  0.29056  0.22555  0.68109  1.0000
  S   S73       1.0  0.32965  0.19792  0.65568  1.0000
  C   C287      1.0  0.43420  0.99281  0.66954  1.0000
  H   H510      1.0  0.08487  0.18029  0.69910  1.0000
  S   S74       1.0  0.47842  0.00297  0.65213  1.0000
  S   S75       1.0  0.17943  0.25734  0.48730  1.0000
  Fe  Fe36      1.0  0.48240  0.04620  0.49659  1.0000
  S   S76       1.0  0.47950  0.08072  0.69272  1.0000
  H   H511      1.0  0.36292  0.09805  0.61324  1.0000
  H   H512      1.0  0.21124  0.27607  0.51392  1.0000
  C   C288      1.0  0.40307  0.06729  0.60026  1.0000
  H   H513      1.0  0.21264  0.16398  0.68991  1.0000
  S   S77       1.0  0.47092  0.01481  0.69235  1.0000
  H   H514      1.0  0.30677  0.10135  0.57960  1.0000
  S   S78       1.0  0.46075  0.01881  0.51234  1.0000
  C   C289      1.0  0.35035  0.03168  0.52006  1.0000
  C   C290      1.0  0.24432  0.24816  0.50880  1.0000
  S   S79       1.0  0.25579  0.17993  0.71331  1.0000
  H   H515      1.0  0.40421  0.07098  0.56634  1.0000
  H   H516      1.0  0.24338  0.27622  0.62303  1.0000
  C   C291      1.0  0.32350  0.08709  0.58167  1.0000
  H   H517      1.0  0.22801  0.98616  0.66056  1.0000
  H   H518      1.0  0.08922  0.19210  0.72147  1.0000
  H   H519      1.0  0.27844  0.29864  0.66359  1.0000
  C   C292      1.0  0.44806  0.99730  0.65543  1.0000
  C   C293      1.0  0.39659  0.19086  0.72083  1.0000
  N   N19       1.0  0.00479  0.31480  0.54284  1.0000
  C   C294      1.0  0.49052  0.12691  0.71553  1.0000
  H   H520      1.0  0.09406  0.27930  0.71589  1.0000
  S   S80       1.0  0.00853  0.99127  0.65754  1.0000
  C   C295      1.0  0.41647  0.08071  0.71305  1.0000
  C   C296      1.0  0.31712  0.08921  0.63291  1.0000
  C   C297      1.0  0.33645  0.07684  0.64029  1.0000
  C   C298      1.0  0.34377  0.08848  0.64944  1.0000
  C   C299      1.0  0.33133  0.11220  0.65165  1.0000
  C   C300      1.0  0.31264  0.12501  0.64386  1.0000
  C   C301      1.0  0.30561  0.11353  0.63445  1.0000
  H   H521      1.0  0.34553  0.05817  0.63917  1.0000
  H   H522      1.0  0.35871  0.07884  0.65512  1.0000
  H   H523      1.0  0.30323  0.14351  0.64534  1.0000
  H   H524      1.0  0.29079  0.12328  0.62866  1.0000
  H   H525      1.0  0.22633  0.29492  0.65685  1.0000
  H   H526      1.0  0.41668  0.22077  0.71295  1.0000
  C   C302      1.0  0.27626  0.03713  0.67616  1.0000
  H   H527      1.0  0.26223  0.24076  0.51258  1.0000
  C   C303      1.0  0.30063  0.18984  0.72821  1.0000
  C   C304      1.0  0.41332  0.99317  0.64586  1.0000
  H   H528      1.0  0.05432  0.27697  0.49734  1.0000
  H   H529      1.0  0.25177  0.31775  0.61015  1.0000
  C   C305      1.0  0.39375  0.21994  0.69805  1.0000
  C   C306      1.0  0.37635  0.20830  0.69541  1.0000
  H   H530      1.0  0.39892  0.23613  0.69043  1.0000
  H   H531      1.0  0.27640  0.07745  0.72748  1.0000
  Fe  Fe37      1.0  0.45064  0.01194  0.49252  1.0000
  H   H532      1.0  0.39817  0.00079  0.49330  1.0000
  C   C307      1.0  0.07660  0.31159  0.53636  1.0000
  H   H533      1.0  0.02611  0.28104  0.56565  1.0000
  C   C308      1.0  0.19337  0.24338  0.72610  1.0000
  H   H534      1.0  0.41428  0.04187  0.72187  1.0000
  C   C309      1.0  0.25840  0.09061  0.67511  1.0000
  H   H535      1.0  0.16233  0.21935  0.69350  1.0000
  H   H536      1.0  0.48274  0.14565  0.71701  1.0000
  H   H537      1.0  0.25863  0.05529  0.72687  1.0000
  H   H538      1.0  0.26591  0.08543  0.70343  1.0000
  H   H539      1.0  0.41768  0.10107  0.57935  1.0000
  H   H540      1.0  0.43621  0.09663  0.55395  1.0000
  C   C310      1.0  0.39818  0.10123  0.57873  1.0000
  C   C311      1.0  0.00374  0.27103  0.53862  1.0000
  H   H541      1.0  0.41926  0.07408  0.60146  1.0000
  H   H542      1.0  0.38943  0.12123  0.57646  1.0000
  H   H543      1.0  0.37439  0.16284  0.72569  1.0000
  H   H544      1.0  0.40008  0.03708  0.59035  1.0000
  H   H545      1.0  0.25133  0.08616  0.66639  1.0000
  N   N20       1.0  0.38511  0.08823  0.59306  1.0000
  C   C312      1.0  0.39581  0.03876  0.54728  1.0000
  C   C313      1.0  0.37386  0.04089  0.55776  1.0000
  C   C314      1.0  0.37217  0.02450  0.57125  1.0000
  C   C315      1.0  0.39247  0.00579  0.57428  1.0000
  C   C316      1.0  0.41447  0.00374  0.56384  1.0000
  C   C317      1.0  0.41615  0.02018  0.55036  1.0000
  H   H546      1.0  0.35801  0.05505  0.55529  1.0000
  H   H547      1.0  0.35506  0.02607  0.57919  1.0000
  C   C318      1.0  0.00624  0.28915  0.56896  1.0000
  H   H548      1.0  0.43322  0.01854  0.54241  1.0000
  H   H549      1.0  0.35085  0.99561  0.51664  1.0000
  H   H550      1.0  0.38016  0.09646  0.56188  1.0000
  H   H551      1.0  0.26222  0.27301  0.66854  1.0000
  H   H552      1.0  0.28185  0.04057  0.66406  1.0000
  H   H553      1.0  0.99539  0.23632  0.53720  1.0000
  H   H554      1.0  0.35667  0.17816  0.70331  1.0000
  H   H555      1.0  0.10921  0.23394  0.72470  1.0000
  H   H556      1.0  0.40417  0.10135  0.61583  1.0000
  C   C319      1.0  0.33492  0.05004  0.68510  1.0000
  H   H557      1.0  0.36804  0.13099  0.62613  1.0000
  H   H558      1.0  0.39386  0.05985  0.61150  1.0000
  H   H559      1.0  0.17765  0.30574  0.64717  1.0000
  S   S81       1.0  0.19496  0.31916  0.49092  1.0000
  H   H560      1.0  0.31370  0.28077  0.71291  1.0000
  H   H561      1.0  0.33364  0.11595  0.71823  1.0000
  C   C320      1.0  0.40987  0.98871  0.67177  1.0000
  H   H562      1.0  0.23551  0.12752  0.67303  1.0000
  H   H563      1.0  0.26344  0.00222  0.66481  1.0000
  C   C321      1.0  0.35329  0.00370  0.52548  1.0000
  H   H564      1.0  0.07982  0.21269  0.69035  1.0000
  H   H565      1.0  0.99576  0.08520  0.68818  1.0000
  H   H566      1.0  0.10427  0.99827  0.64991  1.0000
  C   C322      1.0  0.20252  0.18273  0.69166  1.0000
  C   C323      1.0  0.12327  0.25508  0.70360  1.0000
  H   H567      1.0  0.12671  0.18257  0.70285  1.0000
  H   H568      1.0  0.25546  0.20682  0.49895  1.0000
  N   N21       1.0  0.28987  0.05068  0.68254  1.0000
  C   C324      1.0  0.25542  0.11875  0.67259  1.0000
  H   H569      1.0  0.12520  0.28385  0.71466  1.0000
  H   H570      1.0  0.33046  0.04698  0.69713  1.0000
  H   H571      1.0  0.42968  0.09274  0.71255  1.0000
  H   H572      1.0  0.36502  0.03609  0.51045  1.0000
  C   C325      1.0  0.22965  0.31314  0.65749  1.0000
  H   H573      1.0  0.35965  0.99298  0.48896  1.0000
  Fe  Fe38      1.0  0.16719  0.29697  0.49047  1.0000
  H   H574      1.0  0.44842  0.00037  0.63271  1.0000
  H   H575      1.0  0.14126  0.25693  0.69613  1.0000
  H   H576      1.0  0.20061  0.19477  0.68091  1.0000
  C   C326      1.0  0.28278  0.31497  0.62020  1.0000
  C   C327      1.0  0.09244  0.20518  0.71096  1.0000
  H   H577      1.0  0.41176  0.12288  0.54957  1.0000
  H   H578      1.0  0.21382  0.19029  0.69688  1.0000
  S   S82       1.0  0.00170  0.29035  0.49801  1.0000
  H   H579      1.0  0.32382  0.04047  0.66739  1.0000
  H   H580      1.0  0.18004  0.16795  0.71158  1.0000
  H   H581      1.0  0.01943  0.26985  0.52918  1.0000
  H   H582      1.0  0.08170  0.30827  0.52505  1.0000
  C   C328      1.0  0.26137  0.99778  0.67684  1.0000
  C   C329      1.0  0.32198  0.27508  0.69108  1.0000
  H   H583      1.0  0.23848  0.22889  0.69726  1.0000
  S   S83       1.0  0.41631  0.04142  0.49295  1.0000
  H   H584      1.0  0.08577  0.30084  0.49778  1.0000
  H   H585      1.0  0.29476  0.07851  0.66303  1.0000
  H   H586      1.0  0.32266  0.11696  0.70184  1.0000
  H   H587      1.0  0.29869  0.99935  0.67700  1.0000
  H   H588      1.0  0.37216  0.15331  0.60929  1.0000
  S   S84       1.0  0.14207  0.30627  0.51108  1.0000
  N   N22       1.0  0.40152  0.10409  0.68915  1.0000
  C   C330      1.0  0.37576  0.11311  0.69722  1.0000
  C   C331      1.0  0.41703  0.12339  0.68718  1.0000
  C   C332      1.0  0.39928  0.09990  0.67468  1.0000
  C   C333      1.0  0.41383  0.08007  0.69748  1.0000
  H   H589      1.0  0.24547  0.31706  0.64841  1.0000
  C   C334      1.0  0.35894  0.09346  0.70329  1.0000
  C   C335      1.0  0.42401  0.09246  0.66416  1.0000
  C   C336      1.0  0.40879  0.14860  0.67732  1.0000
  C   C337      1.0  0.42499  0.16696  0.67692  1.0000
  C   C338      1.0  0.00246  0.29214  0.58471  1.0000
  C   C339      1.0  0.33284  0.10493  0.71030  1.0000
  C   C340      1.0  0.41896  0.08951  0.64983  1.0000
  H   H590      1.0  0.36555  0.12843  0.68997  1.0000
  H   H591      1.0  0.37665  0.12142  0.70641  1.0000
  H   H592      1.0  0.41689  0.12767  0.69788  1.0000
  H   H593      1.0  0.43691  0.11618  0.68289  1.0000
  H   H594      1.0  0.38830  0.11668  0.66881  1.0000
  H   H595      1.0  0.38853  0.08510  0.67627  1.0000
  H   H596      1.0  0.40415  0.06481  0.69801  1.0000
  H   H597      1.0  0.43294  0.07404  0.69162  1.0000
  H   H598      1.0  0.16683  0.17310  0.69564  1.0000
  C   C341      1.0  0.31390  0.24146  0.71333  1.0000
  H   H599      1.0  0.35706  0.08489  0.69454  1.0000
  H   H600      1.0  0.36666  0.07859  0.71173  1.0000
  H   H601      1.0  0.43480  0.07446  0.66885  1.0000
  H   H602      1.0  0.43575  0.10666  0.66160  1.0000
  H   H603      1.0  0.41044  0.14644  0.66598  1.0000
  H   H604      1.0  0.38925  0.15700  0.68139  1.0000
  H   H605      1.0  0.44470  0.15996  0.67227  1.0000
  H   H606      1.0  0.41843  0.18502  0.67005  1.0000
  H   H607      1.0  0.42377  0.17013  0.68802  1.0000
  C   C342      1.0  0.41458  0.04522  0.59239  1.0000
  H   H608      1.0  0.22998  0.26262  0.48889  1.0000
  H   H609      1.0  0.17419  0.21442  0.70953  1.0000
  C   C343      1.0  0.30813  0.26944  0.70678  1.0000
  H   H610      1.0  0.44226  0.99235  0.67872  1.0000
  H   H611      1.0  0.26876  0.28548  0.68247  1.0000
  H   H612      1.0  0.43687  0.08434  0.64243  1.0000
  H   H613      1.0  0.40815  0.07462  0.65177  1.0000
  H   H614      1.0  0.40845  0.10712  0.64444  1.0000
  C   C344      1.0  0.43762  0.99726  0.64362  1.0000
  C   C345      1.0  0.25830  0.28295  0.62516  1.0000
  C   C346      1.0  0.02402  0.30842  0.49691  1.0000
  C   C347      1.0  0.39431  0.11623  0.60823  1.0000
  H   H615      1.0  0.22775  0.26258  0.52859  1.0000
  H   H616      1.0  0.30551  0.23236  0.70722  1.0000
  H   H617      1.0  0.29855  0.07599  0.70235  1.0000
  H   H618      1.0  0.29294  0.21904  0.49631  1.0000
  C   C348      1.0  0.17702  0.18108  0.70133  1.0000
  H   H619      1.0  0.11023  0.25233  0.69741  1.0000
  C   C349      1.0  0.24864  0.25704  0.49204  1.0000
  H   H620      1.0  0.40815  0.12313  0.59879  1.0000
  H   H621      1.0  0.31745  0.07141  0.59007  1.0000
  H   H622      1.0  0.39314  0.99694  0.51969  1.0000
  H   H623      1.0  0.33269  0.08041  0.57144  1.0000
  H   H624      1.0  0.24632  0.08447  0.68560  1.0000
  H   H625      1.0  0.25600  0.27440  0.48976  1.0000
  H   H626      1.0  0.26592  0.12584  0.66174  1.0000
  H   H627      1.0  0.26216  0.12422  0.68107  1.0000
  H   H628      1.0  0.41934  0.01741  0.61205  1.0000
  H   H629      1.0  0.42700  0.05116  0.58202  1.0000
  H   H630      1.0  0.33195  0.03924  0.51687  1.0000
  H   H631      1.0  0.34745  0.11332  0.57796  1.0000
  H   H632      1.0  0.33560  0.19773  0.48797  1.0000
  C   C350      1.0  0.04891  0.29668  0.49712  1.0000
  C   C351      1.0  0.16267  0.20695  0.70432  1.0000
  C   C352      1.0  0.27978  0.00863  0.68163  1.0000
  C   C353      1.0  0.43061  0.02456  0.60147  1.0000
  C   C354      1.0  0.26357  0.29028  0.67159  1.0000
  C   C355      1.0  0.34119  0.09833  0.58680  1.0000
  C   C356      1.0  0.42669  0.05490  0.72102  1.0000
  C   C357      1.0  0.27668  0.06148  0.72259  1.0000
  H   H633      1.0  0.29568  0.08854  0.67869  1.0000
  H   H634      1.0  0.41639  0.09549  0.54210  1.0000
  H   H635      1.0  0.33036  0.10691  0.59617  1.0000
  H   H636      1.0  0.31686  0.29511  0.68648  1.0000
  H   H637      1.0  0.44557  0.04771  0.71522  1.0000
  H   H638      1.0  0.08434  0.22430  0.71276  1.0000
  H   H639      1.0  0.43843  0.00896  0.59557  1.0000
  H   H640      1.0  0.31310  0.30625  0.63173  1.0000
  H   H641      1.0  0.35151  0.04091  0.52877  1.0000
  H   H642      1.0  0.39387  0.10558  0.48217  1.0000
  C   C358      1.0  0.99825  0.31420  0.55900  1.0000
  C   C359      1.0  0.36348  0.07838  0.59148  1.0000
  H   H643      1.0  0.35339  0.24660  0.72399  1.0000
  H   H644      1.0  0.44622  0.03131  0.60346  1.0000
  C   C360      1.0  0.31719  0.03931  0.67935  1.0000
  H   H645      1.0  0.31713  0.26439  0.68423  1.0000
  C   C361      1.0  0.20807  0.24608  0.71211  1.0000
  C   C362      1.0  0.40392  0.21122  0.71073  1.0000
  C   C363      1.0  0.07802  0.19958  0.70095  1.0000
  C   C364      1.0  0.28081  0.06931  0.70605  1.0000
  H   H646      1.0  0.29195  0.04623  0.72589  1.0000
  C   C365      1.0  0.29768  0.29984  0.62995  1.0000
  H   H647      1.0  0.20937  0.29418  0.63963  1.0000
  H   H648      1.0  0.29520  0.25030  0.48919  1.0000
  C   C366      1.0  0.39879  0.09134  0.56487  1.0000
  C   C367      1.0  0.06678  0.31018  0.49735  1.0000
  H   H649      1.0  0.11030  0.29500  0.69916  1.0000
  H   H650      1.0  0.23570  0.17919  0.48023  1.0000
  C   C368      1.0  0.23006  0.26930  0.51665  1.0000
  H   H651      1.0  0.99458  0.27598  0.56884  1.0000
  C   C369      1.0  0.36181  0.03679  0.68109  1.0000
  H   H652      1.0  0.12297  0.21343  0.69314  1.0000
  C   C370      1.0  0.12061  0.20212  0.70434  1.0000
  H   H653      1.0  0.36260  0.12304  0.59811  1.0000
  C   C371      1.0  0.26305  0.30645  0.61784  1.0000
  H   H654      1.0  0.24197  0.00521  0.68181  1.0000
  H   H655      1.0  0.39596  0.14367  0.62016  1.0000
  H   H656      1.0  0.27710  0.00376  0.69365  1.0000
  H   H657      1.0  0.30413  0.26503  0.64502  1.0000
  H   H658      1.0  0.46699  0.12814  0.70067  1.0000
  H   H659      1.0  0.29030  0.03027  0.70452  1.0000
  H   H660      1.0  0.36762  0.03815  0.66914  1.0000
  H   H661      1.0  0.26874  0.23688  0.72457  1.0000
  C   C372      1.0  0.37490  0.10645  0.60323  1.0000
  H   H662      1.0  0.36935  0.06554  0.58374  1.0000
  H   H663      1.0  0.26035  0.04559  0.70147  1.0000
  H   H664      1.0  0.39848  0.08786  0.71970  1.0000
  S   S85       1.0  0.26508  0.23950  0.64484  1.0000
  C   C373      1.0  0.11256  0.27973  0.70868  1.0000
  H   H665      1.0  0.35602  0.06695  0.60198  1.0000
  C   C374      1.0  0.28013  0.04780  0.69875  1.0000
  H   H666      1.0  0.38177  0.00313  0.53730  1.0000
  H   H667      1.0  0.23514  0.21985  0.48645  1.0000
  C   C375      1.0  0.37997  0.17867  0.71791  1.0000
  H   H668      1.0  0.18283  0.29715  0.62251  1.0000
  H   H669      1.0  0.08078  0.29371  0.54395  1.0000
  H   H670      1.0  0.25591  0.04449  0.67844  1.0000
  H   H671      1.0  0.18539  0.30745  0.67022  1.0000
  C   C376      1.0  0.36986  0.18735  0.70526  1.0000
  H   H672      1.0  0.32237  0.09007  0.71617  1.0000
  C   C377      1.0  0.18741  0.31434  0.62389  1.0000
  H   H673      1.0  0.37444  0.04506  0.68491  1.0000
  C   C378      1.0  0.23256  0.20493  0.71823  1.0000
  H   H674      1.0  0.16628  0.30654  0.69614  1.0000
  H   H675      1.0  0.36377  0.01694  0.68638  1.0000
  C   C379      1.0  0.28598  0.07734  0.67471  1.0000
  H   H676      1.0  0.05801  0.20155  0.70610  1.0000
  C   C380      1.0  0.49101  0.09244  0.70452  1.0000
  H   H677      1.0  0.14003  0.23807  0.72219  1.0000
  H   H678      1.0  0.34240  0.27035  0.69060  1.0000
  C   C381      1.0  0.48148  0.11689  0.70633  1.0000
  H   H679      1.0  0.34227  0.22849  0.48521  1.0000
  C   C382      1.0  0.03241  0.30728  0.53757  1.0000
  H   H680      1.0  0.03615  0.30740  0.52570  1.0000
  H   H681      1.0  0.00782  0.27383  0.59167  1.0000
  H   H682      1.0  0.33130  0.15808  0.72763  1.0000
  C   C383      1.0  0.37915  0.99248  0.52967  1.0000
  H   H683      1.0  0.03956  0.28792  0.54252  1.0000
  H   H684      1.0  0.22521  0.29988  0.68100  1.0000
  C   C384      1.0  0.39925  0.98918  0.65991  1.0000
  H   H685      1.0  0.33800  0.00055  0.53490  1.0000
  H   H686      1.0  0.35278  0.13413  0.48288  1.0000
  C   C385      1.0  0.25509  0.21534  0.48735  1.0000
  C   C386      1.0  0.26849  0.19424  0.47895  1.0000
  H   H687      1.0  0.33420  0.23457  0.71031  1.0000
  H   H688      1.0  0.01128  0.26210  0.54858  1.0000
  C   C387      1.0  0.19402  0.31041  0.63887  1.0000
  N   N23       1.0  0.26562  0.23876  0.48311  1.0000
  C   C388      1.0  0.33756  0.21519  0.47997  1.0000
  C   C389      1.0  0.29149  0.23372  0.48638  1.0000
  H   H689      1.0  0.30305  0.19410  0.71621  1.0000
  Fe  Fe39      1.0  0.49363  0.00591  0.67112  1.0000
  H   H690      1.0  0.01410  0.30477  0.58563  1.0000
  H   H691      1.0  0.14002  0.17001  0.72509  1.0000
  H   H692      1.0  0.20338  0.31891  0.61518  1.0000
  C   C390      1.0  0.23874  0.30843  0.67201  1.0000
  H   H693      1.0  0.23241  0.27152  0.72675  1.0000
  H   H694      1.0  0.28707  0.18645  0.48181  1.0000
  H   H695      1.0  0.01246  0.98978  0.60747  1.0000
  H   H696      1.0  0.18803  0.98713  0.65372  1.0000
  H   H697      1.0  0.27329  0.18151  0.92747  1.0000
  Fe  Fe40      1.0  0.04078  0.18656  0.92828  1.0000
  S   S86       1.0  0.03918  0.20096  0.90461  1.0000
  S   S87       1.0  0.07704  0.16085  0.93201  1.0000
  H   H698      1.0  0.34728  0.24855  0.75625  1.0000
  H   H699      1.0  0.49057  0.09711  0.76515  1.0000
  H   H700      1.0  0.12280  0.20150  0.85457  1.0000
  C   C391      1.0  0.10891  0.13329  0.94982  1.0000
  H   H701      1.0  0.09969  0.29471  0.83345  1.0000
  Fe  Fe41      1.0  0.02574  0.23808  0.91084  1.0000
  S   S88       1.0  0.03843  0.27090  0.89499  1.0000
  H   H702      1.0  0.18518  0.19119  0.96421  1.0000
  S   S89       1.0  0.03023  0.22435  0.93407  1.0000
  C   C392      1.0  0.05673  0.30970  0.80110  1.0000
  S   S90       1.0  0.00182  0.17910  0.93402  1.0000
  H   H703      1.0  0.19692  0.00198  0.96630  1.0000
  C   C393      1.0  0.46546  0.11000  0.82165  1.0000
  H   H704      1.0  0.41770  0.09838  0.74123  1.0000
  H   H705      1.0  0.04707  0.29633  0.79901  1.0000
  H   H706      1.0  0.22717  0.27959  0.91595  1.0000
  C   C394      1.0  0.99734  0.24428  0.76703  1.0000
  S   S91       1.0  0.44800  0.04633  0.85812  1.0000
  C   C395      1.0  0.26441  0.26563  0.73703  1.0000
  S   S92       1.0  0.40604  0.09701  0.87786  1.0000
  Fe  Fe42      1.0  0.35968  0.20090  0.92201  1.0000
  S   S93       1.0  0.36276  0.18592  0.94531  1.0000
  S   S94       1.0  0.39368  0.19119  0.90507  1.0000
  Fe  Fe43      1.0  0.30938  0.23326  0.92973  1.0000
  S   S95       1.0  0.30947  0.22136  0.95366  1.0000
  S   S96       1.0  0.27257  0.25695  0.92524  1.0000
  Fe  Fe44      1.0  0.34940  0.22543  0.94802  1.0000
  S   S97       1.0  0.36912  0.23646  0.96278  1.0000
  Fe  Fe45      1.0  0.32264  0.18304  0.94894  1.0000
  H   H707      1.0  0.15811  0.15144  0.74762  1.0000
  S   S98       1.0  0.34829  0.24087  0.92442  1.0000
  S   S99       1.0  0.32061  0.19454  0.92524  1.0000
  H   H708      1.0  0.46288  0.08837  0.78694  1.0000
  H   H709      1.0  0.43500  0.12065  0.72912  1.0000
  H   H710      1.0  0.46939  0.18982  0.96190  1.0000
  Fe  Fe46      1.0  0.46540  0.18008  0.76799  1.0000
  C   C396      1.0  0.31352  0.20624  0.73368  1.0000
  C   C397      1.0  0.38499  0.30515  0.94506  1.0000
  H   H711      1.0  0.16511  0.17160  0.75739  1.0000
  H   H712      1.0  0.41113  0.23964  0.90750  1.0000
  C   C398      1.0  0.07181  0.29758  0.81304  1.0000
  H   H713      1.0  0.48184  0.28872  0.94481  1.0000
  S   S100      1.0  0.44586  0.21392  0.75471  1.0000
  S   S101      1.0  0.45794  0.15394  0.75630  1.0000
  S   S102      1.0  0.14089  0.22685  0.76959  1.0000
  Fe  Fe47      1.0  0.10082  0.22955  0.76859  1.0000
  H   H714      1.0  0.14906  0.20835  0.74050  1.0000
  H   H715      1.0  0.10526  0.20245  0.84102  1.0000
  H   H716      1.0  0.43978  0.10144  0.76817  1.0000
  H   H717      1.0  0.27014  0.22650  0.74329  1.0000
  H   H718      1.0  0.22259  0.18525  0.97020  1.0000
  C   C399      1.0  0.21822  0.20247  0.73231  1.0000
  H   H719      1.0  0.41639  0.29042  0.97295  1.0000
  H   H720      1.0  0.01282  0.12371  0.80951  1.0000
  H   H721      1.0  0.42914  0.17521  0.97101  1.0000
  H   H722      1.0  0.29452  0.29498  0.87347  1.0000
  C   C400      1.0  0.39977  0.30785  0.95423  1.0000
  H   H723      1.0  0.48483  0.16552  0.82771  1.0000
  H   H724      1.0  0.47031  0.99992  0.75817  1.0000
  Fe  Fe48      1.0  0.47045  0.02009  0.87376  1.0000
  H   H725      1.0  0.48890  0.23494  0.76302  1.0000
  C   C401      1.0  0.14963  0.31655  0.82076  1.0000
  H   H726      1.0  0.01466  0.15487  0.79990  1.0000
  S   S103      1.0  0.05964  0.31912  0.76131  1.0000
  H   H727      1.0  0.02535  0.14397  0.85482  1.0000
  H   H728      1.0  0.49116  0.00585  0.74101  1.0000
  S   S104      1.0  0.08374  0.19568  0.77201  1.0000
  H   H729      1.0  0.45531  0.21846  0.96810  1.0000
  H   H730      1.0  0.43707  0.19942  0.94558  1.0000
  C   C402      1.0  0.49284  0.07798  0.76318  1.0000
  H   H731      1.0  0.05225  0.16114  0.77489  1.0000
  C   C403      1.0  0.21035  0.18038  0.94425  1.0000
  H   H732      1.0  0.28616  0.16597  0.90498  1.0000
  H   H733      1.0  0.48657  0.30470  0.92621  1.0000
  C   C404      1.0  0.48488  0.21225  0.93401  1.0000
  H   H734      1.0  0.39635  0.27069  0.90985  1.0000
  H   H735      1.0  0.45887  0.21633  0.86616  1.0000
  C   C405      1.0  0.40329  0.12141  0.88684  1.0000
  C   C406      1.0  0.37964  0.13262  0.89332  1.0000
  C   C407      1.0  0.37669  0.15324  0.89969  1.0000
  C   C408      1.0  0.39737  0.16307  0.89931  1.0000
  C   C409      1.0  0.42109  0.15164  0.89302  1.0000
  C   C410      1.0  0.42409  0.13069  0.88692  1.0000
  H   H736      1.0  0.36353  0.12542  0.89330  1.0000
  H   H737      1.0  0.35835  0.16196  0.90449  1.0000
  H   H738      1.0  0.43719  0.15904  0.89279  1.0000
  H   H739      1.0  0.44239  0.12196  0.88206  1.0000
  H   H740      1.0  0.99400  0.23927  0.74033  1.0000
  S   S105      1.0  0.45644  0.17388  0.79237  1.0000
  H   H741      1.0  0.07058  0.30110  0.87551  1.0000
  H   H742      1.0  0.44242  0.14638  0.82096  1.0000
  H   H743      1.0  0.25167  0.22566  0.96853  1.0000
  C   C411      1.0  0.48871  0.15172  0.83760  1.0000
  C   C412      1.0  0.26813  0.12752  0.97649  1.0000
  H   H744      1.0  0.99581  0.17113  0.82257  1.0000
  H   H745      1.0  0.26739  0.26647  0.74787  1.0000
  C   C413      1.0  0.24705  0.11289  0.96197  1.0000
  C   C414      1.0  0.26266  0.12293  0.94940  1.0000
  C   C415      1.0  0.28061  0.13572  0.95038  1.0000
  H   H746      1.0  0.44882  0.23381  0.88061  1.0000
  C   C416      1.0  0.41427  0.25723  0.90931  1.0000
  H   H747      1.0  0.20854  0.24600  0.90822  1.0000
  H   H748      1.0  0.26100  0.12055  0.93890  1.0000
  H   H749      1.0  0.29293  0.14294  0.94070  1.0000
  H   H750      1.0  0.20713  0.17400  0.93490  1.0000
  H   H751      1.0  0.41500  0.06118  0.81584  1.0000
  C   C417      1.0  0.08446  0.14598  0.94914  1.0000
  C   C418      1.0  0.06663  0.14621  0.96194  1.0000
  C   C419      1.0  0.15564  0.29255  0.82866  1.0000
  C   C420      1.0  0.15395  0.19032  0.73691  1.0000
  C   C421      1.0  0.18397  0.23064  0.92793  1.0000
  C   C422      1.0  0.03355  0.17309  0.75658  1.0000
  H   H752      1.0  0.04770  0.15547  0.96143  1.0000
  H   H753      1.0  0.13325  0.17205  0.75706  1.0000
  H   H754      1.0  0.35271  0.22059  0.73897  1.0000
  H   H755      1.0  0.47697  0.05660  0.79133  1.0000
  H   H756      1.0  0.31031  0.26631  0.73600  1.0000
  H   H757      1.0  0.46578  0.11089  0.74468  1.0000
  H   H758      1.0  0.22778  0.25583  0.74557  1.0000
  C   C423      1.0  0.38068  0.26415  0.95913  1.0000
  C   C424      1.0  0.37554  0.28333  0.94745  1.0000
  H   H759      1.0  0.33371  0.20082  0.72954  1.0000
  Fe  Fe49      1.0  0.08975  0.28554  0.76487  1.0000
  C   C425      1.0  0.46145  0.25122  0.94121  1.0000
  H   H760      1.0  0.36407  0.28147  0.94039  1.0000
  H   H761      1.0  0.01334  0.24609  0.97277  1.0000
  C   C426      1.0  0.25490  0.30069  0.88132  1.0000
  C   C427      1.0  0.23600  0.29599  0.89330  1.0000
  C   C428      1.0  0.24190  0.28258  0.90664  1.0000
  C   C429      1.0  0.26668  0.27309  0.90805  1.0000
  C   C430      1.0  0.28571  0.27737  0.89603  1.0000
  C   C431      1.0  0.27981  0.29134  0.88270  1.0000
  C   C432      1.0  0.15266  0.27219  0.82369  1.0000
  C   C433      1.0  0.01543  0.24789  0.86893  1.0000
  H   H762      1.0  0.30490  0.27050  0.89714  1.0000
  C   C434      1.0  0.11111  0.28869  0.89850  1.0000
  C   C435      1.0  0.09888  0.27306  0.91005  1.0000
  C   C436      1.0  0.07666  0.26714  0.90902  1.0000
  C   C437      1.0  0.06646  0.27727  0.89653  1.0000
  C   C438      1.0  0.07860  0.29307  0.88507  1.0000
  C   C439      1.0  0.10108  0.29850  0.88596  1.0000
  C   C440      1.0  0.24988  0.11518  0.97554  1.0000
  H   H763      1.0  0.06724  0.25512  0.91795  1.0000
  H   H764      1.0  0.00162  0.16370  0.96804  1.0000
  H   H765      1.0  0.37507  0.24984  0.74255  1.0000
  C   C441      1.0  0.31136  0.16235  0.73269  1.0000
  C   C442      1.0  0.39561  0.26680  0.96821  1.0000
  H   H766      1.0  0.06944  0.31602  0.79089  1.0000
  H   H767      1.0  0.39962  0.25207  0.97729  1.0000
  C   C443      1.0  0.01621  0.16266  0.85003  1.0000
  H   H768      1.0  0.03930  0.30355  0.83021  1.0000
  C   C444      1.0  0.34520  0.24058  0.73558  1.0000
  H   H769      1.0  0.21090  0.21834  0.96670  1.0000
  H   H770      1.0  0.25435  0.18760  0.94875  1.0000
  C   C445      1.0  0.02417  0.18143  0.85619  1.0000
  H   H771      1.0  0.05533  0.27207  0.96059  1.0000
  H   H772      1.0  0.18539  0.26877  0.91687  1.0000
  H   H773      1.0  0.13438  0.11096  0.96361  1.0000
  H   H774      1.0  0.01180  0.12722  0.83866  1.0000
  C   C446      1.0  0.14361  0.27573  0.81082  1.0000
  H   H775      1.0  0.00423  0.12212  0.87399  1.0000
  C   C447      1.0  0.43742  0.06289  0.79405  1.0000
  S   S106      1.0  0.40525  0.18176  0.73794  1.0000
  S   S107      1.0  0.16998  0.06215  0.97752  1.0000
  H   H776      1.0  0.12019  0.22547  0.93836  1.0000
  H   H777      1.0  0.02362  0.16575  0.83815  1.0000
  H   H778      1.0  0.04698  0.27499  0.75923  1.0000
  C   C448      1.0  0.05252  0.23305  0.96562  1.0000
  H   H779      1.0  0.47490  0.17513  0.93978  1.0000
  H   H780      1.0  0.02342  0.15808  0.75975  1.0000
  C   C449      1.0  0.43283  0.19070  0.97489  1.0000
  H   H781      1.0  0.44941  0.15505  0.84695  1.0000
  C   C450      1.0  0.19872  0.22170  0.73626  1.0000
  C   C451      1.0  0.47633  0.26887  0.92940  1.0000
  C   C452      1.0  0.04408  0.20986  0.73981  1.0000
  H   H782      1.0  0.44272  0.26196  0.94506  1.0000
  H   H783      1.0  0.04471  0.17938  0.85347  1.0000
  H   H784      1.0  0.01577  0.20064  0.85152  1.0000
  H   H785      1.0  0.01836  0.17824  0.86822  1.0000
  H   H786      1.0  0.47153  0.00065  0.82312  1.0000
  H   H787      1.0  0.07071  0.25522  0.94620  1.0000
  C   C453      1.0  0.25832  0.18104  0.92200  1.0000
  H   H788      1.0  0.45730  0.10320  0.83278  1.0000
  C   C454      1.0  0.46274  0.06946  0.78548  1.0000
  H   H789      1.0  0.21169  0.24347  0.93544  1.0000
  C   C455      1.0  0.44839  0.23395  0.92333  1.0000
  H   H790      1.0  0.01013  0.22593  0.76688  1.0000
  C   C456      1.0  0.18519  0.18223  0.95521  1.0000
  S   S108      1.0  0.47814  0.08907  0.85916  1.0000
  H   H791      1.0  0.41999  0.12573  0.74706  1.0000
  H   H792      1.0  0.12273  0.13273  0.93994  1.0000
  C   C457      1.0  0.01488  0.14217  0.81061  1.0000
  H   H793      1.0  0.22483  0.20387  0.91620  1.0000
  S   S109      1.0  0.18379  0.30636  0.86186  1.0000
  H   H794      1.0  0.44334  0.20279  0.88393  1.0000
  H   H795      1.0  0.13029  0.21943  0.83659  1.0000
  H   H796      1.0  0.00317  0.23536  0.86867  1.0000
  H   H797      1.0  0.15769  0.25364  0.82971  1.0000
  C   C458      1.0  0.48446  0.09454  0.81396  1.0000
  H   H798      1.0  0.17875  0.14663  0.95334  1.0000
  C   C459      1.0  0.46100  0.99460  0.83418  1.0000
  S   S110      1.0  0.12848  0.28790  0.76562  1.0000
  C   C460      1.0  0.23676  0.20348  0.92393  1.0000
  C   C461      1.0  0.35442  0.25434  0.74445  1.0000
  C   C462      1.0  0.43010  0.11128  0.74061  1.0000
  C   C463      1.0  0.45376  0.09727  0.74622  1.0000
  C   C464      1.0  0.43303  0.06616  0.80981  1.0000
  S   S111      1.0  0.13876  0.29587  0.90001  1.0000
  C   C465      1.0  0.45191  0.20366  0.96351  1.0000
  C   C466      1.0  0.26990  0.18145  0.90596  1.0000
  C   C467      1.0  0.22752  0.20357  0.96505  1.0000
  C   C468      1.0  0.99740  0.11055  0.86854  1.0000
  C   C469      1.0  0.47144  0.04210  0.76794  1.0000
  H   H799      1.0  0.44802  0.05405  0.81536  1.0000
  C   C470      1.0  0.21470  0.00217  0.95835  1.0000
  C   C471      1.0  0.48532  0.12743  0.79253  1.0000
  H   H800      1.0  0.16029  0.15847  0.96909  1.0000
  H   H801      1.0  0.43701  0.04331  0.79433  1.0000
  H   H802      1.0  0.10356  0.31311  0.73913  1.0000
  C   C472      1.0  0.23890  0.20395  0.94877  1.0000
  C   C473      1.0  0.46671  0.14307  0.80036  1.0000
  H   H803      1.0  0.04588  0.27439  0.82519  1.0000
  C   C474      1.0  0.08311  0.29366  0.84236  1.0000
  H   H804      1.0  0.25175  0.16334  0.92645  1.0000
  C   C475      1.0  0.47490  0.29281  0.93450  1.0000
  H   H805      1.0  0.46376  0.04438  0.74642  1.0000
  H   H806      1.0  0.09404  0.21209  0.93827  1.0000
  C   C476      1.0  0.28328  0.13815  0.96398  1.0000
  S   S112      1.0  0.30577  0.15336  0.96609  1.0000
  H   H807      1.0  0.42809  0.05585  0.73215  1.0000
  H   H808      1.0  0.00918  0.07746  0.88397  1.0000
  H   H809      1.0  0.03547  0.28970  0.85571  1.0000
  H   H810      1.0  0.27636  0.19914  0.90098  1.0000
  N   N24       1.0  0.38685  0.21923  0.85931  1.0000
  C   C477      1.0  0.38595  0.20117  0.85025  1.0000
  C   C478      1.0  0.38481  0.24525  0.85036  1.0000
  C   C479      1.0  0.41189  0.21186  0.86385  1.0000
  C   C480      1.0  0.36711  0.21812  0.87294  1.0000
  C   C481      1.0  0.33983  0.22483  0.87089  1.0000
  C   C482      1.0  0.38848  0.17353  0.85789  1.0000
  C   C483      1.0  0.41891  0.23045  0.87105  1.0000
  C   C484      1.0  0.36798  0.25252  0.83878  1.0000
  C   C485      1.0  0.36389  0.28037  0.83272  1.0000
  C   C486      1.0  0.32222  0.21905  0.88540  1.0000
  C   C487      1.0  0.38776  0.15727  0.84748  1.0000
  C   C488      1.0  0.44407  0.22015  0.87567  1.0000
  H   H811      1.0  0.40093  0.20242  0.84036  1.0000
  H   H812      1.0  0.36834  0.20591  0.84611  1.0000
  H   H813      1.0  0.37863  0.25903  0.85766  1.0000
  H   H814      1.0  0.40343  0.24837  0.84399  1.0000
  H   H815      1.0  0.42694  0.20864  0.85429  1.0000
  H   H816      1.0  0.41311  0.19406  0.87179  1.0000
  H   H817      1.0  0.37009  0.19950  0.87998  1.0000
  H   H818      1.0  0.36859  0.23089  0.87968  1.0000
  H   H819      1.0  0.33650  0.21434  0.86343  1.0000
  H   H820      1.0  0.33480  0.24501  0.86667  1.0000
  H   H821      1.0  0.40631  0.16647  0.86175  1.0000
  H   H822      1.0  0.37297  0.17088  0.86726  1.0000
  H   H823      1.0  0.40510  0.23424  0.88092  1.0000
  H   H824      1.0  0.42028  0.24834  0.86343  1.0000
  H   H825      1.0  0.37707  0.24294  0.82952  1.0000
  H   H826      1.0  0.34954  0.24744  0.84311  1.0000
  H   H827      1.0  0.35387  0.29084  0.84145  1.0000
  H   H828      1.0  0.38194  0.28631  0.82781  1.0000
  H   H829      1.0  0.35247  0.28491  0.82416  1.0000
  H   H830      1.0  0.32541  0.22829  0.89356  1.0000
  H   H831      1.0  0.30268  0.22591  0.88388  1.0000
  H   H832      1.0  0.32504  0.19874  0.88963  1.0000
  H   H833      1.0  0.38984  0.13760  0.85319  1.0000
  H   H834      1.0  0.36977  0.16265  0.84369  1.0000
  H   H835      1.0  0.40323  0.15878  0.83796  1.0000
  H   H836      1.0  0.02881  0.31840  0.93979  1.0000
  C   C489      1.0  0.15244  0.17006  0.75055  1.0000
  H   H837      1.0  0.49310  0.13415  0.78130  1.0000
  H   H838      1.0  0.03735  0.26398  0.94979  1.0000
  H   H839      1.0  0.40881  0.24587  0.93239  1.0000
  H   H840      1.0  0.25625  0.17923  0.89998  1.0000
  H   H841      1.0  0.30936  0.23984  0.74996  1.0000
  H   H842      1.0  0.04448  0.24455  0.76961  1.0000
  H   H843      1.0  0.07192  0.31321  0.92539  1.0000
  H   H844      1.0  0.10655  0.26559  0.91981  1.0000
  C   C490      1.0  0.13722  0.29976  0.80307  1.0000
  H   H845      1.0  0.48456  0.02950  0.77472  1.0000
  S   S113      1.0  0.08615  0.25519  0.78450  1.0000
  H   H846      1.0  0.01233  0.10411  0.85976  1.0000
  Fe  Fe50      1.0  0.14018  0.25973  0.75116  1.0000
  Fe  Fe51      1.0  0.12614  0.25519  0.78400  1.0000
  H   H847      1.0  0.22269  0.01766  0.95940  1.0000
  H   H848      1.0  0.42793  0.26487  0.90002  1.0000
  H   H849      1.0  0.31084  0.20044  0.74575  1.0000
  H   H850      1.0  0.18385  0.21304  0.92484  1.0000
  H   H851      1.0  0.21093  0.00568  0.94718  1.0000
  C   C491      1.0  0.47946  0.03685  0.75228  1.0000
  H   H852      1.0  0.45544  0.30324  0.93619  1.0000
  H   H853      1.0  0.02713  0.19385  0.97000  1.0000
  H   H854      1.0  0.11717  0.19157  0.73408  1.0000
  S   S114      1.0  0.22397  0.09798  0.96033  1.0000
  H   H855      1.0  0.22761  0.28861  0.74103  1.0000
  N   N25       1.0  0.22155  0.20346  0.93910  1.0000
  N   N26       1.0  0.13657  0.19745  0.89907  1.0000
  C   C492      1.0  0.13403  0.21661  0.88535  1.0000
  C   C493      1.0  0.11953  0.17929  0.90122  1.0000
  C   C494      1.0  0.12803  0.21089  0.91170  1.0000
  C   C495      1.0  0.16303  0.18409  0.89926  1.0000
  C   C496      1.0  0.17608  0.17079  0.88644  1.0000
  C   C497      1.0  0.15139  0.23570  0.88118  1.0000
  C   C498      1.0  0.12959  0.19449  0.92698  1.0000
  C   C499      1.0  0.11488  0.17270  0.88748  1.0000
  C   C500      1.0  0.10107  0.15111  0.89156  1.0000
  C   C501      1.0  0.20374  0.16140  0.88673  1.0000
  C   C502      1.0  0.14778  0.25289  0.86671  1.0000
  H   H856      1.0  0.11057  0.31036  0.87696  1.0000
  H   H857      1.0  0.11445  0.22707  0.88615  1.0000
  H   H858      1.0  0.13772  0.20778  0.87578  1.0000
  H   H859      1.0  0.12605  0.16163  0.90850  1.0000
  H   H860      1.0  0.10057  0.18679  0.90686  1.0000
  H   H861      1.0  0.10846  0.22094  0.91182  1.0000
  H   H862      1.0  0.13908  0.22527  0.91058  1.0000
  H   H863      1.0  0.17457  0.19701  0.90002  1.0000
  H   H864      1.0  0.16397  0.16947  0.90925  1.0000
  H   H865      1.0  0.17457  0.18317  0.87578  1.0000
  H   H866      1.0  0.16789  0.15439  0.88735  1.0000
  H   H867      1.0  0.14752  0.24751  0.88939  1.0000
  H   H868      1.0  0.17122  0.22639  0.87992  1.0000
  C   C503      1.0  0.18908  0.25009  0.91412  1.0000
  H   H869      1.0  0.12298  0.17707  0.92839  1.0000
  H   H870      1.0  0.10304  0.18886  0.88170  1.0000
  H   H871      1.0  0.13232  0.16757  0.87981  1.0000
  H   H872      1.0  0.08309  0.15560  0.89906  1.0000
  H   H873      1.0  0.09720  0.14730  0.88163  1.0000
  H   H874      1.0  0.11245  0.13411  0.89695  1.0000
  H   H875      1.0  0.21319  0.17711  0.88545  1.0000
  H   H876      1.0  0.20639  0.14836  0.89711  1.0000
  H   H877      1.0  0.21261  0.15142  0.87764  1.0000
  H   H878      1.0  0.15191  0.24220  0.85787  1.0000
  H   H879      1.0  0.12850  0.26375  0.86752  1.0000
  H   H880      1.0  0.16067  0.26602  0.86383  1.0000
  Fe  Fe52      1.0  0.48370  0.05864  0.84676  1.0000
  H   H881      1.0  0.02559  0.27161  0.77636  1.0000
  Fe  Fe53      1.0  0.99930  0.19695  0.91084  1.0000
  C   C504      1.0  0.20235  0.22717  0.93838  1.0000
  H   H882      1.0  0.14914  0.18952  0.92859  1.0000
  H   H883      1.0  0.16473  0.23698  0.93364  1.0000
  H   H884      1.0  0.41508  0.20399  0.97723  1.0000
  H   H885      1.0  0.34846  0.27468  0.74115  1.0000
  N   N27       1.0  0.06779  0.27671  0.84027  1.0000
  C   C505      1.0  0.08494  0.25289  0.83722  1.0000
  H   H886      1.0  0.21680  0.30270  0.89234  1.0000
  C   C506      1.0  0.03070  0.19056  0.74385  1.0000
  C   C507      1.0  0.04849  0.27211  0.85388  1.0000
  H   H887      1.0  0.46429  0.17623  0.85162  1.0000
  C   C508      1.0  0.09654  0.23601  0.85009  1.0000
  N   N28       1.0  0.46889  0.06853  0.76945  1.0000
  H   H888      1.0  0.22386  0.16475  0.94919  1.0000
  C   C509      1.0  0.46662  0.15710  0.84985  1.0000
  H   H889      1.0  0.04334  0.23574  0.85149  1.0000
  C   C510      1.0  0.11481  0.21349  0.84525  1.0000
  C   C511      1.0  0.45684  0.13434  0.81491  1.0000
  H   H890      1.0  0.10068  0.25704  0.82829  1.0000
  H   H891      1.0  0.07551  0.24165  0.83302  1.0000
  H   H892      1.0  0.22200  0.18552  0.74013  1.0000
  C   C512      1.0  0.48624  0.00903  0.75238  1.0000
  S   S115      1.0  0.01028  0.18943  0.73281  1.0000
  H   H893      1.0  0.09097  0.28593  0.85240  1.0000
  H   H894      1.0  0.05732  0.26576  0.86365  1.0000
  C   C513      1.0  0.24617  0.20738  0.97312  1.0000
  H   H895      1.0  0.01976  0.26156  0.84594  1.0000
  H   H896      1.0  0.24785  0.22042  0.94450  1.0000
  H   H897      1.0  0.10684  0.24612  0.85438  1.0000
  H   H898      1.0  0.08206  0.22906  0.85908  1.0000
  H   H899      1.0  0.46932  0.14388  0.86014  1.0000
  H   H900      1.0  0.42537  0.27106  0.92514  1.0000
  Fe  Fe54      1.0  0.48360  0.21369  0.74029  1.0000
  H   H901      1.0  0.24490  0.22057  0.91992  1.0000
  S   S116      1.0  0.24763  0.31885  0.86476  1.0000
  Fe  Fe55      1.0  0.44429  0.07423  0.87198  1.0000
  C   C514      1.0  0.11554  0.12084  0.96321  1.0000
  S   S117      1.0  0.16824  0.26724  0.73039  1.0000
  H   H902      1.0  0.46197  0.24057  0.91360  1.0000
  H   H903      1.0  0.18769  0.21963  0.74713  1.0000
  C   C515      1.0  0.44221  0.21458  0.94909  1.0000
  H   H904      1.0  0.43226  0.07538  0.76415  1.0000
  H   H905      1.0  0.44320  0.00798  0.83614  1.0000
  H   H906      1.0  0.44462  0.21686  0.92119  1.0000
  H   H907      1.0  0.02318  0.25843  0.74769  1.0000
  H   H908      1.0  0.11598  0.19590  0.94980  1.0000
  H   H909      1.0  0.19277  0.14545  0.96857  1.0000
  C   C516      1.0  0.04992  0.17484  0.76511  1.0000
  S   S118      1.0  0.13979  0.24978  0.80503  1.0000
  C   C517      1.0  0.40521  0.28849  0.96575  1.0000
  C   C518      1.0  0.09763  0.12068  0.97599  1.0000
  H   H910      1.0  0.13003  0.30273  0.79323  1.0000
  S   S119      1.0  0.46419  0.04728  0.88857  1.0000
  C   C519      1.0  0.05402  0.25762  0.95493  1.0000
  S   S120      1.0  0.10139  0.25998  0.74896  1.0000
  H   H911      1.0  0.04176  0.22355  0.73004  1.0000
  H   H912      1.0  0.43249  0.08573  0.81023  1.0000
  H   H913      1.0  0.02692  0.23851  0.87729  1.0000
  C   C520      1.0  0.06337  0.19413  0.76104  1.0000
  C   C521      1.0  0.03386  0.26354  0.76647  1.0000
  N   N29       1.0  0.45927  0.22801  0.93691  1.0000
  H   H914      1.0  0.07055  0.22660  0.74512  1.0000
  H   H915      1.0  0.08600  0.28204  0.80922  1.0000
  H   H916      1.0  0.47876  0.18836  0.92067  1.0000
  H   H917      1.0  0.42427  0.22728  0.95195  1.0000
  H   H918      1.0  0.16987  0.19322  0.94962  1.0000
  C   C522      1.0  0.01374  0.26339  0.75838  1.0000
  H   H919      1.0  0.19074  0.22887  0.94921  1.0000
  C   C523      1.0  0.11400  0.20796  0.93906  1.0000
  C   C524      1.0  0.03204  0.25359  0.85403  1.0000
  H   H920      1.0  0.42168  0.07498  0.78921  1.0000
  C   C525      1.0  0.17892  0.15664  0.96191  1.0000
  H   H921      1.0  0.16298  0.28970  0.83842  1.0000
  H   H922      1.0  0.30924  0.15696  0.74470  1.0000
  C   C526      1.0  0.06037  0.21166  0.74835  1.0000
  H   H923      1.0  0.08157  0.31162  0.81417  1.0000
  C   C527      1.0  0.44777  0.08534  0.76259  1.0000
  Fe  Fe56      1.0  0.44131  0.18774  0.74166  1.0000
  H   H924      1.0  0.47089  0.24643  0.95069  1.0000
  C   C528      1.0  0.42346  0.25288  0.92356  1.0000
  H   H925      1.0  0.45345  0.03581  0.77237  1.0000
  C   C529      1.0  0.05488  0.28810  0.82754  1.0000
  H   H926      1.0  0.03308  0.14051  0.81366  1.0000
  H   H927      1.0  0.46359  0.08368  0.73926  1.0000
  H   H928      1.0  0.17658  0.25051  0.90672  1.0000
  N   N30       1.0  0.30504  0.23394  0.72948  1.0000
  H   H929      1.0  0.05221  0.21905  0.95942  1.0000
  C   C530      1.0  0.31632  0.24591  0.73812  1.0000
  H   H930      1.0  0.03326  0.29909  0.92662  1.0000
  C   C531      1.0  0.07320  0.13345  0.97532  1.0000
  C   C532      1.0  0.48593  0.18644  0.93072  1.0000
  H   H931      1.0  0.00292  0.28248  0.75631  1.0000
  H   H932      1.0  0.47213  0.99483  0.84223  1.0000
  C   C533      1.0  0.23637  0.27061  0.73763  1.0000
  H   H933      1.0  0.26305  0.19259  0.97231  1.0000
  S   S121      1.0  0.46473  0.30539  0.97367  1.0000
  H   H934      1.0  0.28047  0.19259  0.73288  1.0000
  H   H935      1.0  0.00357  0.26516  0.87215  1.0000
  H   H936      1.0  0.99753  0.21174  0.97463  1.0000
  C   C534      1.0  0.02934  0.23585  0.97804  1.0000
  H   H937      1.0  0.48954  0.13291  0.83589  1.0000
  H   H938      1.0  0.17351  0.18770  0.73109  1.0000
  H   H939      1.0  0.46908  0.27410  0.91915  1.0000
  H   H940      1.0  0.06991  0.22722  0.97005  1.0000
  H   H941      1.0  0.28550  0.31588  0.91094  1.0000
  C   C535      1.0  0.27692  0.23973  0.73338  1.0000
  C   C536      1.0  0.03241  0.31823  0.92798  1.0000
  H   H942      1.0  0.27194  0.28085  0.72905  1.0000
  H   H943      1.0  0.30121  0.15122  0.72895  1.0000
  Fe  Fe57      1.0  0.40774  0.59694  0.99047  1.0000
  S   S122      1.0  0.38234  0.63406  0.99079  1.0000
  S   S123      1.0  0.41672  0.56347  0.00778  1.0000
  H   H944      1.0  0.29666  0.32656  0.19337  1.0000
  C   C537      1.0  0.00642  0.36937  0.16872  1.0000
  C   C538      1.0  0.45902  0.47289  0.01730  1.0000
  C   C539      1.0  0.10183  0.62853  0.15270  1.0000
  H   H945      1.0  0.48362  0.56313  0.14741  1.0000
  H   H946      1.0  0.39667  0.61057  0.08282  1.0000
  H   H947      1.0  0.04906  0.52390  0.22063  1.0000
  H   H948      1.0  0.00023  0.56606  0.02716  1.0000
  H   H949      1.0  0.01887  0.56043  0.21114  1.0000
  S   S124      1.0  0.40837  0.50465  0.99384  1.0000
  N   N31       1.0  0.46238  0.40167  0.02148  1.0000
  H   H950      1.0  0.23250  0.36962  0.20701  1.0000
  H   H951      1.0  0.47924  0.52606  0.14306  1.0000
  H   H952      1.0  0.10032  0.38539  0.14617  1.0000
  Fe  Fe58      1.0  0.03114  0.43251  0.18375  1.0000
  C   C540      1.0  0.08782  0.39899  0.15257  1.0000
  S   S125      1.0  0.48337  0.56267  0.01343  1.0000
  Fe  Fe59      1.0  0.05973  0.46033  0.19620  1.0000
  S   S126      1.0  0.04573  0.49684  0.18268  1.0000
  S   S127      1.0  0.08337  0.45561  0.21302  1.0000
  H   H953      1.0  0.24937  0.58667  0.22212  1.0000
  H   H954      1.0  0.29844  0.40131  0.20070  1.0000
  Fe  Fe60      1.0  0.05321  0.47552  0.16485  1.0000
  S   S128      1.0  0.07241  0.48833  0.14216  1.0000
  S   S129      1.0  0.02244  0.44933  0.20367  1.0000
  S   S130      1.0  0.07011  0.43971  0.17776  1.0000
  C   C541      1.0  0.27779  0.37439  0.21528  1.0000
  C   C542      1.0  0.48557  0.64104  0.14905  1.0000
  H   H955      1.0  0.05827  0.39025  0.10825  1.0000
  H   H956      1.0  0.30410  0.32661  0.13831  1.0000
  H   H957      1.0  0.44025  0.53928  0.18464  1.0000
  H   H958      1.0  0.43682  0.55949  0.16790  1.0000
  H   H959      1.0  0.39448  0.61581  0.15977  1.0000
  C   C543      1.0  0.48589  0.55988  0.15882  1.0000
  H   H960      1.0  0.41708  0.38236  0.03428  1.0000
  H   H961      1.0  0.07405  0.43893  0.13144  1.0000
  C   C544      1.0  0.12859  0.49455  0.22139  1.0000
  H   H962      1.0  0.34320  0.32508  0.17591  1.0000
  C   C545      1.0  0.48060  0.39011  0.04539  1.0000
  H   H963      1.0  0.02488  0.61894  0.99127  1.0000
  C   C546      1.0  0.02257  0.54773  0.11547  1.0000
  C   C547      1.0  0.04614  0.53668  0.10894  1.0000
  C   C548      1.0  0.06166  0.51914  0.11735  1.0000
  C   C549      1.0  0.05331  0.51186  0.13224  1.0000
  C   C550      1.0  0.02980  0.52305  0.13890  1.0000
  C   C551      1.0  0.01448  0.54123  0.13050  1.0000
  H   H964      1.0  0.05227  0.54149  0.09730  1.0000
  H   H965      1.0  0.07986  0.51060  0.11221  1.0000
  H   H966      1.0  0.02335  0.51751  0.15045  1.0000
  C   C552      1.0  0.12351  0.51757  0.21224  1.0000
  H   H967      1.0  0.26381  0.33038  0.21563  1.0000
  C   C553      1.0  0.48047  0.58044  0.05224  1.0000
  H   H968      1.0  0.42163  0.65159  0.20146  1.0000
  H   H969      1.0  0.20807  0.35501  0.21885  1.0000
  H   H970      1.0  0.46958  0.32435  0.21630  1.0000
  C   C554      1.0  0.39276  0.58629  0.12768  1.0000
  S   S131      1.0  0.47473  0.62986  0.09930  1.0000
  H   H971      1.0  0.02344  0.40151  0.13697  1.0000
  Fe  Fe61      1.0  0.42216  0.54076  0.99047  1.0000
  H   H972      1.0  0.40928  0.41133  0.02216  1.0000
  H   H973      1.0  0.03661  0.50413  0.21331  1.0000
  C   C555      1.0  0.28201  0.40095  0.20969  1.0000
  C   C556      1.0  0.27909  0.63571  0.20904  1.0000
  H   H974      1.0  0.46242  0.51921  0.12207  1.0000
  H   H975      1.0  0.05240  0.47715  0.08325  1.0000
  C   C557      1.0  0.36520  0.63934  0.09042  1.0000
  H   H976      1.0  0.43877  0.59752  0.02313  1.0000
  C   C558      1.0  0.23546  0.64792  0.20751  1.0000
  H   H977      1.0  0.45627  0.37183  0.03998  1.0000
  C   C559      1.0  0.43835  0.53967  0.17337  1.0000
  C   C560      1.0  0.06307  0.40811  0.14737  1.0000
  Fe  Fe62      1.0  0.46132  0.32827  0.99049  1.0000
  H   H978      1.0  0.44606  0.32708  0.18418  1.0000
  C   C561      1.0  0.42702  0.47940  0.98597  1.0000
  C   C562      1.0  0.09939  0.47931  0.21222  1.0000
  C   C563      1.0  0.09480  0.50216  0.20288  1.0000
  C   C564      1.0  0.40541  0.37951  0.01534  1.0000
  H   H979      1.0  0.38852  0.59618  0.13689  1.0000
  H   H980      1.0  0.43124  0.53517  0.12828  1.0000
  C   C565      1.0  0.46012  0.52763  0.14974  1.0000
  H   H981      1.0  0.29112  0.59725  0.21813  1.0000
  H   H982      1.0  0.26557  0.41309  0.20555  1.0000
  C   C566      1.0  0.44687  0.39000  0.01518  1.0000
  H   H983      1.0  0.29490  0.36322  0.21896  1.0000
  H   H984      1.0  0.10128  0.63552  0.16262  1.0000
  H   H985      1.0  0.23886  0.38679  0.22431  1.0000
  S   S132      1.0  0.20348  0.54966  0.21187  1.0000
  C   C567      1.0  0.41906  0.39179  0.02271  1.0000
  H   H986      1.0  0.43859  0.47868  0.02063  1.0000
  H   H987      1.0  0.49012  0.42265  0.99413  1.0000
  H   H988      1.0  0.45507  0.36997  0.01542  1.0000
  H   H989      1.0  0.46405  0.47694  0.00525  1.0000
  C   C568      1.0  0.00151  0.45968  0.12581  1.0000
  H   H990      1.0  0.04435  0.48058  0.10921  1.0000
  H   H991      1.0  0.44120  0.41533  0.20569  1.0000
  S   S133      1.0  0.46231  0.54294  0.98212  1.0000
  H   H992      1.0  0.48780  0.44074  0.01925  1.0000
  C   C569      1.0  0.39388  0.62596  0.10848  1.0000
  H   H993      1.0  0.06795  0.42782  0.10341  1.0000
  S   S134      1.0  0.44699  0.60219  0.98232  1.0000
  H   H994      1.0  0.44692  0.39853  0.00355  1.0000
  C   C570      1.0  0.22729  0.35154  0.21251  1.0000
  C   C571      1.0  0.46624  0.32533  0.17961  1.0000
  S   S135      1.0  0.20177  0.61754  0.21660  1.0000
  H   H995      1.0  0.03690  0.44251  0.10251  1.0000
  H   H996      1.0  0.40524  0.38937  0.00394  1.0000
  H   H997      1.0  0.41317  0.58081  0.12445  1.0000
  H   H998      1.0  0.14853  0.65068  0.18313  1.0000
  H   H999      1.0  0.46193  0.36508  0.17203  1.0000
  H   H1000     1.0  0.09706  0.41476  0.15152  1.0000
  H   H1001     1.0  0.35191  0.35574  0.18870  1.0000
  H   H1002     1.0  0.01913  0.43979  0.14370  1.0000
  Fe  Fe63      1.0  0.45629  0.56741  0.99851  1.0000
  H   H1003     1.0  0.19239  0.60573  0.18283  1.0000
  C   C572      1.0  0.05197  0.44066  0.10857  1.0000
  H   H1004     1.0  0.44267  0.65225  0.12395  1.0000
  C   C573      1.0  0.43053  0.38027  0.21590  1.0000
  C   C574      1.0  0.05991  0.46616  0.10529  1.0000
  H   H1005     1.0  0.08894  0.60040  0.11446  1.0000
  H   H1006     1.0  0.28560  0.40841  0.21849  1.0000
  H   H1007     1.0  0.48883  0.38133  0.06711  1.0000
  H   H1008     1.0  0.07491  0.62157  0.13413  1.0000
  C   C575      1.0  0.00231  0.57687  0.17103  1.0000
  H   H1009     1.0  0.03826  0.54466  0.19705  1.0000
  C   C576      1.0  0.46749  0.44533  0.02319  1.0000
  H   H1010     1.0  0.40884  0.53742  0.16285  1.0000
  H   H1011     1.0  0.38929  0.63708  0.06903  1.0000
  H   H1012     1.0  0.39475  0.54509  0.19445  1.0000
  H   H1013     1.0  0.41265  0.51345  0.17884  1.0000
  C   C577      1.0  0.45895  0.39140  0.03767  1.0000
  H   H1014     1.0  0.05392  0.62134  0.10172  1.0000
  C   C578      1.0  0.45034  0.59258  0.03126  1.0000
  H   H1015     1.0  0.46832  0.48409  0.02157  1.0000
  H   H1016     1.0  0.08236  0.41099  0.12482  1.0000
  H   H1017     1.0  0.02874  0.35765  0.13333  1.0000
  S   S136      1.0  0.01502  0.46714  0.16949  1.0000
  C   C579      1.0  0.00540  0.39251  0.17197  1.0000
  H   H1018     1.0  0.33034  0.64594  0.11548  1.0000
  C   C580      1.0  0.49095  0.32425  0.02286  1.0000
  H   H1019     1.0  0.36139  0.60757  0.11878  1.0000
  C   C581      1.0  0.02324  0.54307  0.20682  1.0000
  H   H1020     1.0  0.45308  0.43616  0.00661  1.0000
  H   H1021     1.0  0.43366  0.43429  0.02386  1.0000
  C   C582      1.0  0.45331  0.42936  0.01839  1.0000
  H   H1022     1.0  0.38151  0.34919  0.19421  1.0000
  C   C583      1.0  0.16871  0.64279  0.18257  1.0000
  H   H1023     1.0  0.32720  0.33275  0.15529  1.0000
  C   C584      1.0  0.47222  0.38498  0.20273  1.0000
  H   H1024     1.0  0.36618  0.33651  0.16148  1.0000
  H   H1025     1.0  0.14408  0.64921  0.16023  1.0000
  C   C585      1.0  0.03187  0.52087  0.21821  1.0000
  H   H1026     1.0  0.45992  0.34838  0.15868  1.0000
  H   H1027     1.0  0.47878  0.64182  0.99697  1.0000
  C   C586      1.0  0.43195  0.43766  0.98129  1.0000
  H   H1028     1.0  0.39774  0.63233  0.11764  1.0000
  H   H1029     1.0  0.42617  0.61736  0.04481  1.0000
  H   H1030     1.0  0.46346  0.44277  0.03522  1.0000
  H   H1031     1.0  0.39960  0.45625  0.99445  1.0000
  H   H1032     1.0  0.13570  0.60969  0.19030  1.0000
  H   H1033     1.0  0.35005  0.62401  0.06898  1.0000
  H   H1034     1.0  0.03408  0.46373  0.13296  1.0000
  S   S137      1.0  0.02357  0.39488  0.18398  1.0000
  C   C587      1.0  0.46852  0.46235  0.19455  1.0000
  C   C588      1.0  0.01258  0.62815  0.98376  1.0000
  C   C589      1.0  0.42027  0.63130  0.14152  1.0000
  C   C590      1.0  0.05017  0.38517  0.11995  1.0000
  C   C591      1.0  0.38164  0.60279  0.11488  1.0000
  H   H1035     1.0  0.21389  0.64686  0.18348  1.0000
  C   C592      1.0  0.11634  0.47554  0.22148  1.0000
  S   S138      1.0  0.46231  0.57426  0.10602  1.0000
  C   C593      1.0  0.39862  0.63248  0.15226  1.0000
  C   C594      1.0  0.46399  0.49705  0.17267  1.0000
  C   C595      1.0  0.48017  0.35927  0.20569  1.0000
  H   H1036     1.0  0.49028  0.62603  0.15829  1.0000
  H   H1037     1.0  0.26193  0.63471  0.16250  1.0000
  C   C596      1.0  0.44326  0.60382  0.04355  1.0000
  H   H1038     1.0  0.09854  0.64473  0.14379  1.0000
  C   C597      1.0  0.39200  0.54882  0.18305  1.0000
  H   H1039     1.0  0.04892  0.34849  0.11724  1.0000
  H   H1040     1.0  0.37394  0.54413  0.18311  1.0000
  H   H1041     1.0  0.48517  0.39671  0.19648  1.0000
  C   C598      1.0  0.41099  0.65064  0.19337  1.0000
  H   H1042     1.0  0.08192  0.50529  0.19570  1.0000
  H   H1043     1.0  0.15912  0.58182  0.19047  1.0000
  H   H1044     1.0  0.46571  0.36595  0.06516  1.0000
  C   C599      1.0  0.17358  0.61540  0.18084  1.0000
  C   C600      1.0  0.15501  0.60137  0.19188  1.0000
  C   C601      1.0  0.10662  0.52126  0.20299  1.0000
  C   C602      1.0  0.48920  0.39441  0.01433  1.0000
  H   H1045     1.0  0.21720  0.63060  0.16942  1.0000
  H   H1046     1.0  0.08444  0.38976  0.16420  1.0000
  H   H1047     1.0  0.07336  0.49334  0.08697  1.0000
  H   H1048     1.0  0.43686  0.50318  0.12664  1.0000
  H   H1049     1.0  0.00651  0.54066  0.20354  1.0000
  S   S139      1.0  0.30836  0.64352  0.20655  1.0000
  H   H1050     1.0  0.35167  0.62824  0.09753  1.0000
  S   S140      1.0  0.00272  0.56721  0.10431  1.0000
  Fe  Fe64      1.0  0.00916  0.48456  0.18890  1.0000
  H   H1051     1.0  0.38464  0.59152  0.10643  1.0000
  H   H1052     1.0  0.02047  0.37076  0.11571  1.0000
  C   C603      1.0  0.03253  0.40787  0.12557  1.0000
  H   H1053     1.0  0.17209  0.61386  0.16986  1.0000
  H   H1054     1.0  0.27531  0.36750  0.20598  1.0000
  H   H1055     1.0  0.40622  0.63749  0.01293  1.0000
  C   C604      1.0  0.25193  0.60544  0.21750  1.0000
  C   C605      1.0  0.23183  0.62378  0.21366  1.0000
  S   S141      1.0  0.45029  0.61422  0.06853  1.0000
  H   H1056     1.0  0.45038  0.54672  0.14567  1.0000
  C   C606      1.0  0.44844  0.50895  0.14529  1.0000
  H   H1057     1.0  0.43028  0.50647  0.15229  1.0000
  S   S142      1.0  0.44032  0.60267  0.14024  1.0000
  C   C607      1.0  0.45848  0.59806  0.05397  1.0000
  H   H1058     1.0  0.06553  0.37764  0.12608  1.0000
  H   H1059     1.0  0.48749  0.40766  0.04268  1.0000
  S   S143      1.0  0.25818  0.49905  0.22574  1.0000
  C   C608      1.0  0.49353  0.31961  0.04830  1.0000
  H   H1060     1.0  0.19059  0.64190  0.15250  1.0000
  H   H1061     1.0  0.04710  0.59162  0.10195  1.0000
  H   H1062     1.0  0.49222  0.57567  0.06024  1.0000
  H   H1063     1.0  0.42448  0.42120  0.98258  1.0000
  C   C609      1.0  0.36557  0.61073  0.07350  1.0000
  H   H1064     1.0  0.47161  0.57361  0.16432  1.0000
  Fe  Fe65      1.0  0.46735  0.60010  0.11894  1.0000
  Fe  Fe66      1.0  0.19737  0.57795  0.22569  1.0000
  H   H1065     1.0  0.46106  0.49054  0.14612  1.0000
  H   H1066     1.0  0.06374  0.62465  0.15944  1.0000
  H   H1067     1.0  0.47103  0.45769  0.20603  1.0000
  H   H1068     1.0  0.48489  0.49430  0.18984  1.0000
  C   C610      1.0  0.06687  0.42229  0.13137  1.0000
  H   H1069     1.0  0.02030  0.64379  0.01066  1.0000
  H   H1070     1.0  0.10266  0.53901  0.19587  1.0000
  H   H1071     1.0  0.37747  0.60097  0.06482  1.0000
  C   C611      1.0  0.46967  0.34791  0.16752  1.0000
  H   H1072     1.0  0.48056  0.48643  0.16637  1.0000
  H   H1073     1.0  0.05083  0.42046  0.15462  1.0000
  H   H1074     1.0  0.38692  0.62892  0.20980  1.0000
  H   H1075     1.0  0.21368  0.34906  0.19374  1.0000
  C   C612      1.0  0.27555  0.61145  0.21524  1.0000
  C   C613      1.0  0.37707  0.32249  0.18265  1.0000
  H   H1076     1.0  0.48560  0.39304  0.99237  1.0000
  H   H1077     1.0  0.47616  0.32613  0.18800  1.0000
  C   C614      1.0  0.48350  0.65105  0.02281  1.0000
  N   N32       1.0  0.46097  0.52421  0.16571  1.0000
  H   H1078     1.0  0.00578  0.46803  0.11411  1.0000
  H   H1079     1.0  0.45783  0.39861  0.06592  1.0000
  C   C615      1.0  0.41783  0.45760  0.98792  1.0000
  C   C616      1.0  0.44452  0.51723  0.12961  1.0000
  Fe  Fe67      1.0  0.16686  0.54067  0.22478  1.0000
  H   H1080     1.0  0.05470  0.39167  0.14880  1.0000
  H   H1081     1.0  0.39111  0.56887  0.17838  1.0000
  H   H1082     1.0  0.99930  0.62079  0.04213  1.0000
  H   H1083     1.0  0.48397  0.53259  0.17838  1.0000
  C   C617      1.0  0.48353  0.53308  0.16686  1.0000
  H   H1084     1.0  0.00909  0.57705  0.18089  1.0000
  H   H1085     1.0  0.38587  0.38026  0.02121  1.0000
  H   H1086     1.0  0.37957  0.36150  0.17538  1.0000
  H   H1087     1.0  0.01837  0.35314  0.17360  1.0000
  H   H1088     1.0  0.41264  0.61905  0.10229  1.0000
  H   H1089     1.0  0.35370  0.56221  0.97964  1.0000
  S   S144      1.0  0.39967  0.39369  0.22251  1.0000
  C   C618      1.0  0.46340  0.34420  0.21382  1.0000
  H   H1090     1.0  0.17206  0.64204  0.19357  1.0000
  C   C619      1.0  0.24554  0.33598  0.22254  1.0000
  H   H1091     1.0  0.30395  0.46486  0.22804  1.0000
  H   H1092     1.0  0.35798  0.59675  0.08259  1.0000
  H   H1093     1.0  0.45416  0.64390  0.17414  1.0000
  C   C620      1.0  0.47264  0.38365  0.06190  1.0000
  H   H1094     1.0  0.44168  0.40192  0.04347  1.0000
  H   H1095     1.0  0.41440  0.35976  0.01547  1.0000
  H   H1096     1.0  0.37381  0.64481  0.19402  1.0000
  C   C621      1.0  0.02542  0.44842  0.13223  1.0000
  C   C622      1.0  0.38112  0.62436  0.07869  1.0000
  C   C623      1.0  0.06795  0.47503  0.08896  1.0000
  H   H1097     1.0  0.34987  0.64098  0.12878  1.0000
  C   C624      1.0  0.43862  0.35463  0.21872  1.0000
  C   C625      1.0  0.41136  0.65123  0.00344  1.0000
  C   C626      1.0  0.41301  0.53318  0.17395  1.0000
  S   S145      1.0  0.13679  0.54270  0.21233  1.0000
  H   H1098     1.0  0.32374  0.32940  0.20969  1.0000
  H   H1099     1.0  0.38472  0.56926  0.13141  1.0000
  H   H1100     1.0  0.01063  0.60769  0.01679  1.0000
  N   N33       1.0  0.06451  0.58558  0.14335  1.0000
  C   C627      1.0  0.04244  0.58894  0.15563  1.0000
  C   C628      1.0  0.08093  0.60413  0.14176  1.0000
  C   C629      1.0  0.05453  0.59083  0.12947  1.0000
  C   C630      1.0  0.07930  0.55947  0.14530  1.0000
  C   C631      1.0  0.09037  0.55019  0.15929  1.0000
  C   C632      1.0  0.02402  0.57105  0.15866  1.0000
  C   C633      1.0  0.07417  0.59006  0.11518  1.0000
  C   C634      1.0  0.08186  0.61290  0.15568  1.0000
  Fe  Fe68      1.0  0.47325  0.60228  0.08626  1.0000
  C   C635      1.0  0.10378  0.52317  0.16040  1.0000
  C   C636      1.0  0.03616  0.36431  0.12167  1.0000
  C   C637      1.0  0.06202  0.60138  0.10190  1.0000
  H   H1101     1.0  0.03165  0.60824  0.15354  1.0000
  H   H1102     1.0  0.04848  0.58671  0.16607  1.0000
  H   H1103     1.0  0.10039  0.59685  0.13667  1.0000
  H   H1104     1.0  0.01716  0.41332  0.11935  1.0000
  H   H1105     1.0  0.04204  0.60935  0.12832  1.0000
  H   H1106     1.0  0.04310  0.57725  0.12972  1.0000
  H   H1107     1.0  0.06801  0.54617  0.14479  1.0000
  H   H1108     1.0  0.09532  0.55752  0.13610  1.0000
  H   H1109     1.0  0.07576  0.55141  0.16920  1.0000
  H   H1110     1.0  0.10440  0.56107  0.15911  1.0000
  H   H1111     1.0  0.01574  0.57268  0.14909  1.0000
  H   H1112     1.0  0.03348  0.55158  0.16185  1.0000
  H   H1113     1.0  0.08308  0.57056  0.11442  1.0000
  C   C638      1.0  0.48766  0.56940  0.03989  1.0000
  H   H1114     1.0  0.08416  0.46176  0.08441  1.0000
  H   H1115     1.0  0.08578  0.59723  0.16470  1.0000
  H   H1116     1.0  0.16216  0.64989  0.13398  1.0000
  H   H1117     1.0  0.07573  0.46513  0.11052  1.0000
  C   C639      1.0  0.47272  0.57550  0.02932  1.0000
  H   H1118     1.0  0.11231  0.51718  0.17024  1.0000
  H   H1119     1.0  0.09055  0.51098  0.16126  1.0000
  H   H1120     1.0  0.11875  0.52079  0.15073  1.0000
  C   C640      1.0  0.44740  0.39546  0.20791  1.0000
  H   H1121     1.0  0.15653  0.60142  0.20316  1.0000
  H   H1122     1.0  0.01400  0.57674  0.03904  1.0000
  C   C641      1.0  0.22716  0.33789  0.20064  1.0000
  H   H1123     1.0  0.47414  0.63495  0.14315  1.0000
  H   H1124     1.0  0.45110  0.45691  0.19411  1.0000
  N   N34       1.0  0.04419  0.42979  0.12444  1.0000
  H   H1125     1.0  0.34787  0.32124  0.14004  1.0000
  H   H1126     1.0  0.99613  0.54957  0.13550  1.0000
  C   C642      1.0  0.37216  0.34889  0.18534  1.0000
  C   C643      1.0  0.99737  0.58001  0.03407  1.0000
  H   H1127     1.0  0.44804  0.48922  0.17222  1.0000
  H   H1128     1.0  0.48975  0.34757  0.16294  1.0000
  H   H1129     1.0  0.47274  0.63586  0.02608  1.0000
  H   H1130     1.0  0.12060  0.61728  0.14967  1.0000
  H   H1131     1.0  0.02550  0.64657  0.02743  1.0000
  H   H1132     1.0  0.99514  0.49538  0.13205  1.0000
  H   H1133     1.0  0.24588  0.33486  0.19361  1.0000
  C   C644      1.0  0.21113  0.64939  0.17213  1.0000
  H   H1134     1.0  0.07614  0.59970  0.09181  1.0000
  H   H1135     1.0  0.45147  0.50016  0.19575  1.0000
  C   C645      1.0  0.46725  0.49012  0.18875  1.0000
  H   H1136     1.0  0.41994  0.63420  0.18837  1.0000
  H   H1137     1.0  0.48455  0.45149  0.18807  1.0000
  S   S146      1.0  0.43360  0.36004  0.98097  1.0000
  C   C646      1.0  0.38519  0.64639  0.20160  1.0000
  N   N35       1.0  0.37975  0.64747  0.09912  1.0000
  H   H1138     1.0  0.41172  0.64937  0.08161  1.0000
  H   H1139     1.0  0.42589  0.34275  0.22468  1.0000
  H   H1140     1.0  0.00853  0.65185  0.15702  1.0000
  C   C647      1.0  0.36325  0.32090  0.17082  1.0000
  H   H1141     1.0  0.48330  0.65246  0.04559  1.0000
  H   H1142     1.0  0.22171  0.31965  0.20549  1.0000
  C   C648      1.0  0.25506  0.37323  0.22796  1.0000
  H   H1143     1.0  0.99427  0.51758  0.22858  1.0000
  H   H1144     1.0  0.14156  0.49157  0.22858  1.0000
  H   H1145     1.0  0.11999  0.45789  0.22874  1.0000
  Fe  Fe69      1.0  0.21993  0.52287  0.23002  1.0000
  S   S147      1.0  0.18379  0.51140  0.24193  1.0000
  H   H1146     1.0  0.38012  0.41886  0.26671  1.0000
  C   C649      1.0  0.21079  0.53275  0.44816  1.0000
  S   S148      1.0  0.21686  0.55228  0.24272  1.0000
  H   H1147     1.0  0.32577  0.36597  0.35076  1.0000
  S   S149      1.0  0.02396  0.54643  0.36790  1.0000
  Fe  Fe70      1.0  0.17975  0.54280  0.25348  1.0000
  S   S150      1.0  0.16514  0.53919  0.27769  1.0000
  S   S151      1.0  0.15966  0.57099  0.23745  1.0000
  H   H1148     1.0  0.35089  0.60792  0.43078  1.0000
  H   H1149     1.0  0.37325  0.50710  0.41346  1.0000
  Fe  Fe71      1.0  0.19266  0.58917  0.33872  1.0000
  S   S152      1.0  0.16423  0.56646  0.35164  1.0000
  S   S153      1.0  0.21349  0.58416  0.31606  1.0000
  Fe  Fe72      1.0  0.18520  0.62024  0.36205  1.0000
  S   S154      1.0  0.15616  0.59967  0.37633  1.0000
  Fe  Fe73      1.0  0.18190  0.56541  0.37044  1.0000
  S   S155      1.0  0.18606  0.53239  0.38888  1.0000
  Fe  Fe74      1.0  0.14129  0.60284  0.35633  1.0000
  S   S156      1.0  0.10061  0.61779  0.35557  1.0000
  S   S157      1.0  0.21215  0.58566  0.35729  1.0000
  S   S158      1.0  0.16851  0.62586  0.34226  1.0000
  S   S159      1.0  0.44225  0.59384  0.46488  1.0000
  C   C650      1.0  0.27332  0.39663  0.42490  1.0000
  H   H1150     1.0  0.26620  0.55545  0.45804  1.0000
  N   N36       1.0  0.22110  0.64330  0.26037  1.0000
  S   S160      1.0  0.43056  0.35982  0.32044  1.0000
  C   C651      1.0  0.19919  0.36257  0.26873  1.0000
  S   S161      1.0  0.42876  0.53086  0.46190  1.0000
  C   C652      1.0  0.34000  0.62372  0.46139  1.0000
  Fe  Fe75      1.0  0.29634  0.48730  0.42750  1.0000
  S   S162      1.0  0.27858  0.49861  0.44879  1.0000
  S   S163      1.0  0.29099  0.51235  0.40621  1.0000
  Fe  Fe76      1.0  0.32327  0.43800  0.44096  1.0000
  S   S164      1.0  0.30818  0.44467  0.46365  1.0000
  S   S165      1.0  0.34514  0.40018  0.43771  1.0000
  Fe  Fe77      1.0  0.27194  0.45988  0.45627  1.0000
  H   H1151     1.0  0.04720  0.47686  0.25554  1.0000
  Fe  Fe78      1.0  0.31579  0.48295  0.45499  1.0000
  C   C653      1.0  0.01639  0.47292  0.23859  1.0000
  S   S166      1.0  0.28607  0.44983  0.43429  1.0000
  S   S167      1.0  0.33466  0.47514  0.43281  1.0000
  H   H1152     1.0  0.36954  0.55222  0.40340  1.0000
  H   H1153     1.0  0.27887  0.57656  0.39022  1.0000
  H   H1154     1.0  0.27951  0.43956  0.40395  1.0000
  H   H1155     1.0  0.31543  0.62448  0.39206  1.0000
  H   H1156     1.0  0.42761  0.34001  0.25306  1.0000
  H   H1157     1.0  0.26853  0.55888  0.24675  1.0000
  C   C654      1.0  0.48680  0.41339  0.35869  1.0000
  C   C655      1.0  0.20140  0.39656  0.46222  1.0000
  C   C656      1.0  0.21111  0.41451  0.45103  1.0000
  C   C657      1.0  0.22257  0.43150  0.45418  1.0000
  H   H1158     1.0  0.49032  0.35967  0.27701  1.0000
  H   H1159     1.0  0.36021  0.53792  0.43704  1.0000
  H   H1160     1.0  0.20984  0.41521  0.43992  1.0000
  H   H1161     1.0  0.23009  0.44532  0.44553  1.0000
  C   C658      1.0  0.36732  0.39934  0.42151  1.0000
  C   C659      1.0  0.37915  0.37642  0.41771  1.0000
  C   C660      1.0  0.39654  0.37528  0.40469  1.0000
  C   C661      1.0  0.40269  0.39704  0.39561  1.0000
  C   C662      1.0  0.39132  0.41993  0.39957  1.0000
  C   C663      1.0  0.37341  0.42111  0.41240  1.0000
  H   H1162     1.0  0.37480  0.35950  0.42481  1.0000
  H   H1163     1.0  0.36675  0.57578  0.45082  1.0000
  H   H1164     1.0  0.39607  0.43681  0.39259  1.0000
  H   H1165     1.0  0.36444  0.43885  0.41523  1.0000
  C   C664      1.0  0.39944  0.52299  0.46447  1.0000
  C   C665      1.0  0.39653  0.50581  0.45694  1.0000
  C   C666      1.0  0.37317  0.49962  0.45863  1.0000
  C   C667      1.0  0.35267  0.51074  0.46781  1.0000
  C   C668      1.0  0.04827  0.51543  0.25140  1.0000
  Fe  Fe79      1.0  0.35114  0.32370  0.23837  1.0000
  H   H1166     1.0  0.41240  0.49726  0.44981  1.0000
  H   H1167     1.0  0.37104  0.48633  0.45282  1.0000
  C   C669      1.0  0.28856  0.36370  0.44393  1.0000
  H   H1168     1.0  0.21631  0.33483  0.41922  1.0000
  C   C670      1.0  0.21612  0.52341  0.39301  1.0000
  C   C671      1.0  0.21975  0.50923  0.40667  1.0000
  C   C672      1.0  0.24319  0.50430  0.41058  1.0000
  C   C673      1.0  0.26290  0.51383  0.40088  1.0000
  C   C674      1.0  0.25969  0.52636  0.38691  1.0000
  C   C675      1.0  0.23638  0.53113  0.38298  1.0000
  H   H1169     1.0  0.20434  0.50270  0.41440  1.0000
  H   H1170     1.0  0.24567  0.49420  0.42133  1.0000
  H   H1171     1.0  0.27519  0.53286  0.37919  1.0000
  H   H1172     1.0  0.23417  0.54090  0.37220  1.0000
  C   C676      1.0  0.07948  0.59774  0.35928  1.0000
  C   C677      1.0  0.05390  0.60758  0.36121  1.0000
  C   C678      1.0  0.03662  0.59203  0.36385  1.0000
  C   C679      1.0  0.04493  0.56659  0.36446  1.0000
  C   C680      1.0  0.07052  0.55680  0.36245  1.0000
  C   C681      1.0  0.08776  0.57231  0.35998  1.0000
  H   H1173     1.0  0.04740  0.62730  0.36066  1.0000
  H   H1174     1.0  0.49033  0.37095  0.30034  1.0000
  H   H1175     1.0  0.07697  0.53718  0.36267  1.0000
  H   H1176     1.0  0.10747  0.56473  0.35825  1.0000
  H   H1177     1.0  0.33428  0.60687  0.46133  1.0000
  C   C682      1.0  0.40019  0.36129  0.30179  1.0000
  S   S168      1.0  0.46384  0.35228  0.35286  1.0000
  N   N37       1.0  0.45044  0.37447  0.26117  1.0000
  C   C683      1.0  0.17961  0.55063  0.28833  1.0000
  C   C684      1.0  0.17002  0.54869  0.30325  1.0000
  C   C685      1.0  0.18029  0.55876  0.31191  1.0000
  C   C686      1.0  0.20072  0.57024  0.30577  1.0000
  C   C687      1.0  0.21122  0.57085  0.29102  1.0000
  C   C688      1.0  0.20045  0.56149  0.28227  1.0000
  H   H1178     1.0  0.15447  0.53950  0.30810  1.0000
  H   H1179     1.0  0.17242  0.55757  0.32331  1.0000
  H   H1180     1.0  0.22759  0.57879  0.28634  1.0000
  H   H1181     1.0  0.20819  0.56280  0.27085  1.0000
  H   H1182     1.0  0.03298  0.42391  0.23419  1.0000
  S   S169      1.0  0.18858  0.37449  0.45800  1.0000
  C   C689      1.0  0.29460  0.43054  0.24105  1.0000
  C   C690      1.0  0.27541  0.41816  0.24877  1.0000
  C   C691      1.0  0.25063  0.43054  0.24919  1.0000
  C   C692      1.0  0.24506  0.45525  0.24194  1.0000
  H   H1183     1.0  0.43710  0.39041  0.28066  1.0000
  H   H1184     1.0  0.48312  0.43336  0.35367  1.0000
  H   H1185     1.0  0.23570  0.42104  0.25513  1.0000
  H   H1186     1.0  0.22593  0.46463  0.24220  1.0000
  S   S170      1.0  0.35448  0.37448  0.25870  1.0000
  N   N38       1.0  0.08466  0.59484  0.31371  1.0000
  C   C693      1.0  0.09606  0.56927  0.32084  1.0000
  C   C694      1.0  0.09870  0.61369  0.31499  1.0000
  C   C695      1.0  0.05828  0.60090  0.32190  1.0000
  C   C696      1.0  0.08359  0.59609  0.29806  1.0000
  C   C697      1.0  0.10847  0.58819  0.28787  1.0000
  C   C698      1.0  0.08231  0.54814  0.32172  1.0000
  H   H1187     1.0  0.13145  0.63774  0.32117  1.0000
  C   C699      1.0  0.12724  0.60544  0.31411  1.0000
  Fe  Fe80      1.0  0.43285  0.55662  0.47553  1.0000
  C   C700      1.0  0.10418  0.58696  0.27302  1.0000
  C   C701      1.0  0.26106  0.43428  0.40594  1.0000
  H   H1188     1.0  0.09736  0.56947  0.33211  1.0000
  H   H1189     1.0  0.11550  0.56359  0.31543  1.0000
  H   H1190     1.0  0.99933  0.43053  0.23911  1.0000
  C   C702      1.0  0.28218  0.36438  0.47083  1.0000
  H   H1191     1.0  0.05794  0.59648  0.33380  1.0000
  H   H1192     1.0  0.04653  0.58913  0.32004  1.0000
  H   H1193     1.0  0.07026  0.58491  0.29742  1.0000
  H   H1194     1.0  0.07599  0.61531  0.29297  1.0000
  H   H1195     1.0  0.11849  0.56964  0.29230  1.0000
  H   H1196     1.0  0.12044  0.60201  0.28594  1.0000
  H   H1197     1.0  0.06395  0.55068  0.32914  1.0000
  H   H1198     1.0  0.07955  0.54739  0.31084  1.0000
  H   H1199     1.0  0.05768  0.48848  0.23706  1.0000
  C   C703      1.0  0.04330  0.49296  0.24667  1.0000
  H   H1200     1.0  0.13109  0.59275  0.32440  1.0000
  C   C704      1.0  0.21676  0.64168  0.27660  1.0000
  C   C705      1.0  0.26342  0.40617  0.41055  1.0000
  C   C706      1.0  0.39376  0.32509  0.29492  1.0000
  H   H1201     1.0  0.25261  0.36913  0.45952  1.0000
  H   H1202     1.0  0.28905  0.64061  0.40302  1.0000
  H   H1203     1.0  0.12237  0.58165  0.26589  1.0000
  H   H1204     1.0  0.09292  0.57275  0.27412  1.0000
  H   H1205     1.0  0.11528  0.51877  0.32033  1.0000
  H   H1206     1.0  0.25997  0.57646  0.37742  1.0000
  N   N39       1.0  0.27789  0.36900  0.43029  1.0000
  C   C707      1.0  0.22496  0.35919  0.25905  1.0000
  S   S171      1.0  0.14565  0.32695  0.47589  1.0000
  C   C708      1.0  0.24183  0.60024  0.39303  1.0000
  S   S172      1.0  0.28195  0.38728  0.25799  1.0000
  H   H1207     1.0  0.38863  0.55939  0.43789  1.0000
  C   C709      1.0  0.45169  0.34687  0.26609  1.0000
  C   C710      1.0  0.36583  0.64446  0.46947  1.0000
  H   H1208     1.0  0.38668  0.44502  0.25258  1.0000
  S   S173      1.0  0.32306  0.50397  0.47014  1.0000
  H   H1209     1.0  0.24460  0.40212  0.41205  1.0000
  H   H1210     1.0  0.46352  0.35380  0.29055  1.0000
  H   H1211     1.0  0.23689  0.55665  0.43762  1.0000
  C   C711      1.0  0.41836  0.41482  0.25466  1.0000
  H   H1212     1.0  0.03610  0.44355  0.25376  1.0000
  C   C712      1.0  0.26018  0.60832  0.26165  1.0000
  H   H1213     1.0  0.16465  0.63040  0.42158  1.0000
  Fe  Fe81      1.0  0.32155  0.36728  0.25220  1.0000
  H   H1214     1.0  0.47517  0.38700  0.42740  1.0000
  C   C713      1.0  0.41576  0.34616  0.31115  1.0000
  C   C714      1.0  0.28777  0.60198  0.25501  1.0000
  H   H1215     1.0  0.22646  0.63982  0.43926  1.0000
  C   C715      1.0  0.01823  0.44829  0.24990  1.0000
  H   H1216     1.0  0.29047  0.40394  0.42376  1.0000
  C   C716      1.0  0.48632  0.41051  0.37491  1.0000
  C   C717      1.0  0.24811  0.63439  0.25420  1.0000
  H   H1217     1.0  0.31299  0.32821  0.33103  1.0000
  H   H1218     1.0  0.16905  0.59850  0.26390  1.0000
  H   H1219     1.0  0.25825  0.62443  0.43935  1.0000
  C   C718      1.0  0.24657  0.34928  0.42246  1.0000
  C   C719      1.0  0.24312  0.62937  0.43302  1.0000
  H   H1220     1.0  0.19048  0.57973  0.43887  1.0000
  S   S174      1.0  0.34053  0.36421  0.22925  1.0000
  H   H1221     1.0  0.25111  0.59393  0.26024  1.0000
  H   H1222     1.0  0.25879  0.60716  0.27344  1.0000
  H   H1223     1.0  0.46382  0.33882  0.40741  1.0000
  C   C720      1.0  0.37771  0.57785  0.43960  1.0000
  H   H1224     1.0  0.08640  0.51417  0.23978  1.0000
  C   C721      1.0  0.26426  0.46779  0.23445  1.0000
  H   H1225     1.0  0.04128  0.49318  0.41213  1.0000
  H   H1226     1.0  0.40757  0.58603  0.44710  1.0000
  H   H1227     1.0  0.09509  0.63090  0.30672  1.0000
  S   S175      1.0  0.40392  0.35355  0.36089  1.0000
  H   H1228     1.0  0.35564  0.37504  0.34598  1.0000
  H   H1229     1.0  0.06527  0.47135  0.40302  1.0000
  C   C722      1.0  0.29657  0.35551  0.41935  1.0000
  H   H1230     1.0  0.27373  0.34102  0.24927  1.0000
  H   H1231     1.0  0.29589  0.58311  0.26033  1.0000
  H   H1232     1.0  0.29037  0.60239  0.24320  1.0000
  N   N40       1.0  0.25718  0.49608  0.27890  1.0000
  C   C723      1.0  0.23118  0.49068  0.28286  1.0000
  C   C724      1.0  0.26146  0.50903  0.28993  1.0000
  C   C725      1.0  0.25931  0.51365  0.26439  1.0000
  C   C726      1.0  0.27679  0.47306  0.27727  1.0000
  C   C727      1.0  0.27554  0.45090  0.29019  1.0000
  C   C728      1.0  0.22412  0.47768  0.27242  1.0000
  C   C729      1.0  0.28435  0.52281  0.25857  1.0000
  C   C730      1.0  0.24744  0.50281  0.30586  1.0000
  C   C731      1.0  0.25584  0.51507  0.31589  1.0000
  C   C732      1.0  0.29466  0.42810  0.28640  1.0000
  C   C733      1.0  0.19901  0.46984  0.27858  1.0000
  C   C734      1.0  0.28322  0.54250  0.24468  1.0000
  H   H1233     1.0  0.21730  0.50820  0.28354  1.0000
  H   H1234     1.0  0.22784  0.47892  0.29382  1.0000
  H   H1235     1.0  0.28165  0.50586  0.29009  1.0000
  H   H1236     1.0  0.25562  0.52952  0.28676  1.0000
  H   H1237     1.0  0.24419  0.53024  0.26500  1.0000
  H   H1238     1.0  0.25682  0.50501  0.25575  1.0000
  H   H1239     1.0  0.27663  0.46655  0.26725  1.0000
  H   H1240     1.0  0.29567  0.47728  0.27550  1.0000
  H   H1241     1.0  0.25706  0.44558  0.29315  1.0000
  H   H1242     1.0  0.27985  0.45549  0.29975  1.0000
  H   H1243     1.0  0.22267  0.49033  0.26182  1.0000
  H   H1244     1.0  0.23801  0.46071  0.27065  1.0000
  H   H1245     1.0  0.29963  0.50724  0.25584  1.0000
  H   H1246     1.0  0.28918  0.53106  0.26661  1.0000
  H   H1247     1.0  0.22715  0.51000  0.30647  1.0000
  H   H1248     1.0  0.25038  0.48262  0.31016  1.0000
  H   H1249     1.0  0.25274  0.53550  0.31213  1.0000
  H   H1250     1.0  0.24489  0.51106  0.32708  1.0000
  H   H1251     1.0  0.27584  0.50786  0.31625  1.0000
  H   H1252     1.0  0.29373  0.41249  0.29586  1.0000
  H   H1253     1.0  0.29075  0.42224  0.27708  1.0000
  H   H1254     1.0  0.31377  0.43203  0.28355  1.0000
  H   H1255     1.0  0.19423  0.46129  0.27062  1.0000
  H   H1256     1.0  0.19973  0.45603  0.28887  1.0000
  H   H1257     1.0  0.18416  0.48610  0.28064  1.0000
  H   H1258     1.0  0.33084  0.33604  0.30460  1.0000
  C   C735      1.0  0.07590  0.51300  0.25112  1.0000
  S   S176      1.0  0.32967  0.32634  0.26087  1.0000
  C   C736      1.0  0.35687  0.33787  0.34317  1.0000
  H   H1259     1.0  0.28946  0.35806  0.40922  1.0000
  H   H1260     1.0  0.38353  0.41727  0.24781  1.0000
  C   C737      1.0  0.39045  0.42449  0.25552  1.0000
  C   C738      1.0  0.01766  0.63147  0.32667  1.0000
  H   H1261     1.0  0.00281  0.44934  0.25943  1.0000
  C   C739      1.0  0.25375  0.35941  0.43420  1.0000
  C   C740      1.0  0.46839  0.38066  0.24715  1.0000
  H   H1262     1.0  0.29829  0.61241  0.42519  1.0000
  H   H1263     1.0  0.28682  0.32882  0.23341  1.0000
  C   C741      1.0  0.14239  0.62092  0.40945  1.0000
  Fe  Fe82      1.0  0.36431  0.33318  0.26552  1.0000
  H   H1264     1.0  0.41055  0.37984  0.26819  1.0000
  H   H1265     1.0  0.18526  0.58893  0.40346  1.0000
  H   H1266     1.0  0.40302  0.51526  0.40501  1.0000
  H   H1267     1.0  0.23761  0.34517  0.26549  1.0000
  H   H1268     1.0  0.30001  0.37061  0.46940  1.0000
  C   C742      1.0  0.34581  0.35941  0.35120  1.0000
  H   H1269     1.0  0.04367  0.63390  0.30652  1.0000
  C   C743      1.0  0.36051  0.58936  0.42834  1.0000
  H   H1270     1.0  0.23078  0.53910  0.42628  1.0000
  C   C744      1.0  0.22198  0.55017  0.43481  1.0000
  H   H1271     1.0  0.10044  0.52276  0.33868  1.0000
  C   C745      1.0  0.35379  0.54813  0.42683  1.0000
  H   H1272     1.0  0.26864  0.39466  0.45496  1.0000
  H   H1273     1.0  0.24764  0.57177  0.41174  1.0000
  N   N41       1.0  0.10388  0.52753  0.40149  1.0000
  C   C746      1.0  0.08632  0.50945  0.40636  1.0000
  C   C747      1.0  0.11906  0.52509  0.41299  1.0000
  C   C748      1.0  0.08820  0.55334  0.39970  1.0000
  C   C749      1.0  0.12070  0.52449  0.38709  1.0000
  C   C750      1.0  0.13721  0.49864  0.38628  1.0000
  C   C751      1.0  0.06944  0.50995  0.39565  1.0000
  C   C752      1.0  0.10265  0.57496  0.39523  1.0000
  C   C753      1.0  0.12558  0.49905  0.42253  1.0000
  C   C754      1.0  0.14414  0.49873  0.43187  1.0000
  C   C755      1.0  0.15139  0.49750  0.37078  1.0000
  C   C756      1.0  0.05343  0.49015  0.40157  1.0000
  C   C757      1.0  0.08509  0.59978  0.39649  1.0000
  H   H1274     1.0  0.07396  0.51268  0.41688  1.0000
  H   H1275     1.0  0.09656  0.49009  0.40860  1.0000
  H   H1276     1.0  0.13678  0.53175  0.40794  1.0000
  H   H1277     1.0  0.10914  0.53733  0.42091  1.0000
  H   H1278     1.0  0.07451  0.55574  0.40994  1.0000
  H   H1279     1.0  0.07702  0.55648  0.39116  1.0000
  H   H1280     1.0  0.10973  0.52957  0.37832  1.0000
  H   H1281     1.0  0.13375  0.53765  0.38394  1.0000
  H   H1282     1.0  0.12609  0.48384  0.38966  1.0000
  H   H1283     1.0  0.15132  0.49481  0.39321  1.0000
  H   H1284     1.0  0.05644  0.52797  0.39385  1.0000
  H   H1285     1.0  0.08073  0.50626  0.38503  1.0000
  H   H1286     1.0  0.11227  0.57620  0.38371  1.0000
  H   H1287     1.0  0.11671  0.57256  0.40201  1.0000
  H   H1288     1.0  0.10855  0.49391  0.43002  1.0000
  H   H1289     1.0  0.13374  0.48451  0.41596  1.0000
  H   H1290     1.0  0.14844  0.47995  0.43860  1.0000
  H   H1291     1.0  0.16172  0.50332  0.42485  1.0000
  H   H1292     1.0  0.13634  0.51225  0.43921  1.0000
  H   H1293     1.0  0.16308  0.47878  0.37045  1.0000
  H   H1294     1.0  0.13831  0.50122  0.36318  1.0000
  H   H1295     1.0  0.16382  0.51124  0.36711  1.0000
  S   S177      1.0  0.18842  0.65067  0.37274  1.0000
  H   H1296     1.0  0.08333  0.49512  0.25783  1.0000
  C   C758      1.0  0.09714  0.52299  0.32774  1.0000
  H   H1297     1.0  0.07051  0.60305  0.38990  1.0000
  H   H1298     1.0  0.07612  0.60027  0.40800  1.0000
  H   H1299     1.0  0.09575  0.61500  0.39233  1.0000
  H   H1300     1.0  0.01690  0.59971  0.36542  1.0000
  H   H1301     1.0  0.27933  0.53486  0.23603  1.0000
  H   H1302     1.0  0.40535  0.35754  0.40179  1.0000
  H   H1303     1.0  0.37652  0.36247  0.28688  1.0000
  C   C759      1.0  0.32251  0.36282  0.41459  1.0000
  H   H1304     1.0  0.32109  0.38288  0.40993  1.0000
  H   H1305     1.0  0.00720  0.53541  0.23647  1.0000
  H   H1306     1.0  0.22678  0.56687  0.40215  1.0000
  C   C760      1.0  0.20156  0.57171  0.42931  1.0000
  H   H1307     1.0  0.48295  0.33434  0.39006  1.0000
  C   C761      1.0  0.38724  0.51730  0.41431  1.0000
  Fe  Fe83      1.0  0.43563  0.34196  0.34348  1.0000
  C   C762      1.0  0.04443  0.62817  0.31823  1.0000
  C   C763      1.0  0.20596  0.62709  0.25733  1.0000
  H   H1308     1.0  0.27600  0.39775  0.40156  1.0000
  H   H1309     1.0  0.39433  0.50891  0.42455  1.0000
  N   N42       1.0  0.20971  0.59202  0.41696  1.0000
  C   C764      1.0  0.23170  0.58142  0.40635  1.0000
  H   H1310     1.0  0.24818  0.44379  0.41446  1.0000
  H   H1311     1.0  0.16919  0.61708  0.24582  1.0000
  C   C765      1.0  0.21492  0.61251  0.42264  1.0000
  C   C766      1.0  0.23748  0.60601  0.43026  1.0000
  H   H1312     1.0  0.19614  0.52525  0.44564  1.0000
  H   H1313     1.0  0.21041  0.60794  0.26355  1.0000
  H   H1314     1.0  0.09177  0.61946  0.32575  1.0000
  C   C767      1.0  0.30116  0.62224  0.40217  1.0000
  H   H1315     1.0  0.36757  0.60504  0.47454  1.0000
  C   C768      1.0  0.01690  0.42682  0.24325  1.0000
  H   H1316     1.0  0.39082  0.55412  0.41418  1.0000
  H   H1317     1.0  0.49007  0.39753  0.28565  1.0000
  C   C769      1.0  0.49126  0.38275  0.38225  1.0000
  H   H1318     1.0  0.40898  0.59547  0.42778  1.0000
  H   H1319     1.0  0.27393  0.60259  0.37557  1.0000
  H   H1320     1.0  0.07882  0.52836  0.25546  1.0000
  H   H1321     1.0  0.21695  0.62900  0.41376  1.0000
  H   H1322     1.0  0.19875  0.61928  0.43079  1.0000
  H   H1323     1.0  0.25450  0.59689  0.42367  1.0000
  H   H1324     1.0  0.23323  0.59389  0.44102  1.0000
  H   H1325     1.0  0.24674  0.61553  0.39644  1.0000
  H   H1326     1.0  0.03821  0.51647  0.26268  1.0000
  C   C770      1.0  0.16326  0.61349  0.41815  1.0000
  H   H1327     1.0  0.42431  0.42351  0.26208  1.0000
  H   H1328     1.0  0.29794  0.61536  0.25663  1.0000
  H   H1329     1.0  0.46195  0.39321  0.29885  1.0000
  H   H1330     1.0  0.99907  0.51638  0.26077  1.0000
  C   C771      1.0  0.39626  0.59424  0.43852  1.0000
  C   C772      1.0  0.16410  0.61753  0.25761  1.0000
  H   H1331     1.0  0.47216  0.40481  0.35703  1.0000
  H   H1332     1.0  0.23988  0.64092  0.35702  1.0000
  H   H1333     1.0  0.01756  0.40954  0.25162  1.0000
  C   C773      1.0  0.45491  0.38532  0.27305  1.0000
  H   H1334     1.0  0.42065  0.37978  0.24931  1.0000
  H   H1335     1.0  0.39658  0.38118  0.30085  1.0000
  Fe  Fe84      1.0  0.43228  0.36059  0.37119  1.0000
  H   H1336     1.0  0.28953  0.60948  0.40146  1.0000
  C   C774      1.0  0.46651  0.38632  0.40640  1.0000
  C   C775      1.0  0.38897  0.35077  0.29381  1.0000
  C   C776      1.0  0.46259  0.37925  0.42321  1.0000
  C   C777      1.0  0.43592  0.38945  0.43012  1.0000
  H   H1337     1.0  0.45222  0.37972  0.40291  1.0000
  H   H1338     1.0  0.46148  0.40687  0.40364  1.0000
  H   H1339     1.0  0.22790  0.60808  0.38595  1.0000
  C   C778      1.0  0.37585  0.54472  0.41392  1.0000
  C   C779      1.0  0.42053  0.32052  0.31224  1.0000
  H   H1340     1.0  0.46594  0.35886  0.42696  1.0000
  H   H1341     1.0  0.42260  0.38114  0.42690  1.0000
  H   H1342     1.0  0.43362  0.38480  0.44215  1.0000
  H   H1343     1.0  0.43131  0.40992  0.42674  1.0000
  H   H1344     1.0  0.37708  0.33311  0.34326  1.0000
  H   H1345     1.0  0.38649  0.61315  0.44013  1.0000
  H   H1346     1.0  0.08654  0.50829  0.32873  1.0000
  H   H1347     1.0  0.22537  0.51684  0.45155  1.0000
  H   H1348     1.0  0.19297  0.61868  0.40005  1.0000
  H   H1349     1.0  0.35738  0.35415  0.39964  1.0000
  C   C780      1.0  0.26510  0.58807  0.38358  1.0000
  N   N43       1.0  0.01754  0.49565  0.24380  1.0000
  H   H1350     1.0  0.29959  0.33520  0.42376  1.0000
  H   H1351     1.0  0.32474  0.62597  0.41562  1.0000
  C   C781      1.0  0.18843  0.60295  0.40890  1.0000
  C   C782      1.0  0.48313  0.33325  0.40167  1.0000
  Fe  Fe85      1.0  0.37445  0.36790  0.23640  1.0000
  H   H1352     1.0  0.25358  0.44085  0.39574  1.0000
  H   H1353     1.0  0.27427  0.58457  0.45781  1.0000
  H   H1354     1.0  0.29444  0.34333  0.44748  1.0000
  H   H1355     1.0  0.21112  0.62509  0.24573  1.0000
  S   S178      1.0  0.42519  0.39593  0.37958  1.0000
  H   H1356     1.0  0.14367  0.62382  0.26040  1.0000
  H   H1357     1.0  0.20639  0.36085  0.42831  1.0000
  C   C783      1.0  0.35880  0.62267  0.46894  1.0000
  H   H1358     1.0  0.37246  0.59326  0.41741  1.0000
  H   H1359     1.0  0.47010  0.33726  0.26867  1.0000
  H   H1360     1.0  0.29086  0.55581  0.46687  1.0000
  H   H1361     1.0  0.18893  0.56243  0.42605  1.0000
  C   C784      1.0  0.42445  0.38604  0.25851  1.0000
  H   H1362     1.0  0.25956  0.33173  0.42057  1.0000
  H   H1363     1.0  0.33225  0.35815  0.42388  1.0000
  H   H1364     1.0  0.04138  0.49122  0.39375  1.0000
  C   C785      1.0  0.35558  0.52783  0.47534  1.0000
  H   H1365     1.0  0.46780  0.42012  0.37981  1.0000
  H   H1366     1.0  0.15746  0.59986  0.42797  1.0000
  H   H1367     1.0  0.46346  0.37489  0.23810  1.0000
  H   H1368     1.0  0.42775  0.42139  0.24336  1.0000
  N   N44       1.0  0.34173  0.57450  0.42809  1.0000
  C   C786      1.0  0.32960  0.58637  0.41509  1.0000
  C   C787      1.0  0.32296  0.57416  0.44213  1.0000
  C   C788      1.0  0.30044  0.56213  0.44321  1.0000
  C   C789      1.0  0.31336  0.61256  0.41549  1.0000
  H   H1369     1.0  0.13641  0.59558  0.30510  1.0000
  C   C790      1.0  0.28182  0.56472  0.45737  1.0000
  H   H1370     1.0  0.34397  0.58838  0.40500  1.0000
  H   H1371     1.0  0.31817  0.57419  0.41334  1.0000
  H   H1372     1.0  0.31583  0.59320  0.44441  1.0000
  H   H1373     1.0  0.33197  0.56376  0.45147  1.0000
  H   H1374     1.0  0.33997  0.53800  0.42563  1.0000
  H   H1375     1.0  0.30666  0.54207  0.44307  1.0000
  H   H1376     1.0  0.29040  0.57084  0.43414  1.0000
  H   H1377     1.0  0.09466  0.60523  0.26774  1.0000
  H   H1378     1.0  0.23790  0.37395  0.43780  1.0000
  H   H1379     1.0  0.24917  0.64141  0.42249  1.0000
  C   C791      1.0  0.37887  0.53398  0.47364  1.0000
  C   C792      1.0  0.33892  0.34869  0.40297  1.0000
  H   H1380     1.0  0.25943  0.40607  0.43308  1.0000
  H   H1381     1.0  0.34179  0.32842  0.40729  1.0000
  C   C793      1.0  0.27117  0.37417  0.45709  1.0000
  H   H1382     1.0  0.00444  0.48395  0.26689  1.0000
  H   H1383     1.0  0.20275  0.54257  0.45739  1.0000
  H   H1384     1.0  0.30556  0.37168  0.44186  1.0000
  C   C794      1.0  0.28902  0.45531  0.23394  1.0000
  C   C795      1.0  0.47269  0.36867  0.28313  1.0000
  H   H1385     1.0  0.33046  0.35292  0.39316  1.0000
  H   H1386     1.0  0.05361  0.64106  0.32119  1.0000
  H   H1387     1.0  0.19221  0.34491  0.27191  1.0000
  H   H1388     1.0  0.24718  0.36256  0.41197  1.0000
  H   H1389     1.0  0.21671  0.33369  0.24803  1.0000
  H   H1390     1.0  0.34804  0.35368  0.36274  1.0000
  H   H1391     1.0  0.23127  0.37708  0.25657  1.0000
  H   H1392     1.0  0.25397  0.34377  0.44373  1.0000
  C   C796      1.0  0.22385  0.43085  0.46856  1.0000
  H   H1393     1.0  0.12513  0.62998  0.41595  1.0000
  C   C797      1.0  0.20272  0.39592  0.47659  1.0000
  H   H1394     1.0  0.30133  0.54863  0.24067  1.0000
  H   H1395     1.0  0.31376  0.42108  0.24060  1.0000
  H   H1396     1.0  0.21877  0.62208  0.28243  1.0000
  H   H1397     1.0  0.20994  0.36517  0.23970  1.0000
  H   H1398     1.0  0.44578  0.64722  0.45238  1.0000
  H   H1399     1.0  0.28535  0.34384  0.47354  1.0000
  C   C798      1.0  0.99900  0.49870  0.25765  1.0000
  H   H1400     1.0  0.47649  0.37458  0.38037  1.0000
  S   S179      1.0  0.38660  0.32705  0.24374  1.0000
  H   H1401     1.0  0.46181  0.40294  0.26829  1.0000
  C   C799      1.0  0.22427  0.35106  0.24490  1.0000
  C   C800      1.0  0.32874  0.64642  0.45390  1.0000
  H   H1402     1.0  0.43817  0.34318  0.27644  1.0000
  H   H1403     1.0  0.46028  0.33534  0.24493  1.0000
  Fe  Fe86      1.0  0.17138  0.35009  0.47797  1.0000
  H   H1404     1.0  0.13862  0.60429  0.40683  1.0000
  H   H1405     1.0  0.03175  0.46972  0.22919  1.0000
  H   H1406     1.0  0.01721  0.62625  0.33857  1.0000
  H   H1407     1.0  0.00711  0.61991  0.32358  1.0000
  S   S180      1.0  0.43853  0.32238  0.38458  1.0000
  C   C801      1.0  0.31958  0.32141  0.30946  1.0000
  C   C802      1.0  0.47913  0.38360  0.29252  1.0000
  H   H1408     1.0  0.46682  0.40106  0.24374  1.0000
  H   H1409     1.0  0.25049  0.63353  0.24252  1.0000
  H   H1410     1.0  0.23397  0.62994  0.30309  1.0000
  H   H1411     1.0  0.14740  0.63421  0.39922  1.0000
  H   H1412     1.0  0.35425  0.34462  0.33176  1.0000
  H   H1413     1.0  0.13732  0.64029  0.30161  1.0000
  C   C803      1.0  0.17731  0.63530  0.26118  1.0000
  H   H1414     1.0  0.15983  0.62088  0.31204  1.0000
  C   C804      1.0  0.13963  0.62754  0.31210  1.0000
  H   H1415     1.0  0.20025  0.36835  0.27876  1.0000
  H   H1416     1.0  0.21863  0.33059  0.43801  1.0000
  H   H1417     1.0  0.32399  0.32235  0.35194  1.0000
  H   H1418     1.0  0.17106  0.63552  0.27295  1.0000
  N   N45       1.0  0.49214  0.37728  0.39822  1.0000
  C   C805      1.0  0.22039  0.34354  0.42734  1.0000
  H   H1419     1.0  0.30006  0.32936  0.30819  1.0000
  H   H1420     1.0  0.18589  0.37715  0.26300  1.0000
  C   C806      1.0  0.23889  0.65148  0.36519  1.0000
  C   C807      1.0  0.22852  0.64997  0.29858  1.0000
  H   H1421     1.0  0.04222  0.53321  0.24423  1.0000
  H   H1422     1.0  0.25955  0.64790  0.25424  1.0000
  H   H1423     1.0  0.25338  0.64762  0.27824  1.0000
  H   H1424     1.0  0.19724  0.65020  0.28073  1.0000
  C   C808      1.0  0.26930  0.33171  0.24151  1.0000
  C   C809      1.0  0.01154  0.51801  0.23215  1.0000
  H   H1425     1.0  0.00826  0.65115  0.32415  1.0000
  H   H1426     1.0  0.25927  0.38082  0.23649  1.0000
  S   S181      1.0  0.23784  0.45208  0.47271  1.0000
  H   H1427     1.0  0.99905  0.47570  0.23430  1.0000
  N   N46       1.0  0.24857  0.34799  0.23422  1.0000
  S   S182      1.0  0.30590  0.64702  0.44405  1.0000
  C   C810      1.0  0.44668  0.33314  0.25528  1.0000
  H   H1428     1.0  0.24701  0.50171  0.47755  1.0000
  S   S183      1.0  0.43343  0.54072  0.52831  1.0000
  H   H1429     1.0  0.23878  0.52459  0.48902  1.0000
  S   S184      1.0  0.14665  0.36406  0.49742  1.0000
  C   C811      1.0  0.46100  0.57321  0.57425  1.0000
  C   C812      1.0  0.18475  0.32782  0.66723  1.0000
  C   C813      1.0  0.04913  0.32352  0.53992  1.0000
  S   S185      1.0  0.08071  0.35265  0.49977  1.0000
  C   C814      1.0  0.41420  0.47240  0.58989  1.0000
  H   H1430     1.0  0.13893  0.58737  0.66442  1.0000
  Fe  Fe87      1.0  0.23755  0.39735  0.57318  1.0000
  S   S186      1.0  0.27115  0.40181  0.58054  1.0000
  S   S187      1.0  0.23555  0.39967  0.54949  1.0000
  Fe  Fe88      1.0  0.20601  0.39545  0.60338  1.0000
  S   S188      1.0  0.23625  0.39987  0.61347  1.0000
  S   S189      1.0  0.16937  0.38665  0.61642  1.0000
  Fe  Fe89      1.0  0.24480  0.42869  0.59354  1.0000
  S   S190      1.0  0.25171  0.46650  0.59414  1.0000
  Fe  Fe90      1.0  0.26065  0.37264  0.60009  1.0000
  C   C815      1.0  0.47730  0.56225  0.54386  1.0000
  S   S191      1.0  0.21193  0.42680  0.58458  1.0000
  S   S192      1.0  0.22967  0.36577  0.59158  1.0000
  S   S193      1.0  0.08066  0.44396  0.68580  1.0000
  H   H1431     1.0  0.16720  0.33576  0.66297  1.0000
  C   C816      1.0  0.49086  0.55908  0.52824  1.0000
  H   H1432     1.0  0.46113  0.50825  0.70636  1.0000
  Fe  Fe91      1.0  0.06686  0.45509  0.66486  1.0000
  S   S194      1.0  0.09122  0.47052  0.64428  1.0000
  H   H1433     1.0  0.23905  0.46882  0.49933  1.0000
  S   S195      1.0  0.35878  0.52358  0.64277  1.0000
  Fe  Fe92      1.0  0.36190  0.56207  0.60368  1.0000
  S   S196      1.0  0.38180  0.52275  0.60853  1.0000
  H   H1434     1.0  0.31972  0.51010  0.56737  1.0000
  Fe  Fe93      1.0  0.34644  0.51600  0.62393  1.0000
  S   S197      1.0  0.33411  0.47994  0.62537  1.0000
  Fe  Fe94      1.0  0.39242  0.53382  0.62676  1.0000
  S   S198      1.0  0.43271  0.52120  0.62935  1.0000
  S   S199      1.0  0.32556  0.55477  0.61793  1.0000
  S   S200      1.0  0.17911  0.32906  0.53206  1.0000
  C   C817      1.0  0.11296  0.36685  0.53321  1.0000
  H   H1435     1.0  0.46607  0.41881  0.67987  1.0000
  H   H1436     1.0  0.27397  0.43845  0.54370  1.0000
  H   H1437     1.0  0.26998  0.48773  0.55306  1.0000
  H   H1438     1.0  0.38074  0.54751  0.47927  1.0000
  C   C818      1.0  0.35040  0.46391  0.57357  1.0000
  Fe  Fe95      1.0  0.43474  0.56313  0.50549  1.0000
  C   C819      1.0  0.47893  0.52872  0.65380  1.0000
  H   H1439     1.0  0.24524  0.47044  0.55661  1.0000
  C   C820      1.0  0.44380  0.52894  0.64301  1.0000
  C   C821      1.0  0.42764  0.54008  0.65408  1.0000
  C   C822      1.0  0.43716  0.54532  0.66501  1.0000
  C   C823      1.0  0.46280  0.54004  0.66480  1.0000
  H   H1440     1.0  0.16409  0.45790  0.53584  1.0000
  H   H1441     1.0  0.28236  0.39544  0.49297  1.0000
  H   H1442     1.0  0.40784  0.54434  0.65428  1.0000
  H   H1443     1.0  0.42468  0.55339  0.67373  1.0000
  H   H1444     1.0  0.45075  0.63998  0.53829  1.0000
  Fe  Fe96      1.0  0.16825  0.33119  0.51042  1.0000
  C   C824      1.0  0.06237  0.50333  0.71165  1.0000
  C   C825      1.0  0.08670  0.49505  0.70485  1.0000
  C   C826      1.0  0.10583  0.50670  0.70521  1.0000
  H   H1445     1.0  0.47337  0.42329  0.69582  1.0000
  H   H1446     1.0  0.47743  0.56449  0.52075  1.0000
  H   H1447     1.0  0.09083  0.47956  0.69942  1.0000
  H   H1448     1.0  0.12470  0.49998  0.70010  1.0000
  C   C827      1.0  0.27408  0.46987  0.60335  1.0000
  C   C828      1.0  0.29086  0.44947  0.60902  1.0000
  C   C829      1.0  0.30895  0.45289  0.61584  1.0000
  C   C830      1.0  0.31048  0.47669  0.61708  1.0000
  C   C831      1.0  0.29336  0.49708  0.61169  1.0000
  C   C832      1.0  0.27537  0.49367  0.60476  1.0000
  H   H1449     1.0  0.29000  0.43104  0.60809  1.0000
  H   H1450     1.0  0.32195  0.43698  0.62010  1.0000
  H   H1451     1.0  0.29422  0.51547  0.61268  1.0000
  H   H1452     1.0  0.26243  0.50955  0.60043  1.0000
  C   C833      1.0  0.14925  0.41027  0.62464  1.0000
  C   C834      1.0  0.14996  0.43520  0.61874  1.0000
  C   C835      1.0  0.13222  0.45376  0.62490  1.0000
  C   C836      1.0  0.11420  0.44733  0.63713  1.0000
  C   C837      1.0  0.11429  0.42239  0.64336  1.0000
  C   C838      1.0  0.13150  0.40389  0.63698  1.0000
  H   H1453     1.0  0.16372  0.44017  0.60921  1.0000
  H   H1454     1.0  0.13235  0.47304  0.62011  1.0000
  H   H1455     1.0  0.10092  0.41728  0.65299  1.0000
  H   H1456     1.0  0.13107  0.38460  0.64162  1.0000
  H   H1457     1.0  0.35397  0.47307  0.49665  1.0000
  H   H1458     1.0  0.04910  0.35154  0.62557  1.0000
  H   H1459     1.0  0.34369  0.42026  0.56868  1.0000
  S   S201      1.0  0.03075  0.47760  0.67402  1.0000
  C   C839      1.0  0.48929  0.60186  0.54488  1.0000
  C   C840      1.0  0.02977  0.62055  0.71583  1.0000
  H   H1460     1.0  0.27559  0.39171  0.51251  1.0000
  H   H1461     1.0  0.31588  0.43198  0.58081  1.0000
  H   H1462     1.0  0.05857  0.39730  0.60462  1.0000
  H   H1463     1.0  0.14279  0.33175  0.68932  1.0000
  S   S202      1.0  0.37515  0.57390  0.62071  1.0000
  H   H1464     1.0  0.46032  0.59876  0.68826  1.0000
  H   H1465     1.0  0.34486  0.53047  0.54671  1.0000
  H   H1466     1.0  0.08544  0.41276  0.62439  1.0000
  H   H1467     1.0  0.48785  0.45972  0.69472  1.0000
  H   H1468     1.0  0.35430  0.49485  0.50736  1.0000
  H   H1469     1.0  0.09073  0.36223  0.63599  1.0000
  C   C841      1.0  0.31934  0.61455  0.65215  1.0000
  H   H1470     1.0  0.07243  0.55081  0.72444  1.0000
  H   H1471     1.0  0.02958  0.36700  0.49697  1.0000
  C   C842      1.0  0.19563  0.34846  0.53642  1.0000
  C   C843      1.0  0.19893  0.34476  0.55082  1.0000
  C   C844      1.0  0.21138  0.36003  0.55493  1.0000
  C   C845      1.0  0.22062  0.37929  0.54468  1.0000
  C   C846      1.0  0.21752  0.38282  0.53025  1.0000
  C   C847      1.0  0.20506  0.36756  0.52610  1.0000
  C   C848      1.0  0.20644  0.63957  0.70920  1.0000
  H   H1472     1.0  0.21389  0.35677  0.56604  1.0000
  H   H1473     1.0  0.22468  0.39754  0.52228  1.0000
  H   H1474     1.0  0.20274  0.37058  0.51496  1.0000
  C   C849      1.0  0.41259  0.55287  0.54269  1.0000
  C   C850      1.0  0.41386  0.54031  0.55694  1.0000
  C   C851      1.0  0.39853  0.55013  0.56875  1.0000
  C   C852      1.0  0.38172  0.57251  0.56640  1.0000
  H   H1475     1.0  0.21482  0.41258  0.49089  1.0000
  H   H1476     1.0  0.02154  0.42030  0.61574  1.0000
  H   H1477     1.0  0.42704  0.52311  0.55887  1.0000
  H   H1478     1.0  0.40011  0.54059  0.57965  1.0000
  C   C853      1.0  0.07745  0.35878  0.71417  1.0000
  N   N47       1.0  0.13431  0.42095  0.54290  1.0000
  C   C854      1.0  0.11806  0.44521  0.54596  1.0000
  C   C855      1.0  0.15449  0.42629  0.52984  1.0000
  C   C856      1.0  0.11838  0.40665  0.53880  1.0000
  C   C857      1.0  0.14528  0.40542  0.55581  1.0000
  C   C858      1.0  0.15084  0.41941  0.56635  1.0000
  C   C859      1.0  0.09371  0.44303  0.55735  1.0000
  C   C860      1.0  0.13165  0.38122  0.53475  1.0000
  H   H1479     1.0  0.03010  0.33469  0.61018  1.0000
  H   H1480     1.0  0.10220  0.43372  0.71282  1.0000
  C   C861      1.0  0.16381  0.40147  0.57802  1.0000
  C   C862      1.0  0.08331  0.46644  0.56377  1.0000
  Fe  Fe97      1.0  0.15736  0.60829  0.72060  1.0000
  H   H1481     1.0  0.11253  0.45697  0.53576  1.0000
  H   H1482     1.0  0.12842  0.45630  0.54952  1.0000
  H   H1483     1.0  0.16610  0.40881  0.52683  1.0000
  H   H1484     1.0  0.14606  0.43631  0.52019  1.0000
  H   H1485     1.0  0.10958  0.41793  0.52951  1.0000
  H   H1486     1.0  0.10287  0.40257  0.54798  1.0000
  H   H1487     1.0  0.13270  0.39288  0.56269  1.0000
  H   H1488     1.0  0.16284  0.39276  0.55204  1.0000
  H   H1489     1.0  0.13339  0.42953  0.57206  1.0000
  H   H1490     1.0  0.16277  0.43304  0.56065  1.0000
  H   H1491     1.0  0.07934  0.44022  0.55208  1.0000
  H   H1492     1.0  0.09664  0.42704  0.56639  1.0000
  H   H1493     1.0  0.14199  0.36964  0.54324  1.0000
  H   H1494     1.0  0.14484  0.38357  0.52422  1.0000
  H   H1495     1.0  0.42521  0.56511  0.58687  1.0000
  H   H1496     1.0  0.02848  0.37993  0.60423  1.0000
  H   H1497     1.0  0.21734  0.33833  0.63205  1.0000
  H   H1498     1.0  0.02580  0.56172  0.67546  1.0000
  H   H1499     1.0  0.99674  0.35986  0.66395  1.0000
  H   H1500     1.0  0.18310  0.39354  0.57320  1.0000
  H   H1501     1.0  0.16461  0.41157  0.58638  1.0000
  H   H1502     1.0  0.15363  0.38620  0.58348  1.0000
  H   H1503     1.0  0.07979  0.48286  0.55502  1.0000
  H   H1504     1.0  0.06548  0.46453  0.57145  1.0000
  H   H1505     1.0  0.09650  0.46939  0.56982  1.0000
  C   C863      1.0  0.45926  0.48966  0.71307  1.0000
  N   N48       1.0  0.46434  0.45721  0.68052  1.0000
  C   C864      1.0  0.44192  0.47305  0.67469  1.0000
  C   C865      1.0  0.10077  0.52698  0.71213  1.0000
  H   H1506     1.0  0.36527  0.62374  0.68343  1.0000
  C   C866      1.0  0.46061  0.43131  0.68791  1.0000
  C   C867      1.0  0.43386  0.42812  0.69586  1.0000
  C   C868      1.0  0.43524  0.46483  0.66207  1.0000
  H   H1507     1.0  0.04023  0.38001  0.71807  1.0000
  C   C869      1.0  0.39847  0.61757  0.64188  1.0000
  H   H1508     1.0  0.31238  0.49982  0.50325  1.0000
  C   C870      1.0  0.44054  0.57338  0.58789  1.0000
  C   C871      1.0  0.40824  0.47560  0.66053  1.0000
  H   H1509     1.0  0.44477  0.49244  0.67061  1.0000
  H   H1510     1.0  0.42521  0.47451  0.68342  1.0000
  C   C872      1.0  0.41309  0.61465  0.65412  1.0000
  H   H1511     1.0  0.04643  0.34197  0.53263  1.0000
  C   C873      1.0  0.28263  0.42819  0.50062  1.0000
  S   S203      1.0  0.12547  0.54146  0.71150  1.0000
  H   H1512     1.0  0.00706  0.47114  0.63643  1.0000
  H   H1513     1.0  0.24200  0.64570  0.65407  1.0000
  H   H1514     1.0  0.42183  0.43054  0.68785  1.0000
  H   H1515     1.0  0.06516  0.35597  0.66825  1.0000
  H   H1516     1.0  0.44724  0.47161  0.65164  1.0000
  H   H1517     1.0  0.43819  0.44438  0.66361  1.0000
  S   S204      1.0  0.28942  0.34426  0.61111  1.0000
  H   H1518     1.0  0.03600  0.54446  0.69208  1.0000
  S   S205      1.0  0.46363  0.54647  0.48824  1.0000
  H   H1519     1.0  0.38292  0.60733  0.64573  1.0000
  H   H1520     1.0  0.03716  0.38190  0.65124  1.0000
  C   C874      1.0  0.45337  0.60245  0.53448  1.0000
  C   C875      1.0  0.18962  0.44906  0.51684  1.0000
  C   C876      1.0  0.01853  0.37195  0.61502  1.0000
  H   H1521     1.0  0.43980  0.59160  0.53378  1.0000
  H   H1522     1.0  0.03943  0.62646  0.70451  1.0000
  H   H1523     1.0  0.40445  0.49608  0.65921  1.0000
  H   H1524     1.0  0.40467  0.47093  0.65076  1.0000
  H   H1525     1.0  0.39532  0.46785  0.67022  1.0000
  S   S206      1.0  0.02532  0.43019  0.70113  1.0000
  C   C877      1.0  0.18084  0.33782  0.68144  1.0000
  H   H1526     1.0  0.27402  0.50170  0.50136  1.0000
  C   C878      1.0  0.37492  0.61622  0.67347  1.0000
  H   H1527     1.0  0.31483  0.43183  0.56235  1.0000
  C   C879      1.0  0.02549  0.43361  0.63433  1.0000
  C   C880      1.0  0.20134  0.33396  0.64090  1.0000
  H   H1528     1.0  0.06870  0.43180  0.61057  1.0000
  H   H1529     1.0  0.35483  0.55990  0.68825  1.0000
  H   H1530     1.0  0.29069  0.58899  0.69725  1.0000
  C   C881      1.0  0.33218  0.50731  0.57518  1.0000
  H   H1531     1.0  0.46571  0.60460  0.52357  1.0000
  C   C882      1.0  0.33236  0.46065  0.56464  1.0000
  H   H1532     1.0  0.01748  0.53202  0.68383  1.0000
  H   H1533     1.0  0.45054  0.62586  0.66511  1.0000
  H   H1534     1.0  0.48932  0.47461  0.66236  1.0000
  H   H1535     1.0  0.09577  0.34051  0.66091  1.0000
  H   H1536     1.0  0.29712  0.61598  0.67354  1.0000
  H   H1537     1.0  0.21594  0.50797  0.48779  1.0000
  C   C883      1.0  0.00189  0.63135  0.71763  1.0000
  H   H1538     1.0  0.21998  0.62926  0.65168  1.0000
  N   N49       1.0  0.04439  0.38971  0.62780  1.0000
  H   H1539     1.0  0.02150  0.36198  0.63762  1.0000
  C   C884      1.0  0.05981  0.33554  0.49754  1.0000
  Fe  Fe98      1.0  0.01602  0.44242  0.67872  1.0000
  H   H1540     1.0  0.31643  0.45642  0.49961  1.0000
  H   H1541     1.0  0.44198  0.38783  0.69843  1.0000
  H   H1542     1.0  0.34347  0.58895  0.69443  1.0000
  H   H1543     1.0  0.48969  0.51994  0.53164  1.0000
  C   C885      1.0  0.03393  0.36786  0.62711  1.0000
  C   C886      1.0  0.41510  0.61739  0.67871  1.0000
  H   H1544     1.0  0.43287  0.48408  0.70213  1.0000
  H   H1545     1.0  0.18576  0.42894  0.53878  1.0000
  C   C887      1.0  0.43388  0.40222  0.70520  1.0000
  H   H1546     1.0  0.19794  0.33354  0.68598  1.0000
  H   H1547     1.0  0.48274  0.61716  0.55112  1.0000
  H   H1548     1.0  0.34116  0.46278  0.55297  1.0000
  N   N50       1.0  0.46830  0.58864  0.54609  1.0000
  C   C888      1.0  0.02374  0.41239  0.62720  1.0000
  S   S207      1.0  0.12761  0.61030  0.70842  1.0000
  H   H1549     1.0  0.48181  0.44764  0.65947  1.0000
  N   N51       1.0  0.10075  0.53502  0.65948  1.0000
  C   C889      1.0  0.11890  0.55161  0.65808  1.0000
  C   C890      1.0  0.09298  0.53795  0.64507  1.0000
  C   C891      1.0  0.07785  0.54335  0.67029  1.0000
  C   C892      1.0  0.11104  0.50822  0.66512  1.0000
  C   C893      1.0  0.13559  0.49627  0.65616  1.0000
  C   C894      1.0  0.12757  0.55155  0.67221  1.0000
  C   C895      1.0  0.05585  0.52990  0.67260  1.0000
  C   C896      1.0  0.11263  0.54319  0.63099  1.0000
  C   C897      1.0  0.10430  0.53970  0.61777  1.0000
  C   C898      1.0  0.14499  0.46998  0.66388  1.0000
  C   C899      1.0  0.14677  0.56803  0.66919  1.0000
  C   C900      1.0  0.03241  0.54293  0.68153  1.0000
  H   H1550     1.0  0.11055  0.57111  0.65375  1.0000
  H   H1551     1.0  0.13600  0.54691  0.65002  1.0000
  H   H1552     1.0  0.08601  0.52132  0.64477  1.0000
  H   H1553     1.0  0.07692  0.55365  0.64381  1.0000
  H   H1554     1.0  0.07091  0.56364  0.66709  1.0000
  H   H1555     1.0  0.08221  0.54045  0.68129  1.0000
  H   H1556     1.0  0.11370  0.50571  0.67640  1.0000
  H   H1557     1.0  0.09737  0.49650  0.66583  1.0000
  H   H1558     1.0  0.15045  0.50697  0.65447  1.0000
  H   H1559     1.0  0.13253  0.49469  0.64552  1.0000
  H   H1560     1.0  0.11186  0.55894  0.68036  1.0000
  H   H1561     1.0  0.13623  0.53262  0.67708  1.0000
  H   H1562     1.0  0.06055  0.51069  0.67868  1.0000
  H   H1563     1.0  0.05120  0.52908  0.66221  1.0000
  H   H1564     1.0  0.11518  0.56266  0.62903  1.0000
  H   H1565     1.0  0.13099  0.53103  0.63160  1.0000
  H   H1566     1.0  0.11833  0.54420  0.60782  1.0000
  H   H1567     1.0  0.10249  0.52015  0.61902  1.0000
  H   H1568     1.0  0.08617  0.55207  0.61640  1.0000
  H   H1569     1.0  0.13121  0.45809  0.66523  1.0000
  H   H1570     1.0  0.16262  0.46187  0.65724  1.0000
  H   H1571     1.0  0.14854  0.47011  0.67470  1.0000
  H   H1572     1.0  0.15201  0.56816  0.67957  1.0000
  H   H1573     1.0  0.16373  0.56092  0.66166  1.0000
  N   N52       1.0  0.28044  0.46405  0.51346  1.0000
  H   H1574     1.0  0.47575  0.58127  0.57613  1.0000
  C   C901      1.0  0.21371  0.41322  0.47977  1.0000
  H   H1575     1.0  0.27259  0.45729  0.56430  1.0000
  S   S208      1.0  0.05133  0.42103  0.66792  1.0000
  C   C902      1.0  0.00627  0.45691  0.63046  1.0000
  C   C903      1.0  0.38031  0.58501  0.55211  1.0000
  H   H1576     1.0  0.24829  0.47365  0.52984  1.0000
  C   C904      1.0  0.26866  0.47311  0.52747  1.0000
  C   C905      1.0  0.37034  0.51588  0.52920  1.0000
  H   H1577     1.0  0.38469  0.52650  0.52897  1.0000
  Fe  Fe99      1.0  0.04329  0.46368  0.69543  1.0000
  S   S209      1.0  0.36245  0.58524  0.58108  1.0000
  H   H1578     1.0  0.34907  0.54062  0.56747  1.0000
  H   H1579     1.0  0.34214  0.61907  0.63076  1.0000
  C   C906      1.0  0.08140  0.35757  0.65919  1.0000
  Fe  Fe100     1.0  0.06207  0.41150  0.68976  1.0000
  H   H1580     1.0  0.09965  0.36313  0.54360  1.0000
  H   H1581     1.0  0.36731  0.60235  0.55022  1.0000
  C   C907      1.0  0.01732  0.33394  0.49649  1.0000
  H   H1582     1.0  0.27660  0.54372  0.68964  1.0000
  H   H1583     1.0  0.48975  0.55146  0.55144  1.0000
  H   H1584     1.0  0.44231  0.62269  0.69815  1.0000
  H   H1585     1.0  0.29856  0.45558  0.54004  1.0000
  C   C908      1.0  0.06549  0.39285  0.61498  1.0000
  H   H1586     1.0  0.25316  0.44048  0.51801  1.0000
  C   C909      1.0  0.17328  0.44093  0.53148  1.0000
  H   H1587     1.0  0.31646  0.44436  0.51828  1.0000
  C   C910      1.0  0.31054  0.55171  0.57687  1.0000
  H   H1588     1.0  0.36204  0.48458  0.59330  1.0000
  H   H1589     1.0  0.47728  0.48015  0.71637  1.0000
  C   C911      1.0  0.27824  0.45731  0.54127  1.0000
  H   H1590     1.0  0.40493  0.47071  0.60151  1.0000
  H   H1591     1.0  0.28209  0.47917  0.49039  1.0000
  H   H1592     1.0  0.13954  0.38383  0.71728  1.0000
  H   H1593     1.0  0.42268  0.62755  0.54559  1.0000
  C   C912      1.0  0.27108  0.48311  0.50109  1.0000
  H   H1594     1.0  0.27627  0.44137  0.49118  1.0000
  H   H1595     1.0  0.00559  0.40713  0.63300  1.0000
  S   S210      1.0  0.03796  0.48909  0.71132  1.0000
  H   H1596     1.0  0.36179  0.62343  0.66578  1.0000
  H   H1597     1.0  0.41946  0.49088  0.58591  1.0000
  H   H1598     1.0  0.08932  0.37356  0.65950  1.0000
  C   C913      1.0  0.35224  0.58034  0.68477  1.0000
  C   C914      1.0  0.23058  0.63139  0.65951  1.0000
  H   H1599     1.0  0.33941  0.50227  0.54393  1.0000
  C   C915      1.0  0.35407  0.51185  0.54435  1.0000
  H   H1600     1.0  0.31323  0.56967  0.57838  1.0000
  H   H1601     1.0  0.02151  0.42774  0.64632  1.0000
  H   H1602     1.0  0.43374  0.58237  0.56042  1.0000
  H   H1603     1.0  0.24613  0.59415  0.69600  1.0000
  C   C916      1.0  0.10753  0.41470  0.71907  1.0000
  S   S211      1.0  0.31657  0.58389  0.65283  1.0000
  H   H1604     1.0  0.31445  0.47394  0.56605  1.0000
  H   H1605     1.0  0.32152  0.49925  0.58574  1.0000
  C   C917      1.0  0.37735  0.58769  0.67778  1.0000
  C   C918      1.0  0.07382  0.36072  0.64454  1.0000
  H   H1606     1.0  0.30404  0.55484  0.56646  1.0000
  H   H1607     1.0  0.35874  0.52668  0.52113  1.0000
  N   N53       1.0  0.39899  0.62538  0.66729  1.0000
  C   C919      1.0  0.36987  0.49727  0.55596  1.0000
  Fe  Fe101     1.0  0.41495  0.60713  0.48369  1.0000
  C   C920      1.0  0.47079  0.47023  0.69070  1.0000
  H   H1608     1.0  0.17839  0.46283  0.50944  1.0000
  C   C921      1.0  0.33328  0.62755  0.64008  1.0000
  H   H1609     1.0  0.37969  0.49789  0.52595  1.0000
  H   H1610     1.0  0.27066  0.49256  0.52646  1.0000
  H   H1611     1.0  0.43143  0.45802  0.58906  1.0000
  C   C922      1.0  0.39567  0.57518  0.54025  1.0000
  Fe  Fe102     1.0  0.34063  0.56319  0.63547  1.0000
  C   C923      1.0  0.03510  0.34738  0.49691  1.0000
  H   H1612     1.0  0.07897  0.37504  0.61456  1.0000
  H   H1613     1.0  0.44960  0.45612  0.71196  1.0000
  C   C924      1.0  0.27261  0.40477  0.50220  1.0000
  H   H1614     1.0  0.38495  0.57896  0.66811  1.0000
  C   C925      1.0  0.37247  0.48824  0.58187  1.0000
  C   C926      1.0  0.05318  0.38402  0.64206  1.0000
  C   C927      1.0  0.31888  0.48336  0.51125  1.0000
  C   C928      1.0  0.30840  0.46071  0.51065  1.0000
  H   H1615     1.0  0.48201  0.51437  0.63450  1.0000
  H   H1616     1.0  0.40723  0.46984  0.56940  1.0000
  H   H1617     1.0  0.00289  0.33861  0.62440  1.0000
  S   S212      1.0  0.40342  0.57051  0.49349  1.0000
  H   H1618     1.0  0.00436  0.34318  0.52345  1.0000
  Fe  Fe103     1.0  0.12249  0.33816  0.49650  1.0000
  H   H1619     1.0  0.38205  0.48083  0.55184  1.0000
  H   H1620     1.0  0.24147  0.32559  0.67447  1.0000
  H   H1621     1.0  0.38283  0.50940  0.55586  1.0000
  H   H1622     1.0  0.28936  0.55903  0.70901  1.0000
  S   S213      1.0  0.19381  0.61592  0.70639  1.0000
  C   C929      1.0  0.30768  0.62596  0.66410  1.0000
  H   H1623     1.0  0.28170  0.42525  0.52322  1.0000
  N   N54       1.0  0.20700  0.33324  0.65557  1.0000
  C   C930      1.0  0.43865  0.62876  0.53633  1.0000
  H   H1624     1.0  0.21930  0.59363  0.68196  1.0000
  H   H1625     1.0  0.17980  0.64607  0.72857  1.0000
  H   H1626     1.0  0.22035  0.58564  0.66523  1.0000
  H   H1627     1.0  0.20413  0.45766  0.51857  1.0000
  H   H1628     1.0  0.34130  0.53176  0.58692  1.0000
  H   H1629     1.0  0.42963  0.62325  0.64904  1.0000
  H   H1630     1.0  0.15940  0.39942  0.69224  1.0000
  H   H1631     1.0  0.41452  0.40016  0.71043  1.0000
  H   H1632     1.0  0.11703  0.39324  0.60614  1.0000
  H   H1633     1.0  0.34270  0.45760  0.58532  1.0000
  C   C931      1.0  0.39702  0.46871  0.58081  1.0000
  H   H1634     1.0  0.42497  0.44170  0.70298  1.0000
  C   C932      1.0  0.26666  0.56261  0.68553  1.0000
  C   C933      1.0  0.21347  0.35784  0.65510  1.0000
  H   H1635     1.0  0.25251  0.40971  0.50181  1.0000
  H   H1636     1.0  0.39083  0.63729  0.63789  1.0000
  H   H1637     1.0  0.10021  0.41080  0.59194  1.0000
  C   C934      1.0  0.22756  0.64648  0.69949  1.0000
  C   C935      1.0  0.19370  0.38106  0.65072  1.0000
  C   C936      1.0  0.09509  0.33969  0.72013  1.0000
  H   H1638     1.0  0.35502  0.46268  0.51582  1.0000
  H   H1639     1.0  0.29616  0.54493  0.58602  1.0000
  H   H1640     1.0  0.43283  0.59257  0.58975  1.0000
  C   C937      1.0  0.19736  0.40395  0.65508  1.0000
  C   C938      1.0  0.45084  0.58878  0.56063  1.0000
  H   H1641     1.0  0.23112  0.36001  0.64715  1.0000
  H   H1642     1.0  0.21742  0.35876  0.66564  1.0000
  H   H1643     1.0  0.09623  0.40349  0.71628  1.0000
  C   C939      1.0  0.24763  0.60693  0.66436  1.0000
  H   H1644     1.0  0.42077  0.59463  0.65727  1.0000
  C   C940      1.0  0.23584  0.50643  0.48799  1.0000
  H   H1645     1.0  0.13612  0.42744  0.69133  1.0000
  C   C941      1.0  0.08008  0.41333  0.61400  1.0000
  H   H1646     1.0  0.17473  0.35825  0.67937  1.0000
  C   C942      1.0  0.07648  0.53525  0.71902  1.0000
  H   H1647     1.0  0.19547  0.38527  0.63874  1.0000
  H   H1648     1.0  0.17449  0.37814  0.65558  1.0000
  H   H1649     1.0  0.28130  0.57203  0.67803  1.0000
  H   H1650     1.0  0.33966  0.58609  0.67685  1.0000
  H   H1651     1.0  0.04401  0.43871  0.63123  1.0000
  H   H1652     1.0  0.44447  0.60793  0.56280  1.0000
  H   H1653     1.0  0.41498  0.63220  0.52078  1.0000
  H   H1654     1.0  0.01011  0.46454  0.61861  1.0000
  C   C943      1.0  0.45127  0.47422  0.70462  1.0000
  H   H1655     1.0  0.23120  0.49146  0.51080  1.0000
  C   C944      1.0  0.27833  0.57760  0.70537  1.0000
  H   H1656     1.0  0.17109  0.32963  0.62269  1.0000
  H   H1657     1.0  0.18358  0.42022  0.65111  1.0000
  H   H1658     1.0  0.19459  0.40140  0.66709  1.0000
  H   H1659     1.0  0.21630  0.40769  0.65009  1.0000
  H   H1660     1.0  0.14810  0.41319  0.71562  1.0000
  C   C945      1.0  0.25691  0.57530  0.69892  1.0000
  C   C946      1.0  0.34727  0.47803  0.50758  1.0000
  N   N55       1.0  0.24725  0.56126  0.67750  1.0000
  C   C947      1.0  0.22968  0.54559  0.68765  1.0000
  H   H1661     1.0  0.42190  0.58700  0.63194  1.0000
  C   C948      1.0  0.33511  0.53314  0.57659  1.0000
  C   C949      1.0  0.26010  0.55031  0.66421  1.0000
  C   C950      1.0  0.27469  0.52324  0.66706  1.0000
  C   C951      1.0  0.21072  0.53880  0.68068  1.0000
  H   H1662     1.0  0.46138  0.55251  0.54663  1.0000
  C   C952      1.0  0.10412  0.41072  0.60269  1.0000
  H   H1663     1.0  0.00406  0.39368  0.67383  1.0000
  C   C953      1.0  0.28518  0.51375  0.65283  1.0000
  C   C954      1.0  0.19284  0.52453  0.69219  1.0000
  H   H1664     1.0  0.21853  0.55537  0.69653  1.0000
  H   H1665     1.0  0.24015  0.52811  0.69325  1.0000
  H   H1666     1.0  0.06730  0.34370  0.64462  1.0000
  H   H1667     1.0  0.25865  0.61056  0.67142  1.0000
  Fe  Fe104     1.0  0.12211  0.57366  0.72251  1.0000
  C   C955      1.0  0.45358  0.61906  0.68749  1.0000
  H   H1668     1.0  0.24662  0.55140  0.65721  1.0000
  H   H1669     1.0  0.27382  0.56145  0.65725  1.0000
  H   H1670     1.0  0.26274  0.51051  0.67423  1.0000
  H   H1671     1.0  0.29070  0.52212  0.67217  1.0000
  H   H1672     1.0  0.19941  0.55569  0.67524  1.0000
  H   H1673     1.0  0.22025  0.52700  0.67254  1.0000
  H   H1674     1.0  0.40491  0.61091  0.61994  1.0000
  H   H1675     1.0  0.31319  0.48817  0.52221  1.0000
  C   C956      1.0  0.23240  0.58663  0.67259  1.0000
  H   H1676     1.0  0.24479  0.56444  0.70758  1.0000
  C   C957      1.0  0.13974  0.40746  0.69634  1.0000
  C   C958      1.0  0.46942  0.52308  0.64300  1.0000
  H   H1677     1.0  0.19895  0.43301  0.51155  1.0000
  H   H1678     1.0  0.27002  0.51373  0.64730  1.0000
  H   H1679     1.0  0.29801  0.52545  0.64542  1.0000
  H   H1680     1.0  0.29584  0.49450  0.65507  1.0000
  H   H1681     1.0  0.18216  0.53594  0.70037  1.0000
  H   H1682     1.0  0.17938  0.51992  0.68700  1.0000
  H   H1683     1.0  0.20315  0.50702  0.69779  1.0000
  H   H1684     1.0  0.06043  0.39961  0.64344  1.0000
  H   H1685     1.0  0.39464  0.58499  0.52925  1.0000
  N   N56       1.0  0.35608  0.48946  0.57127  1.0000
  C   C959      1.0  0.26571  0.46903  0.55455  1.0000
  S   S214      1.0  0.08539  0.37403  0.69614  1.0000
  C   C960      1.0  0.32640  0.43460  0.56943  1.0000
  H   H1686     1.0  0.42234  0.59703  0.68027  1.0000
  H   H1687     1.0  0.40401  0.62054  0.68953  1.0000
  H   H1688     1.0  0.39309  0.44975  0.58509  1.0000
  S   S215      1.0  0.44384  0.60123  0.49746  1.0000
  H   H1689     1.0  0.37795  0.50640  0.58035  1.0000
  H   H1690     1.0  0.36769  0.45027  0.57084  1.0000
  H   H1691     1.0  0.26047  0.60152  0.65451  1.0000
  C   C961      1.0  0.27361  0.43939  0.51455  1.0000
  H   H1692     1.0  0.30322  0.42318  0.49823  1.0000
  H   H1693     1.0  0.33974  0.53655  0.48241  1.0000
  H   H1694     1.0  0.00485  0.35416  0.53909  1.0000
  C   C962      1.0  0.24319  0.48620  0.50070  1.0000
  H   H1695     1.0  0.11315  0.33439  0.71361  1.0000
  H   H1696     1.0  0.38960  0.57974  0.68586  1.0000
  H   H1697     1.0  0.12303  0.34877  0.53033  1.0000
  S   S216      1.0  0.47397  0.54834  0.67824  1.0000
  H   H1698     1.0  0.11351  0.42639  0.60164  1.0000
  H   H1699     1.0  0.18531  0.34904  0.63872  1.0000
  C   C963      1.0  0.99686  0.34121  0.53529  1.0000
  H   H1700     1.0  0.19548  0.38195  0.48524  1.0000
  C   C964      1.0  0.48602  0.45567  0.66785  1.0000
  C   C965      1.0  0.01273  0.34758  0.61379  1.0000
  H   H1701     1.0  0.21736  0.63778  0.66902  1.0000
  C   C966      1.0  0.05735  0.52329  0.71887  1.0000
  H   H1702     1.0  0.46828  0.55359  0.57328  1.0000
  Fe  Fe105     1.0  0.47051  0.58513  0.47926  1.0000
  H   H1703     1.0  0.44477  0.39920  0.71390  1.0000
  H   H1704     1.0  0.12765  0.39791  0.69293  1.0000
  H   H1705     1.0  0.05650  0.41547  0.72499  1.0000
  C   C967      1.0  0.43827  0.62949  0.67550  1.0000
  H   H1706     1.0  0.10258  0.37724  0.52446  1.0000
  H   H1707     1.0  0.44823  0.56229  0.59755  1.0000
  H   H1708     1.0  0.15803  0.33482  0.70307  1.0000
  C   C968      1.0  0.31019  0.65005  0.66408  1.0000
  H   H1709     1.0  0.00050  0.35125  0.60572  1.0000
  H   H1710     1.0  0.27075  0.58683  0.71488  1.0000
  H   H1711     1.0  0.26891  0.37164  0.48005  1.0000
  H   H1712     1.0  0.44511  0.49216  0.72305  1.0000
  H   H1713     1.0  0.47503  0.48868  0.68477  1.0000
  H   H1714     1.0  0.00046  0.38467  0.61756  1.0000
  C   C969      1.0  0.19597  0.65135  0.72102  1.0000
  C   C970      1.0  0.41536  0.60732  0.62888  1.0000
  C   C971      1.0  0.16074  0.32701  0.69316  1.0000
  H   H1715     1.0  0.03855  0.52971  0.72422  1.0000
  H   H1716     1.0  0.00569  0.32862  0.56177  1.0000
  H   H1717     1.0  0.47002  0.62798  0.68498  1.0000
  H   H1718     1.0  0.04508  0.32609  0.55133  1.0000
  H   H1719     1.0  0.99832  0.34325  0.49621  1.0000
  C   C972      1.0  0.05407  0.36551  0.72267  1.0000
  H   H1720     1.0  0.03283  0.59999  0.71836  1.0000
  H   H1721     1.0  0.99455  0.62392  0.71020  1.0000
  C   C973      1.0  0.42787  0.64251  0.52284  1.0000
  H   H1722     1.0  0.03816  0.62665  0.72337  1.0000
  H   H1723     1.0  0.19185  0.32994  0.55887  1.0000
  C   C974      1.0  0.13500  0.40401  0.71289  1.0000
  H   H1724     1.0  0.08827  0.32409  0.53736  1.0000
  H   H1725     1.0  0.43169  0.61648  0.62475  1.0000
  H   H1726     1.0  0.44293  0.64492  0.51315  1.0000
  S   S217      1.0  0.38872  0.64380  0.47929  1.0000
  H   H1727     1.0  0.23569  0.63762  0.69027  1.0000
  H   H1728     1.0  0.12671  0.45425  0.71883  1.0000
  H   H1729     1.0  0.43283  0.64981  0.67487  1.0000
  C   C975      1.0  0.33574  0.65168  0.64004  1.0000
  Fe  Fe106     1.0  0.10144  0.62754  0.72636  1.0000
  C   C976      1.0  0.05471  0.41535  0.73669  1.0000
  H   H1730     1.0  0.25546  0.38636  0.83595  1.0000
  C   C977      1.0  0.05013  0.61052  0.77866  1.0000
  Fe  Fe107     1.0  0.16225  0.37447  0.86819  1.0000
  S   S218      1.0  0.19057  0.36447  0.84879  1.0000
  S   S219      1.0  0.14519  0.41238  0.87362  1.0000
  Fe  Fe108     1.0  0.16528  0.33984  0.84769  1.0000
  S   S220      1.0  0.15324  0.34266  0.82647  1.0000
  H   H1731     1.0  0.25173  0.36595  0.90927  1.0000
  C   C978      1.0  0.08727  0.33673  0.84352  1.0000
  S   S221      1.0  0.13579  0.35220  0.86605  1.0000
  S   S222      1.0  0.18028  0.34398  0.88410  1.0000
  C   C979      1.0  0.37104  0.47238  0.96476  1.0000
  H   H1732     1.0  0.38695  0.54166  0.96227  1.0000
  H   H1733     1.0  0.01466  0.42007  0.73988  1.0000
  C   C980      1.0  0.13055  0.63230  0.93732  1.0000
  S   S223      1.0  0.45917  0.58763  0.94283  1.0000
  H   H1734     1.0  0.35057  0.47872  0.96733  1.0000
  Fe  Fe109     1.0  0.15913  0.58174  0.86623  1.0000
  S   S224      1.0  0.18132  0.60970  0.85214  1.0000
  S   S225      1.0  0.12409  0.59326  0.88209  1.0000
  Fe  Fe110     1.0  0.19392  0.53812  0.85431  1.0000
  S   S226      1.0  0.21890  0.56308  0.83969  1.0000
  S   S227      1.0  0.20817  0.49788  0.85212  1.0000
  Fe  Fe111     1.0  0.21405  0.58142  0.85865  1.0000
  S   S228      1.0  0.24862  0.58900  0.86365  1.0000
  Fe  Fe112     1.0  0.18400  0.58888  0.83452  1.0000
  S   S229      1.0  0.18388  0.60850  0.81112  1.0000
  S   S230      1.0  0.19181  0.55436  0.87377  1.0000
  S   S231      1.0  0.15908  0.56298  0.84802  1.0000
  S   S232      1.0  0.36589  0.62250  0.91195  1.0000
  H   H1735     1.0  0.47842  0.63195  0.93061  1.0000
  H   H1736     1.0  0.08429  0.62066  0.76618  1.0000
  C   C981      1.0  0.20807  0.39069  0.90337  1.0000
  C   C982      1.0  0.33349  0.64626  0.96834  1.0000
  C   C983      1.0  0.14163  0.63281  0.88521  1.0000
  C   C984      1.0  0.04848  0.35321  0.73717  1.0000
  H   H1737     1.0  0.05622  0.39602  0.74273  1.0000
  H   H1738     1.0  0.31486  0.64631  0.96638  1.0000
  C   C985      1.0  0.08959  0.32753  0.73459  1.0000
  C   C986      1.0  0.48984  0.64597  0.92445  1.0000
  S   S233      1.0  0.47427  0.41499  0.96412  1.0000
  H   H1739     1.0  0.15882  0.62565  0.87855  1.0000
  C   C987      1.0  0.06629  0.33426  0.74315  1.0000
  C   C988      1.0  0.08705  0.62348  0.94715  1.0000
  S   S234      1.0  0.09300  0.59092  0.73957  1.0000
  H   H1740     1.0  0.02572  0.44866  0.73610  1.0000
  S   S235      1.0  0.12204  0.57651  0.77404  1.0000
  H   H1741     1.0  0.18239  0.43019  0.81433  1.0000
  H   H1742     1.0  0.31434  0.32560  0.90928  1.0000
  C   C989      1.0  0.38419  0.49450  0.96013  1.0000
  H   H1743     1.0  0.25866  0.61779  0.83606  1.0000
  H   H1744     1.0  0.05114  0.43356  0.92623  1.0000
  C   C990      1.0  0.07206  0.39568  0.93047  1.0000
  H   H1745     1.0  0.13547  0.33862  0.80189  1.0000
  H   H1746     1.0  0.08074  0.63229  0.93673  1.0000
  H   H1747     1.0  0.05409  0.35268  0.93371  1.0000
  H   H1748     1.0  0.12554  0.51996  0.84723  1.0000
  H   H1749     1.0  0.15074  0.44210  0.82257  1.0000
  H   H1750     1.0  0.07605  0.60896  0.95290  1.0000
  H   H1751     1.0  0.40445  0.48694  0.95797  1.0000
  H   H1752     1.0  0.37885  0.56888  0.92515  1.0000
  S   S236      1.0  0.47115  0.35687  0.94975  1.0000
  H   H1753     1.0  0.15617  0.45455  0.73432  1.0000
  H   H1754     1.0  0.22642  0.58488  0.95601  1.0000
  C   C991      1.0  0.12177  0.62034  0.88873  1.0000
  C   C992      1.0  0.09981  0.62939  0.89785  1.0000
  H   H1755     1.0  0.08441  0.61976  0.90069  1.0000
  C   C993      1.0  0.24812  0.61099  0.87405  1.0000
  C   C994      1.0  0.22621  0.62707  0.87866  1.0000
  S   S237      1.0  0.41071  0.33578  0.95116  1.0000
  H   H1756     1.0  0.17803  0.41887  0.89548  1.0000
  C   C995      1.0  0.27099  0.63095  0.88503  1.0000
  C   C996      1.0  0.27049  0.61303  0.87725  1.0000
  H   H1757     1.0  0.20892  0.62557  0.87628  1.0000
  C   C997      1.0  0.14652  0.34322  0.92168  1.0000
  H   H1758     1.0  0.28833  0.63232  0.88747  1.0000
  H   H1759     1.0  0.28754  0.60069  0.87368  1.0000
  C   C998      1.0  0.16597  0.60032  0.80092  1.0000
  C   C999      1.0  0.14640  0.58791  0.80773  1.0000
  C   C1000     1.0  0.13263  0.58130  0.79935  1.0000
  C   C1001     1.0  0.13847  0.58687  0.78412  1.0000
  C   C1002     1.0  0.15765  0.59979  0.77729  1.0000
  C   C1003     1.0  0.17126  0.60662  0.78568  1.0000
  H   H1760     1.0  0.14178  0.58356  0.81945  1.0000
  H   H1761     1.0  0.11755  0.57164  0.80469  1.0000
  H   H1762     1.0  0.44990  0.57912  0.91688  1.0000
  C   C1004     1.0  0.43320  0.59894  0.93431  1.0000
  C   C1005     1.0  0.41216  0.61512  0.94009  1.0000
  C   C1006     1.0  0.39164  0.62359  0.93300  1.0000
  C   C1007     1.0  0.39191  0.61527  0.92039  1.0000
  C   C1008     1.0  0.41304  0.59925  0.91467  1.0000
  C   C1009     1.0  0.43370  0.59149  0.92143  1.0000
  H   H1763     1.0  0.41173  0.62112  0.95001  1.0000
  C   C1010     1.0  0.16934  0.64558  0.92454  1.0000
  H   H1764     1.0  0.23812  0.63940  0.80763  1.0000
  H   H1765     1.0  0.27356  0.35950  0.84546  1.0000
  H   H1766     1.0  0.18629  0.61637  0.78033  1.0000
  S   S238      1.0  0.40820  0.57406  0.97445  1.0000
  H   H1767     1.0  0.16984  0.40247  0.91381  1.0000
  C   C1011     1.0  0.16257  0.43625  0.86737  1.0000
  C   C1012     1.0  0.18715  0.43168  0.85995  1.0000
  C   C1013     1.0  0.20089  0.45076  0.85548  1.0000
  C   C1014     1.0  0.19010  0.47462  0.85823  1.0000
  C   C1015     1.0  0.16543  0.47932  0.86551  1.0000
  C   C1016     1.0  0.15174  0.46013  0.87012  1.0000
  H   H1768     1.0  0.19552  0.41344  0.85763  1.0000
  H   H1769     1.0  0.21988  0.44716  0.84970  1.0000
  H   H1770     1.0  0.15696  0.49766  0.86767  1.0000
  H   H1771     1.0  0.13272  0.46380  0.87587  1.0000
  H   H1772     1.0  0.41339  0.59275  0.90493  1.0000
  H   H1773     1.0  0.11139  0.43001  0.75098  1.0000
  Fe  Fe113     1.0  0.15627  0.32079  0.88032  1.0000
  C   C1017     1.0  0.06137  0.37358  0.88996  1.0000
  H   H1774     1.0  0.09918  0.52755  0.83838  1.0000
  C   C1018     1.0  0.34629  0.57433  0.97012  1.0000
  C   C1019     1.0  0.25944  0.36089  0.89840  1.0000
  H   H1775     1.0  0.12717  0.64431  0.94546  1.0000
  H   H1776     1.0  0.03915  0.36540  0.91873  1.0000
  H   H1777     1.0  0.19712  0.57536  0.96413  1.0000
  H   H1778     1.0  0.10345  0.63388  0.79478  1.0000
  H   H1779     1.0  0.21862  0.36774  0.88708  1.0000
  N   N57       1.0  0.15806  0.62323  0.93243  1.0000
  H   H1780     1.0  0.34218  0.57292  0.94894  1.0000
  C   C1020     1.0  0.16112  0.60566  0.92222  1.0000
  H   H1781     1.0  0.46071  0.49921  0.93994  1.0000
  C   C1021     1.0  0.16878  0.61006  0.94577  1.0000
  C   C1022     1.0  0.19736  0.60153  0.94345  1.0000
  C   C1023     1.0  0.46490  0.46083  0.97118  1.0000
  C   C1024     1.0  0.11471  0.61199  0.94435  1.0000
  C   C1025     1.0  0.18491  0.60401  0.91022  1.0000
  C   C1026     1.0  0.18792  0.58225  0.90278  1.0000
  H   H1782     1.0  0.20718  0.61692  0.93774  1.0000
  C   C1027     1.0  0.09590  0.38393  0.75993  1.0000
  C   C1028     1.0  0.37105  0.55626  0.90176  1.0000
  H   H1783     1.0  0.13777  0.48478  0.72921  1.0000
  H   H1784     1.0  0.15994  0.58659  0.92848  1.0000
  H   H1785     1.0  0.14549  0.61106  0.91614  1.0000
  H   H1786     1.0  0.05206  0.37851  0.86875  1.0000
  C   C1029     1.0  0.14026  0.32008  0.80802  1.0000
  H   H1787     1.0  0.09985  0.33928  0.83276  1.0000
  H   H1788     1.0  0.16099  0.59306  0.95087  1.0000
  N   N58       1.0  0.10134  0.41461  0.73518  1.0000
  H   H1789     1.0  0.20323  0.58635  0.93720  1.0000
  H   H1790     1.0  0.27635  0.63197  0.82009  1.0000
  S   S239      1.0  0.15382  0.57041  0.73363  1.0000
  H   H1791     1.0  0.17300  0.38755  0.89874  1.0000
  H   H1792     1.0  0.11732  0.59837  0.93729  1.0000
  H   H1793     1.0  0.18346  0.62118  0.90179  1.0000
  H   H1794     1.0  0.20206  0.60195  0.91440  1.0000
  H   H1795     1.0  0.19046  0.56443  0.91064  1.0000
  H   H1796     1.0  0.17136  0.58394  0.89802  1.0000
  H   H1797     1.0  0.20458  0.58209  0.89392  1.0000
  C   C1030     1.0  0.25706  0.63268  0.82627  1.0000
  H   H1798     1.0  0.16291  0.62169  0.95425  1.0000
  H   H1799     1.0  0.16386  0.35067  0.91729  1.0000
  C   C1031     1.0  0.05695  0.32643  0.92036  1.0000
  H   H1800     1.0  0.38736  0.56825  0.94822  1.0000
  H   H1801     1.0  0.11979  0.54908  0.83464  1.0000
  H   H1802     1.0  0.29694  0.34508  0.88744  1.0000
  C   C1032     1.0  0.13707  0.46583  0.73572  1.0000
  H   H1803     1.0  0.38070  0.32008  0.93614  1.0000
  S   S240      1.0  0.13176  0.62813  0.73767  1.0000
  H   H1804     1.0  0.34773  0.63998  0.95921  1.0000
  C   C1033     1.0  0.11792  0.42794  0.73944  1.0000
  H   H1805     1.0  0.29285  0.63052  0.84180  1.0000
  C   C1034     1.0  0.26638  0.37970  0.84478  1.0000
  Fe  Fe114     1.0  0.43981  0.33843  0.96315  1.0000
  Fe  Fe115     1.0  0.12547  0.59028  0.74970  1.0000
  C   C1035     1.0  0.20593  0.59131  0.95799  1.0000
  H   H1806     1.0  0.07032  0.43033  0.75050  1.0000
  H   H1807     1.0  0.46449  0.53063  0.93125  1.0000
  C   C1036     1.0  0.07477  0.42776  0.73902  1.0000
  H   H1808     1.0  0.08901  0.38647  0.93498  1.0000
  H   H1809     1.0  0.02532  0.42871  0.75384  1.0000
  H   H1810     1.0  0.25408  0.51513  0.80366  1.0000
  C   C1037     1.0  0.24230  0.62467  0.81707  1.0000
  Fe  Fe116     1.0  0.20655  0.33181  0.86465  1.0000
  C   C1038     1.0  0.12563  0.35946  0.91411  1.0000
  C   C1039     1.0  0.28972  0.65099  0.83812  1.0000
  H   H1811     1.0  0.20119  0.60592  0.96463  1.0000
  H   H1812     1.0  0.12474  0.35207  0.76575  1.0000
  H   H1813     1.0  0.09634  0.37661  0.73877  1.0000
  H   H1814     1.0  0.10107  0.46680  0.73183  1.0000
  H   H1815     1.0  0.14157  0.34289  0.93356  1.0000
  H   H1816     1.0  0.24328  0.51476  0.82295  1.0000
  H   H1817     1.0  0.03039  0.35840  0.74375  1.0000
  H   H1818     1.0  0.08261  0.61277  0.78564  1.0000
  C   C1040     1.0  0.10123  0.34922  0.91997  1.0000
  H   H1819     1.0  0.46900  0.51865  0.94964  1.0000
  H   H1820     1.0  0.42501  0.64336  0.89913  1.0000
  H   H1821     1.0  0.07572  0.35175  0.87295  1.0000
  C   C1041     1.0  0.10417  0.35695  0.76704  1.0000
  H   H1822     1.0  0.08890  0.40039  0.90748  1.0000
  Fe  Fe117     1.0  0.44788  0.57766  0.96713  1.0000
  C   C1042     1.0  0.06918  0.32046  0.84362  1.0000
  C   C1043     1.0  0.10521  0.38805  0.74321  1.0000
  H   H1823     1.0  0.09709  0.34679  0.93203  1.0000
  N   N59       1.0  0.25114  0.38185  0.88651  1.0000
  H   H1824     1.0  0.16242  0.60393  0.76555  1.0000
  C   C1044     1.0  0.26377  0.37452  0.87202  1.0000
  C   C1045     1.0  0.07224  0.62289  0.77689  1.0000
  C   C1046     1.0  0.25880  0.40487  0.88790  1.0000
  C   C1047     1.0  0.24787  0.42966  0.87864  1.0000
  C   C1048     1.0  0.05647  0.35325  0.92187  1.0000
  C   C1049     1.0  0.18057  0.40043  0.90278  1.0000
  C   C1050     1.0  0.24973  0.38489  0.85914  1.0000
  H   H1825     1.0  0.47501  0.64010  0.89281  1.0000
  C   C1051     1.0  0.25506  0.45161  0.88218  1.0000
  H   H1826     1.0  0.05430  0.39345  0.89039  1.0000
  H   H1827     1.0  0.12241  0.64413  0.92798  1.0000
  H   H1828     1.0  0.12336  0.37852  0.91595  1.0000
  H   H1829     1.0  0.21587  0.39964  0.87990  1.0000
  H   H1830     1.0  0.28261  0.37926  0.86851  1.0000
  H   H1831     1.0  0.18951  0.64027  0.92027  1.0000
  H   H1832     1.0  0.09158  0.34371  0.89601  1.0000
  H   H1833     1.0  0.37951  0.50424  0.96941  1.0000
  H   H1834     1.0  0.25431  0.40709  0.89944  1.0000
  H   H1835     1.0  0.27934  0.40303  0.88484  1.0000
  H   H1836     1.0  0.22729  0.43317  0.88064  1.0000
  H   H1837     1.0  0.25539  0.42979  0.86694  1.0000
  H   H1838     1.0  0.25197  0.34423  0.89856  1.0000
  H   H1839     1.0  0.04596  0.36341  0.89494  1.0000
  H   H1840     1.0  0.19911  0.53135  0.75851  1.0000
  H   H1841     1.0  0.29663  0.36803  0.89761  1.0000
  H   H1842     1.0  0.23351  0.37585  0.86098  1.0000
  H   H1843     1.0  0.24279  0.40504  0.85782  1.0000
  H   H1844     1.0  0.24527  0.59533  0.80549  1.0000
  H   H1845     1.0  0.15023  0.32399  0.91975  1.0000
  H   H1846     1.0  0.15646  0.64806  0.75566  1.0000
  H   H1847     1.0  0.27558  0.44971  0.88004  1.0000
  H   H1848     1.0  0.24723  0.46904  0.87523  1.0000
  H   H1849     1.0  0.24742  0.45308  0.89373  1.0000
  H   H1850     1.0  0.05588  0.38888  0.93800  1.0000
  C   C1052     1.0  0.25692  0.60153  0.81122  1.0000
  H   H1851     1.0  0.28226  0.38946  0.84201  1.0000
  H   H1852     1.0  0.07531  0.38846  0.76262  1.0000
  H   H1853     1.0  0.06004  0.32475  0.90883  1.0000
  C   C1053     1.0  0.02855  0.42911  0.74198  1.0000
  N   N60       1.0  0.38614  0.53537  0.94104  1.0000
  C   C1054     1.0  0.37905  0.55130  0.95246  1.0000
  C   C1055     1.0  0.41412  0.52999  0.93606  1.0000
  C   C1056     1.0  0.37459  0.54994  0.92817  1.0000
  C   C1057     1.0  0.37622  0.51167  0.94629  1.0000
  H   H1854     1.0  0.12396  0.63808  0.81385  1.0000
  C   C1058     1.0  0.45073  0.48075  0.97767  1.0000
  C   C1059     1.0  0.38230  0.53858  0.91423  1.0000
  C   C1060     1.0  0.43037  0.52803  0.94738  1.0000
  C   C1061     1.0  0.45780  0.51850  0.94162  1.0000
  H   H1855     1.0  0.09860  0.32835  0.85207  1.0000
  H   H1856     1.0  0.09875  0.37354  0.89159  1.0000
  H   H1857     1.0  0.24697  0.54348  0.81051  1.0000
  H   H1858     1.0  0.03865  0.62007  0.77035  1.0000
  H   H1859     1.0  0.10562  0.33009  0.91777  1.0000
  H   H1860     1.0  0.42010  0.51274  0.93149  1.0000
  H   H1861     1.0  0.42008  0.54497  0.92701  1.0000
  H   H1862     1.0  0.48325  0.46220  0.96487  1.0000
  H   H1863     1.0  0.35397  0.55258  0.93100  1.0000
  H   H1864     1.0  0.35557  0.51567  0.94807  1.0000
  H   H1865     1.0  0.38228  0.50018  0.93774  1.0000
  H   H1866     1.0  0.08303  0.38251  0.86813  1.0000
  C   C1062     1.0  0.08863  0.65080  0.79545  1.0000
  H   H1867     1.0  0.37542  0.63598  0.93743  1.0000
  H   H1868     1.0  0.47095  0.62487  0.74024  1.0000
  H   H1869     1.0  0.37554  0.52101  0.91616  1.0000
  H   H1870     1.0  0.40274  0.53481  0.91049  1.0000
  H   H1871     1.0  0.42887  0.54661  0.94975  1.0000
  H   H1872     1.0  0.42456  0.51570  0.95775  1.0000
  H   H1873     1.0  0.45819  0.49722  0.97617  1.0000
  H   H1874     1.0  0.35044  0.56036  0.90476  1.0000
  C   C1063     1.0  0.47083  0.64293  0.90422  1.0000
  H   H1875     1.0  0.26209  0.58626  0.82025  1.0000
  H   H1876     1.0  0.34120  0.54418  0.96198  1.0000
  H   H1877     1.0  0.08451  0.43102  0.92319  1.0000
  C   C1064     1.0  0.28797  0.35248  0.89748  1.0000
  H   H1878     1.0  0.13713  0.41680  0.73898  1.0000
  H   H1879     1.0  0.09270  0.64051  0.82448  1.0000
  H   H1880     1.0  0.10330  0.39551  0.76501  1.0000
  H   H1881     1.0  0.05707  0.59095  0.77734  1.0000
  H   H1882     1.0  0.13169  0.35976  0.90229  1.0000
  H   H1883     1.0  0.17275  0.42479  0.83381  1.0000
  H   H1884     1.0  0.35537  0.59072  0.96640  1.0000
  C   C1065     1.0  0.11956  0.45439  0.73055  1.0000
  H   H1885     1.0  0.11960  0.60193  0.95497  1.0000
  H   H1886     1.0  0.08334  0.63764  0.95400  1.0000
  C   C1066     1.0  0.35083  0.56011  0.95782  1.0000
  H   H1887     1.0  0.37640  0.54769  0.89196  1.0000
  H   H1888     1.0  0.22075  0.63927  0.84815  1.0000
  H   H1889     1.0  0.27405  0.60556  0.80341  1.0000
  H   H1890     1.0  0.01673  0.33056  0.92315  1.0000
  H   H1891     1.0  0.06672  0.42640  0.94144  1.0000
  C   C1067     1.0  0.29390  0.33199  0.91041  1.0000
  C   C1068     1.0  0.06859  0.37141  0.87397  1.0000
  H   H1892     1.0  0.09603  0.35403  0.77884  1.0000
  C   C1069     1.0  0.08392  0.36302  0.89772  1.0000
  H   H1893     1.0  0.26709  0.35404  0.87307  1.0000
  H   H1894     1.0  0.21470  0.40487  0.90682  1.0000
  H   H1895     1.0  0.37702  0.46014  0.97464  1.0000
  H   H1896     1.0  0.28672  0.33890  0.92076  1.0000
  H   H1897     1.0  0.37797  0.57393  0.89900  1.0000
  N   N61       1.0  0.07895  0.36408  0.91365  1.0000
  H   H1898     1.0  0.22455  0.62007  0.82384  1.0000
  H   H1899     1.0  0.07684  0.35530  0.84541  1.0000
  H   H1900     1.0  0.05661  0.40104  0.91139  1.0000
  C   C1070     1.0  0.24913  0.64721  0.88952  1.0000
  H   H1901     1.0  0.13032  0.46731  0.74733  1.0000
  H   H1902     1.0  0.12533  0.37952  0.74135  1.0000
  C   C1071     1.0  0.07424  0.39088  0.91499  1.0000
  H   H1903     1.0  0.20950  0.37354  0.91184  1.0000
  H   H1904     1.0  0.07191  0.44681  0.73234  1.0000
  C   C1072     1.0  0.22330  0.38494  0.88849  1.0000
  H   H1905     1.0  0.46541  0.62544  0.91078  1.0000
  H   H1906     1.0  0.05939  0.32949  0.83448  1.0000
  C   C1073     1.0  0.22674  0.64519  0.88631  1.0000
  H   H1907     1.0  0.04284  0.32606  0.80413  1.0000
  H   H1908     1.0  0.09788  0.34434  0.76209  1.0000
  N   N62       1.0  0.17966  0.50713  0.80995  1.0000
  C   C1074     1.0  0.17566  0.48175  0.80994  1.0000
  C   C1075     1.0  0.17454  0.52406  0.79588  1.0000
  C   C1076     1.0  0.20606  0.50502  0.81157  1.0000
  C   C1077     1.0  0.16238  0.51786  0.82243  1.0000
  C   C1078     1.0  0.13453  0.51682  0.82438  1.0000
  C   C1079     1.0  0.17812  0.46233  0.82414  1.0000
  C   C1080     1.0  0.21450  0.52990  0.80987  1.0000
  C   C1081     1.0  0.19240  0.51742  0.78183  1.0000
  C   C1082     1.0  0.18631  0.53662  0.76843  1.0000
  C   C1083     1.0  0.11889  0.52913  0.83693  1.0000
  C   C1084     1.0  0.17054  0.43845  0.82360  1.0000
  C   C1085     1.0  0.24138  0.52542  0.81186  1.0000
  H   H1909     1.0  0.18945  0.47356  0.80120  1.0000
  H   H1910     1.0  0.15722  0.48302  0.80723  1.0000
  H   H1911     1.0  0.15545  0.52449  0.79444  1.0000
  H   H1912     1.0  0.17473  0.54352  0.79616  1.0000
  H   H1913     1.0  0.21937  0.49412  0.80382  1.0000
  H   H1914     1.0  0.20887  0.49425  0.82251  1.0000
  H   H1915     1.0  0.16849  0.50874  0.83292  1.0000
  H   H1916     1.0  0.16332  0.53765  0.82118  1.0000
  H   H1917     1.0  0.13170  0.49743  0.82691  1.0000
  H   H1918     1.0  0.12711  0.52647  0.81443  1.0000
  H   H1919     1.0  0.19771  0.45750  0.82565  1.0000
  H   H1920     1.0  0.16630  0.46918  0.83385  1.0000
  H   H1921     1.0  0.20274  0.54062  0.81811  1.0000
  H   H1922     1.0  0.21348  0.54153  0.79894  1.0000
  H   H1923     1.0  0.21202  0.51673  0.78222  1.0000
  H   H1924     1.0  0.19071  0.49925  0.78014  1.0000
  H   H1925     1.0  0.16696  0.53769  0.76723  1.0000
  H   H1926     1.0  0.18855  0.55515  0.76926  1.0000
  C   C1086     1.0  0.45560  0.43924  0.97284  1.0000
  Fe  Fe118     1.0  0.46722  0.37563  0.96846  1.0000
  C   C1087     1.0  0.06838  0.42337  0.93026  1.0000
  H   H1927     1.0  0.37580  0.46135  0.95604  1.0000
  N   N63       1.0  0.49366  0.64678  0.90828  1.0000
  C   C1088     1.0  0.01770  0.64961  0.97376  1.0000
  H   H1928     1.0  0.32604  0.58088  0.97358  1.0000
  H   H1929     1.0  0.03839  0.61066  0.78965  1.0000
  H   H1930     1.0  0.04688  0.65244  0.78609  1.0000
  H   H1931     1.0  0.07221  0.64389  0.80277  1.0000
  C   C1089     1.0  0.09769  0.65086  0.90332  1.0000
  H   H1932     1.0  0.11364  0.63879  0.76923  1.0000
  H   H1933     1.0  0.04695  0.64052  0.74573  1.0000
  H   H1934     1.0  0.05527  0.32049  0.85389  1.0000
  C   C1090     1.0  0.06398  0.65078  0.77753  1.0000
  H   H1935     1.0  0.32306  0.65254  0.84516  1.0000
  C   C1091     1.0  0.10658  0.65117  0.81721  1.0000
  H   H1936     1.0  0.33683  0.63289  0.97849  1.0000
  C   C1092     1.0  0.48912  0.62704  0.73303  1.0000
  S   S241      1.0  0.19732  0.81226  0.03042  1.0000
  H   H1937     1.0  0.13738  0.76774  0.18962  1.0000
  C   C1093     1.0  0.08943  0.74372  0.07759  1.0000
  C   C1094     1.0  0.15211  0.95749  0.98167  1.0000
  S   S242      1.0  0.31134  0.74387  0.16586  1.0000
  C   C1095     1.0  0.34291  0.71559  0.00297  1.0000
  H   H1938     1.0  0.19452  0.93826  0.01022  1.0000
  C   C1096     1.0  0.15998  0.97583  0.98618  1.0000
  H   H1939     1.0  0.26220  0.97269  0.19075  1.0000
  H   H1940     1.0  0.36211  0.72879  0.20480  1.0000
  S   S243      1.0  0.16567  0.94023  0.16759  1.0000
  C   C1097     1.0  0.40184  0.65393  0.99096  1.0000
  Fe  Fe119     1.0  0.09450  0.95695  0.17932  1.0000
  S   S244      1.0  0.11595  0.91856  0.18598  1.0000
  H   H1941     1.0  0.17054  0.97533  0.19141  1.0000
  Fe  Fe120     1.0  0.14310  0.93845  0.19008  1.0000
  S   S245      1.0  0.16107  0.92857  0.20981  1.0000
  Fe  Fe121     1.0  0.13656  0.92392  0.16278  1.0000
  S   S246      1.0  0.15014  0.89656  0.14749  1.0000
  H   H1942     1.0  0.03899  0.73212  0.15898  1.0000
  S   S247      1.0  0.11319  0.96106  0.15574  1.0000
  Fe  Fe122     1.0  0.11891  0.77431  0.10624  1.0000
  S   S248      1.0  0.08747  0.77313  0.12553  1.0000
  S   S249      1.0  0.11056  0.79913  0.08526  1.0000
  Fe  Fe123     1.0  0.15596  0.73969  0.12337  1.0000
  S   S250      1.0  0.12786  0.73589  0.14411  1.0000
  S   S251      1.0  0.19587  0.72005  0.12206  1.0000
  Fe  Fe124     1.0  0.10263  0.73225  0.13015  1.0000
  S   S252      1.0  0.07973  0.70203  0.13862  1.0000
  Fe  Fe125     1.0  0.11528  0.77705  0.13770  1.0000
  S   S253      1.0  0.10318  0.80207  0.15430  1.0000
  S   S254      1.0  0.13182  0.73303  0.10975  1.0000
  S   S255      1.0  0.14561  0.78109  0.11808  1.0000
  S   S256      1.0  0.24085  0.74129  0.17069  1.0000
  C   C1098     1.0  0.06284  0.69722  0.12668  1.0000
  C   C1099     1.0  0.14149  0.90496  0.09295  1.0000
  H   H1943     1.0  0.43692  0.72441  0.18501  1.0000
  H   H1944     1.0  0.35351  0.68177  0.10112  1.0000
  C   C1100     1.0  0.15240  0.66718  0.13795  1.0000
  H   H1945     1.0  0.29200  0.89380  0.20401  1.0000
  H   H1946     1.0  0.43917  0.94859  0.20339  1.0000
  C   C1101     1.0  0.20955  0.72778  0.13449  1.0000
  H   H1947     1.0  0.39822  0.67264  0.17395  1.0000
  S   S257      1.0  0.40846  0.76898  0.22642  1.0000
  C   C1102     1.0  0.23006  0.73710  0.15601  1.0000
  C   C1103     1.0  0.20551  0.74791  0.15464  1.0000
  C   C1104     1.0  0.19524  0.74329  0.14394  1.0000
  H   H1948     1.0  0.22286  0.79347  0.16729  1.0000
  H   H1949     1.0  0.09574  0.72349  0.08115  1.0000
  H   H1950     1.0  0.19420  0.75946  0.16210  1.0000
  H   H1951     1.0  0.17609  0.75136  0.14320  1.0000
  C   C1105     1.0  0.17397  0.95384  0.22705  1.0000
  H   H1952     1.0  0.46674  0.69087  0.17640  1.0000
  C   C1106     1.0  0.17478  0.92540  0.99775  1.0000
  H   H1953     1.0  0.18163  0.75503  0.98256  1.0000
  H   H1954     1.0  0.00211  0.95157  0.22405  1.0000
  C   C1107     1.0  0.13661  0.87059  0.14950  1.0000
  C   C1108     1.0  0.11584  0.86626  0.16027  1.0000
  C   C1109     1.0  0.10572  0.84523  0.16157  1.0000
  C   C1110     1.0  0.11629  0.82839  0.15216  1.0000
  C   C1111     1.0  0.13732  0.83254  0.14156  1.0000
  C   C1112     1.0  0.14736  0.85361  0.14021  1.0000
  H   H1955     1.0  0.10750  0.87916  0.16753  1.0000
  H   H1956     1.0  0.08956  0.84202  0.16987  1.0000
  H   H1957     1.0  0.14596  0.81940  0.13451  1.0000
  H   H1958     1.0  0.16367  0.85664  0.13203  1.0000
  H   H1959     1.0  0.12107  0.90648  0.09517  1.0000
  C   C1113     1.0  0.34218  0.69962  0.99207  1.0000
  C   C1114     1.0  0.36235  0.66511  0.10827  1.0000
  Fe  Fe126     1.0  0.18543  0.82514  0.00855  1.0000
  H   H1960     1.0  0.24567  0.70588  0.12802  1.0000
  C   C1115     1.0  0.21714  0.80301  0.17673  1.0000
  N   N64       1.0  0.31869  0.70499  0.98597  1.0000
  H   H1961     1.0  0.12212  0.87421  0.06383  1.0000
  C   C1116     1.0  0.42746  0.66631  0.00377  1.0000
  C   C1117     1.0  0.36896  0.71140  0.00622  1.0000
  C   C1118     1.0  0.40558  0.72458  0.16508  1.0000
  H   H1962     1.0  0.48374  0.90899  0.19340  1.0000
  C   C1119     1.0  0.29360  0.86657  0.22429  1.0000
  H   H1963     1.0  0.26392  0.71431  0.14707  1.0000
  C   C1120     1.0  0.43688  0.79371  0.17692  1.0000
  H   H1964     1.0  0.26387  0.68950  0.03118  1.0000
  S   S258      1.0  0.14651  0.84333  0.00580  1.0000
  H   H1965     1.0  0.00800  0.90304  0.18463  1.0000
  C   C1121     1.0  0.28860  0.69301  0.01013  1.0000
  H   H1966     1.0  0.16741  0.91945  0.10080  1.0000
  H   H1967     1.0  0.13272  0.67100  0.13668  1.0000
  C   C1122     1.0  0.36290  0.74561  0.20797  1.0000
  H   H1968     1.0  0.04775  0.70081  0.00193  1.0000
  H   H1969     1.0  0.34602  0.68001  0.99792  1.0000
  C   C1123     1.0  0.17346  0.80960  0.04592  1.0000
  C   C1124     1.0  0.14944  0.82338  0.04559  1.0000
  C   C1125     1.0  0.13045  0.82035  0.05785  1.0000
  C   C1126     1.0  0.13525  0.80330  0.07047  1.0000
  C   C1127     1.0  0.15937  0.78987  0.07098  1.0000
  C   C1128     1.0  0.17851  0.79329  0.05879  1.0000
  H   H1970     1.0  0.14547  0.83650  0.03592  1.0000
  H   H1971     1.0  0.11186  0.83099  0.05746  1.0000
  H   H1972     1.0  0.16323  0.77675  0.08073  1.0000
  H   H1973     1.0  0.19715  0.78285  0.05921  1.0000
  N   N65       1.0  0.47784  0.78982  0.18598  1.0000
  H   H1974     1.0  0.38820  0.67658  0.08058  1.0000
  S   S259      1.0  0.11987  0.97624  0.18527  1.0000
  H   H1975     1.0  0.44296  0.68837  0.03028  1.0000
  H   H1976     1.0  0.20621  0.72508  0.03553  1.0000
  C   C1129     1.0  0.40565  0.74809  0.15338  1.0000
  H   H1977     1.0  0.48650  0.97985  0.16658  1.0000
  H   H1978     1.0  0.41319  0.69220  0.12532  1.0000
  Fe  Fe127     1.0  0.14058  0.97694  0.16239  1.0000
  H   H1979     1.0  0.37486  0.69177  0.01133  1.0000
  H   H1980     1.0  0.24476  0.82759  0.17024  1.0000
  H   H1981     1.0  0.25934  0.92856  0.19824  1.0000
  C   C1130     1.0  0.14322  0.78329  0.18105  1.0000
  H   H1982     1.0  0.21324  0.88114  0.19890  1.0000
  S   S260      1.0  0.18884  0.79698  0.99494  1.0000
  H   H1983     1.0  0.37542  0.66182  0.20737  1.0000
  H   H1984     1.0  0.47229  0.70570  0.19822  1.0000
  C   C1131     1.0  0.23983  0.81179  0.17887  1.0000
  Fe  Fe128     1.0  0.33555  0.70687  0.16352  1.0000
  H   H1985     1.0  0.33330  0.86710  0.21804  1.0000
  H   H1986     1.0  0.42198  0.75631  0.15274  1.0000
  H   H1987     1.0  0.26151  0.67256  0.20026  1.0000
  H   H1988     1.0  0.23588  0.81742  0.18957  1.0000
  C   C1132     1.0  0.16523  0.79077  0.18440  1.0000
  H   H1989     1.0  0.18012  0.77402  0.18548  1.0000
  H   H1990     1.0  0.42608  0.69890  0.15165  1.0000
  H   H1991     1.0  0.20218  0.75340  0.04216  1.0000
  H   H1992     1.0  0.10930  0.74304  0.02450  1.0000
  H   H1993     1.0  0.30929  0.66712  0.13583  1.0000
  C   C1133     1.0  0.45138  0.93011  0.20429  1.0000
  H   H1994     1.0  0.32177  0.85282  0.20676  1.0000
  C   C1134     1.0  0.43502  0.68363  0.99145  1.0000
  C   C1135     1.0  0.15351  0.66461  0.15393  1.0000
  C   C1136     1.0  0.32025  0.85523  0.21805  1.0000
  H   H1995     1.0  0.14780  0.91375  0.08151  1.0000
  C   C1137     1.0  0.17013  0.95413  0.21317  1.0000
  H   H1996     1.0  0.18975  0.67414  0.14810  1.0000
  N   N66       1.0  0.43359  0.68166  0.17318  1.0000
  C   C1138     1.0  0.01843  0.73768  0.16042  1.0000
  H   H1997     1.0  0.30514  0.68287  0.01487  1.0000
  C   C1139     1.0  0.17334  0.97490  0.20218  1.0000
  S   S261      1.0  0.48743  0.83230  0.21953  1.0000
  Fe  Fe129     1.0  0.15107  0.81696  0.99077  1.0000
  H   H1998     1.0  0.25312  0.89635  0.19240  1.0000
  C   C1140     1.0  0.17600  0.75424  0.02856  1.0000
  H   H1999     1.0  0.16442  0.90151  0.04678  1.0000
  H   H2000     1.0  0.00881  0.89588  0.21116  1.0000
  C   C1141     1.0  0.48267  0.75678  0.20987  1.0000
  H   H2001     1.0  0.45247  0.68692  0.21156  1.0000
  H   H2002     1.0  0.01822  0.73113  0.13953  1.0000
  H   H2003     1.0  0.22303  0.89951  0.21681  1.0000
  C   C1142     1.0  0.04068  0.97974  0.20116  1.0000
  H   H2004     1.0  0.46900  0.84459  0.98736  1.0000
  C   C1143     1.0  0.42888  0.70435  0.16145  1.0000
  H   H2005     1.0  0.25915  0.77477  0.18727  1.0000
  H   H2006     1.0  0.26914  0.66528  0.15644  1.0000
  H   H2007     1.0  0.48616  0.79432  0.20593  1.0000
  H   H2008     1.0  0.13839  0.75024  0.01545  1.0000
  H   H2009     1.0  0.01034  0.73193  0.17208  1.0000
  H   H2010     1.0  0.47749  0.87370  0.02066  1.0000
  H   H2011     1.0  0.48363  0.74157  0.20430  1.0000
  H   H2012     1.0  0.25411  0.88041  0.00908  1.0000
  S   S262      1.0  0.45588  0.70141  0.99269  1.0000
  H   H2013     1.0  0.15971  0.70857  0.02839  1.0000
  H   H2014     1.0  0.29718  0.90450  0.21859  1.0000
  H   H2015     1.0  0.48688  0.68096  0.03293  1.0000
  H   H2016     1.0  0.27921  0.71938  0.99110  1.0000
  H   H2017     1.0  0.43919  0.65940  0.04270  1.0000
  H   H2018     1.0  0.99649  0.72955  0.12394  1.0000
  H   H2019     1.0  0.25896  0.88646  0.98245  1.0000
  N   N67       1.0  0.12945  0.75244  0.03826  1.0000
  H   H2020     1.0  0.44505  0.69267  0.08794  1.0000
  H   H2021     1.0  0.15805  0.87427  0.04276  1.0000
  H   H2022     1.0  0.37279  0.67202  0.11442  1.0000
  H   H2023     1.0  0.13291  0.78707  0.02323  1.0000
  H   H2024     1.0  0.11902  0.70613  0.01273  1.0000
  N   N68       1.0  0.19426  0.82281  0.17512  1.0000
  C   C1144     1.0  0.18537  0.83305  0.18893  1.0000
  C   C1145     1.0  0.19984  0.84376  0.16264  1.0000
  C   C1146     1.0  0.17471  0.81158  0.17215  1.0000
  C   C1147     1.0  0.15954  0.85058  0.19034  1.0000
  C   C1148     1.0  0.21343  0.83628  0.14787  1.0000
  C   C1149     1.0  0.15341  0.86075  0.20437  1.0000
  C   C1150     1.0  0.21832  0.85905  0.13623  1.0000
  H   H2025     1.0  0.19875  0.84377  0.19000  1.0000
  H   H2026     1.0  0.18508  0.81781  0.19864  1.0000
  H   H2027     1.0  0.21078  0.85533  0.16542  1.0000
  H   H2028     1.0  0.18234  0.85665  0.16060  1.0000
  H   H2029     1.0  0.15844  0.82618  0.16955  1.0000
  H   H2030     1.0  0.18184  0.80335  0.16224  1.0000
  H   H2031     1.0  0.15899  0.79665  0.19505  1.0000
  H   H2032     1.0  0.15901  0.86659  0.18112  1.0000
  H   H2033     1.0  0.14460  0.84069  0.19066  1.0000
  H   H2034     1.0  0.20213  0.82662  0.14394  1.0000
  H   H2035     1.0  0.23173  0.82397  0.14874  1.0000
  H   H2036     1.0  0.14826  0.77727  0.17040  1.0000
  H   H2037     1.0  0.15436  0.84543  0.21398  1.0000
  H   H2038     1.0  0.16650  0.87284  0.20404  1.0000
  H   H2039     1.0  0.13429  0.87196  0.20567  1.0000
  H   H2040     1.0  0.23038  0.86894  0.13942  1.0000
  H   H2041     1.0  0.22785  0.85324  0.12577  1.0000
  H   H2042     1.0  0.20061  0.87197  0.13456  1.0000
  N   N69       1.0  0.14853  0.85980  0.08888  1.0000
  C   C1151     1.0  0.12111  0.85922  0.09307  1.0000
  C   C1152     1.0  0.15645  0.86550  0.07250  1.0000
  C   C1153     1.0  0.16239  0.83421  0.09441  1.0000
  C   C1154     1.0  0.15537  0.87776  0.09588  1.0000
  C   C1155     1.0  0.11052  0.85251  0.10958  1.0000
  C   C1156     1.0  0.19105  0.82906  0.08913  1.0000
  C   C1157     1.0  0.13752  0.88349  0.06363  1.0000
  Fe  Fe130     1.0  0.30972  0.68104  0.19207  1.0000
  C   C1158     1.0  0.08270  0.85261  0.11239  1.0000
  C   C1159     1.0  0.20261  0.80270  0.09571  1.0000
  H   H2043     1.0  0.11694  0.84575  0.08769  1.0000
  H   H2044     1.0  0.10968  0.87718  0.08894  1.0000
  H   H2045     1.0  0.17415  0.87259  0.06942  1.0000
  H   H2046     1.0  0.16060  0.84818  0.06803  1.0000
  H   H2047     1.0  0.15505  0.81995  0.09135  1.0000
  H   H2048     1.0  0.15933  0.83028  0.10648  1.0000
  H   H2049     1.0  0.15284  0.87118  0.10787  1.0000
  H   H2050     1.0  0.17545  0.87838  0.09227  1.0000
  H   H2051     1.0  0.11942  0.83366  0.11435  1.0000
  H   H2052     1.0  0.11322  0.86594  0.11549  1.0000
  H   H2053     1.0  0.19979  0.84193  0.09240  1.0000
  H   H2054     1.0  0.19612  0.83094  0.07713  1.0000
  H   H2055     1.0  0.10481  0.75070  0.99054  1.0000
  H   H2056     1.0  0.12929  0.90061  0.06800  1.0000
  H   H2057     1.0  0.12947  0.70177  0.03708  1.0000
  H   H2058     1.0  0.07913  0.83891  0.10695  1.0000
  H   H2059     1.0  0.07579  0.84739  0.12427  1.0000
  H   H2060     1.0  0.07231  0.87131  0.10836  1.0000
  H   H2061     1.0  0.19501  0.78892  0.09243  1.0000
  H   H2062     1.0  0.22304  0.79937  0.09178  1.0000
  H   H2063     1.0  0.19889  0.79986  0.10777  1.0000
  C   C1160     1.0  0.25623  0.65411  0.16424  1.0000
  H   H2064     1.0  0.48876  0.86353  0.16766  1.0000
  H   H2065     1.0  0.34067  0.94603  0.21609  1.0000
  H   H2066     1.0  0.40601  0.74390  0.14264  1.0000
  H   H2067     1.0  0.29676  0.72949  0.00059  1.0000
  H   H2068     1.0  0.33029  0.71055  0.01346  1.0000
  H   H2069     1.0  0.26333  0.95173  0.22323  1.0000
  C   C1161     1.0  0.01734  0.68136  0.01211  1.0000
  H   H2070     1.0  0.17590  0.71885  0.20023  1.0000
  H   H2071     1.0  0.42142  0.91284  0.21819  1.0000
  H   H2072     1.0  0.17294  0.77465  0.02510  1.0000
  C   C1162     1.0  0.40902  0.67551  0.13281  1.0000
  H   H2073     1.0  0.41832  0.70408  0.19808  1.0000
  S   S263      1.0  0.36665  0.70518  0.14395  1.0000
  C   C1163     1.0  0.40924  0.67473  0.18162  1.0000
  H   H2074     1.0  0.15571  0.75736  0.04994  1.0000
  H   H2075     1.0  0.47860  0.84194  0.02779  1.0000
  H   H2076     1.0  0.47012  0.95850  0.16438  1.0000
  H   H2077     1.0  0.13745  0.93948  0.10016  1.0000
  C   C1164     1.0  0.47750  0.66489  0.03571  1.0000
  H   H2078     1.0  0.16069  0.72715  0.04649  1.0000
  H   H2079     1.0  0.42266  0.66038  0.10310  1.0000
  H   H2080     1.0  0.42428  0.91320  0.19921  1.0000
  H   H2081     1.0  0.49234  0.86583  0.99764  1.0000
  N   N70       1.0  0.25850  0.90455  0.21939  1.0000
  H   H2082     1.0  0.46858  0.82572  0.17211  1.0000
  S   S264      1.0  0.15119  0.90966  0.98036  1.0000
  C   C1165     1.0  0.18276  0.68998  0.18769  1.0000
  H   H2083     1.0  0.15527  0.69098  0.17525  1.0000
  C   C1166     1.0  0.25371  0.92989  0.20990  1.0000
  H   H2084     1.0  0.47314  0.96638  0.20204  1.0000
  C   C1167     1.0  0.38243  0.74640  0.21450  1.0000
  H   H2085     1.0  0.44653  0.66951  0.07765  1.0000
  C   C1168     1.0  0.38342  0.76815  0.21873  1.0000
  C   C1169     1.0  0.46676  0.87063  0.04910  1.0000
  H   H2086     1.0  0.20679  0.70540  0.21890  1.0000
  C   C1170     1.0  0.14712  0.91990  0.10266  1.0000
  H   H2087     1.0  0.28779  0.94360  0.20842  1.0000
  C   C1171     1.0  0.06047  0.71385  0.11361  1.0000
  H   H2088     1.0  0.23341  0.93792  0.21144  1.0000
  C   C1172     1.0  0.44909  0.68557  0.18293  1.0000
  S   S265      1.0  0.20387  0.85126  0.98995  1.0000
  C   C1173     1.0  0.14971  0.89091  0.04771  1.0000
  H   H2089     1.0  0.32584  0.83680  0.22483  1.0000
  H   H2090     1.0  0.14938  0.71309  0.00408  1.0000
  H   H2091     1.0  0.17751  0.67616  0.19753  1.0000
  C   C1174     1.0  0.24252  0.88906  0.21642  1.0000
  H   H2092     1.0  0.00962  0.68765  0.00197  1.0000
  C   C1175     1.0  0.03494  0.68939  0.10808  1.0000
  H   H2093     1.0  0.28066  0.67933  0.00699  1.0000
  H   H2094     1.0  0.06920  0.72984  0.11073  1.0000
  C   C1176     1.0  0.49197  0.85991  0.04062  1.0000
  H   H2095     1.0  0.14048  0.91236  0.11432  1.0000
  H   H2096     1.0  0.48186  0.82213  0.01064  1.0000
  C   C1177     1.0  0.17573  0.96899  0.99629  1.0000
  H   H2097     1.0  0.31662  0.66604  0.99159  1.0000
  H   H2098     1.0  0.05502  0.66849  0.00092  1.0000
  H   H2099     1.0  0.00860  0.69492  0.01929  1.0000
  C   C1178     1.0  0.43387  0.68444  0.08298  1.0000
  H   H2100     1.0  0.17452  0.73014  0.18131  1.0000
  H   H2101     1.0  0.07420  0.96664  0.20995  1.0000
  C   C1179     1.0  0.15977  0.93218  0.98726  1.0000
  C   C1180     1.0  0.12146  0.78009  0.03384  1.0000
  H   H2102     1.0  0.07112  0.74724  0.07432  1.0000
  H   H2103     1.0  0.12718  0.79906  0.18082  1.0000
  H   H2104     1.0  0.05258  0.66406  0.14070  1.0000
  H   H2105     1.0  0.33707  0.73561  0.99896  1.0000
  H   H2106     1.0  0.26787  0.78529  0.16786  1.0000
  H   H2107     1.0  0.47925  0.81194  0.98761  1.0000
  C   C1181     1.0  0.49024  0.78003  0.19909  1.0000
  H   H2108     1.0  0.21309  0.78811  0.18629  1.0000
  H   H2109     1.0  0.40180  0.68979  0.09969  1.0000
  H   H2110     1.0  0.27632  0.71750  0.02589  1.0000
  H   H2111     1.0  0.31427  0.68934  0.11914  1.0000
  H   H2112     1.0  0.46179  0.92418  0.18204  1.0000
  H   H2113     1.0  0.12517  0.78972  0.04161  1.0000
  Fe  Fe131     1.0  0.16500  0.86799  0.98638  1.0000
  S   S266      1.0  0.28377  0.71582  0.19717  1.0000
  H   H2114     1.0  0.46449  0.82658  0.19086  1.0000
  H   H2115     1.0  0.41096  0.76845  0.18657  1.0000
  H   H2116     1.0  0.04450  0.72301  0.09433  1.0000
  C   C1182     1.0  0.24485  0.72251  0.14614  1.0000
  H   H2117     1.0  0.06816  0.82412  0.02716  1.0000
  S   S267      1.0  0.30340  0.68705  0.16925  1.0000
  C   C1183     1.0  0.23451  0.71774  0.13540  1.0000
  H   H2118     1.0  0.48755  0.86022  0.18697  1.0000
  H   H2119     1.0  0.14927  0.71697  0.19353  1.0000
  S   S268      1.0  0.37076  0.89706  0.21729  1.0000
  C   C1184     1.0  0.43734  0.70584  0.19214  1.0000
  C   C1185     1.0  0.04507  0.68205  0.00799  1.0000
  S   S269      1.0  0.12502  0.79045  0.99374  1.0000
  H   H2120     1.0  0.38254  0.71624  0.99610  1.0000
  H   H2121     1.0  0.09256  0.82671  0.03556  1.0000
  H   H2122     1.0  0.02546  0.92757  0.18114  1.0000
  H   H2123     1.0  0.18330  0.69884  0.16456  1.0000
  C   C1186     1.0  0.16975  0.71557  0.19085  1.0000
  H   H2124     1.0  0.08714  0.75288  0.08693  1.0000
  Fe  Fe132     1.0  0.31690  0.73404  0.18890  1.0000
  H   H2125     1.0  0.38847  0.76186  0.15611  1.0000
  H   H2126     1.0  0.27863  0.79758  0.18033  1.0000
  C   C1187     1.0  0.26271  0.79105  0.17857  1.0000
  C   C1188     1.0  0.03737  0.67266  0.12114  1.0000
  N   N71       1.0  0.48618  0.94733  0.18373  1.0000
  H   H2127     1.0  0.17658  0.74602  0.01913  1.0000
  C   C1189     1.0  0.05110  0.67672  0.13048  1.0000
  H   H2128     1.0  0.03934  0.89608  0.18787  1.0000
  H   H2129     1.0  0.16101  0.68288  0.13117  1.0000
  C   C1190     1.0  0.13990  0.71256  0.02742  1.0000
  H   H2130     1.0  0.36901  0.72322  0.01388  1.0000
  H   H2131     1.0  0.08953  0.78168  0.02389  1.0000
  H   H2132     1.0  0.22708  0.89447  0.99109  1.0000
  C   C1191     1.0  0.04652  0.70995  0.10436  1.0000
  C   C1192     1.0  0.44960  0.67480  0.03962  1.0000
  H   H2133     1.0  0.09913  0.82357  0.01670  1.0000
  C   C1193     1.0  0.15525  0.74703  0.04156  1.0000
  S   S270      1.0  0.01747  0.68545  0.09617  1.0000
  C   C1194     1.0  0.47120  0.92706  0.19028  1.0000
  Fe  Fe133     1.0  0.27987  0.72337  0.17387  1.0000
  H   H2134     1.0  0.01516  0.70499  0.15418  1.0000
  H   H2135     1.0  0.12607  0.75101  0.06906  1.0000
  H   H2136     1.0  0.22755  0.93810  0.98533  1.0000
  S   S271      1.0  0.31888  0.76645  0.19813  1.0000
  H   H2137     1.0  0.44475  0.72015  0.20934  1.0000
  C   C1195     1.0  0.34415  0.76655  0.20584  1.0000
  H   H2138     1.0  0.46066  0.92748  0.21365  1.0000
  S   S272      1.0  0.42146  0.83576  0.21496  1.0000
  C   C1196     1.0  0.39799  0.66177  0.08833  1.0000
  C   C1197     1.0  0.10846  0.75434  0.06504  1.0000
  H   H2139     1.0  0.10160  0.77460  0.06245  1.0000
  H   H2140     1.0  0.14664  0.68310  0.01528  1.0000
  C   C1198     1.0  0.48962  0.85672  0.02555  1.0000
  C   C1199     1.0  0.01201  0.91383  0.20410  1.0000
  C   C1200     1.0  0.17581  0.68533  0.17406  1.0000
  C   C1201     1.0  0.12877  0.74063  0.02594  1.0000
  H   H2141     1.0  0.42551  0.69905  0.07462  1.0000
  H   H2142     1.0  0.38849  0.71773  0.16555  1.0000
  H   H2143     1.0  0.25202  0.71431  0.01749  1.0000
  C   C1202     1.0  0.02169  0.90994  0.18846  1.0000
  C   C1203     1.0  0.11227  0.74211  0.05168  1.0000
  C   C1204     1.0  0.08818  0.81772  0.02767  1.0000
  H   H2144     1.0  0.09372  0.74308  0.04921  1.0000
  H   H2145     1.0  0.08106  0.78462  0.04267  1.0000
  C   C1205     1.0  0.36479  0.78907  0.21650  1.0000
  C   C1206     1.0  0.31584  0.68161  0.98206  1.0000
  C   C1207     1.0  0.18260  0.94372  0.00226  1.0000
  S   S273      1.0  0.05273  0.96778  0.18515  1.0000
  C   C1208     1.0  0.20159  0.74561  0.03275  1.0000
  H   H2146     1.0  0.45038  0.76598  0.19406  1.0000
  H   H2147     1.0  0.18055  0.90604  0.00228  1.0000
  H   H2148     1.0  0.11940  0.72206  0.05536  1.0000
  C   C1209     1.0  0.45274  0.70451  0.20347  1.0000
  H   H2149     1.0  0.01369  0.75817  0.15723  1.0000
  C   C1210     1.0  0.09387  0.78955  0.03226  1.0000
  H   H2150     1.0  0.47605  0.74518  0.17846  1.0000
  C   C1211     1.0  0.41357  0.67407  0.09476  1.0000
  S   S274      1.0  0.34365  0.69843  0.18605  1.0000
  H   H2151     1.0  0.02849  0.65681  0.12409  1.0000
  C   C1212     1.0  0.13861  0.70322  0.01404  1.0000
  C   C1213     1.0  0.23138  0.86806  0.19897  1.0000
  H   H2152     1.0  0.23770  0.86234  0.18825  1.0000
  C   C1214     1.0  0.28576  0.89330  0.21590  1.0000
  H   H2153     1.0  0.13555  0.90281  0.04146  1.0000
  H   H2154     1.0  0.21585  0.75224  0.02346  1.0000
  H   H2155     1.0  0.44627  0.78340  0.16804  1.0000
  H   H2156     1.0  0.40394  0.72977  0.17564  1.0000
  H   H2157     1.0  0.14276  0.68195  0.15746  1.0000
  C   C1215     1.0  0.32370  0.67515  0.12724  1.0000
  C   C1216     1.0  0.26900  0.70437  0.02187  1.0000
  H   H2158     1.0  0.44552  0.71321  0.15773  1.0000
  C   C1217     1.0  0.45137  0.78571  0.18964  1.0000
  H   H2159     1.0  0.26857  0.86700  0.20113  1.0000
  C   C1218     1.0  0.48540  0.82920  0.98752  1.0000
  H   H2160     1.0  0.21995  0.66225  0.20483  1.0000
  C   C1219     1.0  0.43494  0.91074  0.20793  1.0000
  C   C1220     1.0  0.38714  0.67665  0.14335  1.0000
  H   H2161     1.0  0.46689  0.67897  0.14482  1.0000
  H   H2162     1.0  0.46886  0.87204  0.06002  1.0000
  C   C1221     1.0  0.25072  0.88054  0.20156  1.0000
  H   H2163     1.0  0.27208  0.90409  0.00018  1.0000
  H   H2164     1.0  0.22890  0.85138  0.20755  1.0000
  H   H2165     1.0  0.20303  0.68926  0.18593  1.0000
  H   H2166     1.0  0.99794  0.69064  0.13960  1.0000
  H   H2167     1.0  0.48610  0.78854  0.16305  1.0000
  H   H2168     1.0  0.36516  0.65592  0.16134  1.0000
  H   H2169     1.0  0.28149  0.85407  0.22389  1.0000
  H   H2170     1.0  0.43503  0.81383  0.17244  1.0000
  H   H2171     1.0  0.46334  0.76161  0.21588  1.0000
  C   C1222     1.0  0.47680  0.81748  0.18196  1.0000
  C   C1223     1.0  0.33260  0.93411  0.22569  1.0000
  H   H2172     1.0  0.44634  0.89171  0.20937  1.0000
  C   C1224     1.0  0.00897  0.72527  0.15092  1.0000
  C   C1225     1.0  0.41056  0.78843  0.18196  1.0000
  C   C1226     1.0  0.05517  0.97660  0.21164  1.0000
  H   H2173     1.0  0.33380  0.68422  0.13240  1.0000
  C   C1227     1.0  0.26739  0.94926  0.21180  1.0000
  C   C1228     1.0  0.29553  0.71309  0.99663  1.0000
  C   C1229     1.0  0.25337  0.89937  0.00239  1.0000
  C   C1230     1.0  0.24538  0.90027  0.98817  1.0000
  H   H2174     1.0  0.39667  0.73012  0.21640  1.0000
  H   H2175     1.0  0.39746  0.68969  0.18717  1.0000
  H   H2176     1.0  0.22506  0.68419  0.16367  1.0000
  H   H2177     1.0  0.35855  0.70119  0.98306  1.0000
  C   C1231     1.0  0.47377  0.96701  0.17274  1.0000
  H   H2178     1.0  0.39992  0.79944  0.19033  1.0000
  S   S275      1.0  0.48200  0.75956  0.98089  1.0000
  H   H2179     1.0  0.43422  0.66424  0.01364  1.0000
  H   H2180     1.0  0.33072  0.80441  0.20843  1.0000
  C   C1232     1.0  0.04481  0.98584  0.22450  1.0000
  H   H2181     1.0  0.44052  0.79545  0.19859  1.0000
  H   H2182     1.0  0.23981  0.91253  0.00869  1.0000
  C   C1233     1.0  0.01302  0.65479  0.01942  1.0000
  H   H2183     1.0  0.40075  0.79371  0.17264  1.0000
  H   H2184     1.0  0.36555  0.80591  0.21966  1.0000
  H   H2185     1.0  0.35354  0.65580  0.08467  1.0000
  N   N72       1.0  0.18415  0.65924  0.17121  1.0000
  H   H2186     1.0  0.45941  0.88947  0.04336  1.0000
  H   H2187     1.0  0.30732  0.75775  0.98254  1.0000
  H   H2188     1.0  0.44570  0.68423  0.04899  1.0000
  H   H2189     1.0  0.47548  0.66431  0.01387  1.0000
  Fe  Fe134     1.0  0.39318  0.86158  0.22779  1.0000
  H   H2190     1.0  0.02693  0.91964  0.20748  1.0000
  C   C1234     1.0  0.18079  0.65957  0.15609  1.0000
  H   H2191     1.0  0.00991  0.67121  0.04359  1.0000
  H   H2192     1.0  0.24112  0.87225  0.22510  1.0000
  H   H2193     1.0  0.05331  0.67773  0.01789  1.0000
  H   H2194     1.0  0.45320  0.85847  0.05055  1.0000
  C   C1235     1.0  0.34519  0.78823  0.21010  1.0000
  H   H2195     1.0  0.43409  0.97098  0.18216  1.0000
  C   C1236     1.0  0.25949  0.97440  0.20227  1.0000
  C   C1237     1.0  0.44850  0.98262  0.17862  1.0000
  H   H2196     1.0  0.45500  0.66789  0.19033  1.0000
  C   C1238     1.0  0.22969  0.66498  0.16184  1.0000
  H   H2197     1.0  0.22951  0.66544  0.15030  1.0000
  C   C1239     1.0  0.38201  0.65513  0.15315  1.0000
  H   H2198     1.0  0.23965  0.98222  0.20616  1.0000
  C   C1240     1.0  0.10399  0.76474  0.98077  1.0000
  C   C1241     1.0  0.49077  0.95799  0.19558  1.0000
  C   C1242     1.0  0.11314  0.78638  0.97931  1.0000
  H   H2199     1.0  0.29723  0.68409  0.97923  1.0000
  C   C1243     1.0  0.49264  0.87703  0.22358  1.0000
  C   C1244     1.0  0.47173  0.66488  0.15441  1.0000
  H   H2200     1.0  0.25779  0.65455  0.17542  1.0000
  H   H2201     1.0  0.48488  0.67127  0.15892  1.0000
  C   C1245     1.0  0.44802  0.66026  0.16591  1.0000
  C   C1246     1.0  0.34157  0.65467  0.12005  1.0000
  C   C1247     1.0  0.25901  0.65383  0.20506  1.0000
  C   C1248     1.0  0.49294  0.77855  0.17320  1.0000
  C   C1249     1.0  0.42563  0.65291  0.13196  1.0000
  C   C1250     1.0  0.42568  0.68633  0.97881  1.0000
  H   H2202     1.0  0.49312  0.75091  0.15222  1.0000
  H   H2203     1.0  0.43583  0.65425  0.16039  1.0000
  H   H2204     1.0  0.99389  0.95210  0.20012  1.0000
  C   C1251     1.0  0.24298  0.92678  0.97876  1.0000
  C   C1252     1.0  0.47428  0.88148  0.42350  1.0000
  S   S276      1.0  0.37748  0.83092  0.24403  1.0000
  C   C1253     1.0  0.40050  0.94496  0.47604  1.0000
  H   H2205     1.0  0.48466  0.81970  0.25738  1.0000
  H   H2206     1.0  0.40102  0.72947  0.45063  1.0000
  C   C1254     1.0  0.40129  0.74250  0.32155  1.0000
  H   H2207     1.0  0.27614  0.85619  0.47309  1.0000
  S   S277      1.0  0.27557  0.94044  0.26020  1.0000
  S   S278      1.0  0.45838  0.78739  0.32730  1.0000
  H   H2208     1.0  0.46565  0.66405  0.45681  1.0000
  H   H2209     1.0  0.49293  0.73118  0.22909  1.0000
  H   H2210     1.0  0.19502  0.76550  0.47396  1.0000
  H   H2211     1.0  0.38246  0.92597  0.28503  1.0000
  H   H2212     1.0  0.42886  0.89062  0.26569  1.0000
  H   H2213     1.0  0.46819  0.83751  0.28600  1.0000
  H   H2214     1.0  0.38454  0.95901  0.24692  1.0000
  C   C1255     1.0  0.39172  0.75402  0.35012  1.0000
  H   H2215     1.0  0.22275  0.78787  0.45993  1.0000
  C   C1256     1.0  0.99465  0.95857  0.38703  1.0000
  H   H2216     1.0  0.38988  0.93654  0.23548  1.0000
  H   H2217     1.0  0.38118  0.65987  0.41950  1.0000
  Fe  Fe135     1.0  0.40636  0.84076  0.36174  1.0000
  S   S279      1.0  0.42121  0.79995  0.36490  1.0000
  S   S280      1.0  0.36432  0.84777  0.36577  1.0000
  Fe  Fe136     1.0  0.44523  0.80773  0.37802  1.0000
  S   S281      1.0  0.44881  0.78743  0.40078  1.0000
  S   S282      1.0  0.42925  0.84812  0.37575  1.0000
  H   H2218     1.0  0.99745  0.95698  0.28535  1.0000
  H   H2219     1.0  0.16126  0.96054  0.40474  1.0000
  S   S283      1.0  0.19568  0.85658  0.44080  1.0000
  N   N73       1.0  0.48692  0.87514  0.40887  1.0000
  S   S284      1.0  0.43527  0.80419  0.24653  1.0000
  C   C1257     1.0  0.34857  0.75715  0.34630  1.0000
  Fe  Fe137     1.0  0.44992  0.80921  0.34530  1.0000
  H   H2220     1.0  0.38055  0.77277  0.36878  1.0000
  H   H2221     1.0  0.21120  0.91422  0.23678  1.0000
  H   H2222     1.0  0.17630  0.91746  0.40373  1.0000
  Fe  Fe138     1.0  0.31197  0.72912  0.40918  1.0000
  S   S285      1.0  0.28965  0.72128  0.43177  1.0000
  S   S286      1.0  0.34448  0.74713  0.40714  1.0000
  Fe  Fe139     1.0  0.28569  0.69925  0.39720  1.0000
  S   S287      1.0  0.26167  0.68918  0.41885  1.0000
  S   S288      1.0  0.28617  0.68248  0.37800  1.0000
  Fe  Fe140     1.0  0.25747  0.72895  0.42038  1.0000
  S   S289      1.0  0.21871  0.74702  0.42970  1.0000
  Fe  Fe141     1.0  0.29602  0.68247  0.42815  1.0000
  H   H2223     1.0  0.40193  0.66909  0.43638  1.0000
  S   S290      1.0  0.27925  0.73990  0.39787  1.0000
  S   S291      1.0  0.32062  0.68958  0.40637  1.0000
  C   C1258     1.0  0.43979  0.80067  0.31408  1.0000
  H   H2224     1.0  0.42975  0.70798  0.40064  1.0000
  H   H2225     1.0  0.42009  0.72535  0.30299  1.0000
  H   H2226     1.0  0.48968  0.81753  0.30251  1.0000
  S   S292      1.0  0.41488  0.85785  0.44668  1.0000
  C   C1259     1.0  0.32661  0.72067  0.35506  1.0000
  S   S293      1.0  0.31330  0.92954  0.42256  1.0000
  H   H2227     1.0  0.35774  0.81233  0.32069  1.0000
  H   H2228     1.0  0.36540  0.71792  0.35371  1.0000
  H   H2229     1.0  0.36146  0.68581  0.42686  1.0000
  H   H2230     1.0  0.42184  0.74393  0.37027  1.0000
  C   C1260     1.0  0.31167  0.94409  0.23523  1.0000
  C   C1261     1.0  0.26774  0.95270  0.43595  1.0000
  C   C1262     1.0  0.28242  0.94571  0.42319  1.0000
  H   H2231     1.0  0.48502  0.86197  0.28208  1.0000
  H   H2232     1.0  0.49284  0.82944  0.43256  1.0000
  C   C1263     1.0  0.43131  0.80401  0.28998  1.0000
  H   H2233     1.0  0.27485  0.94713  0.44594  1.0000
  C   C1264     1.0  0.20135  0.74587  0.47269  1.0000
  H   H2234     1.0  0.04910  0.88937  0.46733  1.0000
  C   C1265     1.0  0.20522  0.70241  0.23086  1.0000
  C   C1266     1.0  0.35412  0.66725  0.46229  1.0000
  C   C1267     1.0  0.33577  0.66821  0.45441  1.0000
  H   H2235     1.0  0.15718  0.74216  0.46590  1.0000
  C   C1268     1.0  0.13958  0.93159  0.42892  1.0000
  C   C1269     1.0  0.02938  0.85926  0.47614  1.0000
  C   C1270     1.0  0.33917  0.89558  0.28238  1.0000
  H   H2236     1.0  0.32697  0.68583  0.44884  1.0000
  C   C1271     1.0  0.41095  0.82310  0.29262  1.0000
  H   H2237     1.0  0.45719  0.69575  0.40867  1.0000
  H   H2238     1.0  0.26527  0.91429  0.23834  1.0000
  H   H2239     1.0  0.39824  0.73442  0.34897  1.0000
  C   C1272     1.0  0.46027  0.72656  0.39106  1.0000
  H   H2240     1.0  0.38247  0.71043  0.43860  1.0000
  H   H2241     1.0  0.19758  0.67755  0.39181  1.0000
  C   C1273     1.0  0.37163  0.92465  0.25769  1.0000
  H   H2242     1.0  0.28055  0.94114  0.31250  1.0000
  C   C1274     1.0  0.23657  0.67906  0.38627  1.0000
  C   C1275     1.0  0.21512  0.67205  0.38482  1.0000
  H   H2243     1.0  0.32153  0.72363  0.36646  1.0000
  S   S294      1.0  0.39255  0.83824  0.27960  1.0000
  H   H2244     1.0  0.23541  0.68999  0.39427  1.0000
  C   C1276     1.0  0.23930  0.77871  0.46487  1.0000
  C   C1277     1.0  0.20166  0.82704  0.43632  1.0000
  C   C1278     1.0  0.22497  0.81751  0.42859  1.0000
  C   C1279     1.0  0.23044  0.79304  0.42622  1.0000
  C   C1280     1.0  0.21238  0.77824  0.43140  1.0000
  C   C1281     1.0  0.18879  0.78816  0.43858  1.0000
  C   C1282     1.0  0.18347  0.81242  0.44107  1.0000
  H   H2245     1.0  0.23904  0.82869  0.42486  1.0000
  H   H2246     1.0  0.24865  0.78551  0.42059  1.0000
  H   H2247     1.0  0.17464  0.77691  0.44243  1.0000
  H   H2248     1.0  0.16520  0.81983  0.44668  1.0000
  Fe  Fe142     1.0  0.32907  0.91271  0.44298  1.0000
  C   C1283     1.0  0.40109  0.68265  0.42600  1.0000
  H   H2249     1.0  0.19399  0.94251  0.43521  1.0000
  H   H2250     1.0  0.35000  0.86708  0.30060  1.0000
  H   H2251     1.0  0.44836  0.73767  0.41746  1.0000
  C   C1284     1.0  0.43650  0.80568  0.41430  1.0000
  C   C1285     1.0  0.41638  0.82563  0.41302  1.0000
  C   C1286     1.0  0.40848  0.84105  0.42340  1.0000
  C   C1287     1.0  0.42087  0.83666  0.43499  1.0000
  C   C1288     1.0  0.44001  0.81594  0.43669  1.0000
  C   C1289     1.0  0.44739  0.80021  0.42657  1.0000
  H   H2252     1.0  0.40690  0.82927  0.40405  1.0000
  H   H2253     1.0  0.39353  0.85688  0.42211  1.0000
  H   H2254     1.0  0.44943  0.81226  0.44575  1.0000
  H   H2255     1.0  0.46224  0.78430  0.42797  1.0000
  C   C1290     1.0  0.35555  0.82209  0.37875  1.0000
  C   C1291     1.0  0.37098  0.80944  0.38861  1.0000
  C   C1292     1.0  0.36691  0.78679  0.39742  1.0000
  C   C1293     1.0  0.34693  0.77677  0.39677  1.0000
  C   C1294     1.0  0.33032  0.79008  0.38762  1.0000
  C   C1295     1.0  0.33459  0.81286  0.37865  1.0000
  H   H2256     1.0  0.38668  0.81675  0.38913  1.0000
  H   H2257     1.0  0.37976  0.77673  0.40449  1.0000
  H   H2258     1.0  0.31472  0.78250  0.38716  1.0000
  H   H2259     1.0  0.32232  0.82264  0.37120  1.0000
  C   C1296     1.0  0.44100  0.88058  0.27360  1.0000
  C   C1297     1.0  0.38372  0.75380  0.36667  1.0000
  H   H2260     1.0  0.26393  0.95961  0.29858  1.0000
  H   H2261     1.0  0.16750  0.94143  0.47368  1.0000
  C   C1298     1.0  0.23511  0.97602  0.42259  1.0000
  H   H2262     1.0  0.32304  0.90121  0.27682  1.0000
  C   C1299     1.0  0.48006  0.84838  0.27710  1.0000
  H   H2263     1.0  0.41946  0.74239  0.32421  1.0000
  C   C1300     1.0  0.27285  0.95278  0.41034  1.0000
  C   C1301     1.0  0.44475  0.71288  0.40440  1.0000
  H   H2264     1.0  0.23175  0.92393  0.26120  1.0000
  S   S295      1.0  0.47658  0.81143  0.35876  1.0000
  H   H2265     1.0  0.39840  0.73956  0.38650  1.0000
  H   H2266     1.0  0.42980  0.86990  0.28294  1.0000
  C   C1302     1.0  0.39737  0.70937  0.42872  1.0000
  H   H2267     1.0  0.31878  0.84207  0.30310  1.0000
  H   H2268     1.0  0.39280  0.78144  0.31985  1.0000
  H   H2269     1.0  0.47119  0.84203  0.41332  1.0000
  H   H2270     1.0  0.23973  0.66020  0.30219  1.0000
  H   H2271     1.0  0.44771  0.89433  0.27745  1.0000
  C   C1303     1.0  0.35106  0.72901  0.34742  1.0000
  C   C1304     1.0  0.17409  0.95058  0.41231  1.0000
  H   H2272     1.0  0.17082  0.93815  0.23569  1.0000
  H   H2273     1.0  0.35424  0.95297  0.27073  1.0000
  H   H2274     1.0  0.37972  0.69082  0.40876  1.0000
  H   H2275     1.0  0.43999  0.65427  0.47025  1.0000
  H   H2276     1.0  0.44439  0.68149  0.43140  1.0000
  S   S296      1.0  0.36563  0.92179  0.44327  1.0000
  C   C1305     1.0  0.23324  0.70139  0.46140  1.0000
  C   C1306     1.0  0.33306  0.89374  0.24124  1.0000
  C   C1307     1.0  0.31175  0.90352  0.25050  1.0000
  C   C1308     1.0  0.30134  0.92880  0.24773  1.0000
  H   H2277     1.0  0.00191  0.95986  0.36363  1.0000
  C   C1309     1.0  0.00466  0.96633  0.29191  1.0000
  H   H2278     1.0  0.18412  0.97368  0.24066  1.0000
  H   H2279     1.0  0.30346  0.89146  0.25995  1.0000
  N   N74       1.0  0.34692  0.91812  0.28429  1.0000
  C   C1310     1.0  0.40476  0.83049  0.30606  1.0000
  C   C1311     1.0  0.20549  0.93588  0.39104  1.0000
  H   H2280     1.0  0.21585  0.91933  0.38643  1.0000
  C   C1312     1.0  0.36613  0.79412  0.34250  1.0000
  C   C1313     1.0  0.39436  0.76126  0.43385  1.0000
  C   C1314     1.0  0.34919  0.81208  0.33231  1.0000
  C   C1315     1.0  0.34450  0.83859  0.33478  1.0000
  C   C1316     1.0  0.41924  0.81952  0.31668  1.0000
  H   H2281     1.0  0.35660  0.79604  0.35374  1.0000
  H   H2282     1.0  0.33889  0.76189  0.35705  1.0000
  H   H2283     1.0  0.13666  0.96792  0.44315  1.0000
  H   H2284     1.0  0.36650  0.74626  0.37138  1.0000
  H   H2285     1.0  0.33083  0.80672  0.33437  1.0000
  C   C1317     1.0  0.37033  0.90611  0.30626  1.0000
  H   H2286     1.0  0.32863  0.70059  0.35532  1.0000
  H   H2287     1.0  0.00593  0.76217  0.43141  1.0000
  H   H2288     1.0  0.33424  0.83980  0.34599  1.0000
  H   H2289     1.0  0.36230  0.84498  0.33308  1.0000
  H   H2290     1.0  0.33305  0.85117  0.32711  1.0000
  H   H2291     1.0  0.01303  0.95027  0.24896  1.0000
  H   H2292     1.0  0.18543  0.70825  0.23585  1.0000
  C   C1318     1.0  0.26102  0.79062  0.45592  1.0000
  C   C1319     1.0  0.40575  0.74183  0.30538  1.0000
  C   C1320     1.0  0.38443  0.77801  0.44508  1.0000
  H   H2293     1.0  0.12345  0.93674  0.43759  1.0000
  N   N75       1.0  0.15990  0.94562  0.42775  1.0000
  C   C1321     1.0  0.12510  0.89110  0.43192  1.0000
  H   H2294     1.0  0.32413  0.92133  0.30560  1.0000
  H   H2295     1.0  0.05588  0.98286  0.23273  1.0000
  H   H2296     1.0  0.16251  0.98037  0.43244  1.0000
  H   H2297     1.0  0.47281  0.87449  0.25676  1.0000
  H   H2298     1.0  0.31129  0.73089  0.34923  1.0000
  H   H2299     1.0  0.19393  0.94800  0.38326  1.0000
  H   H2300     1.0  0.19965  0.92835  0.26003  1.0000
  C   C1322     1.0  0.39633  0.89779  0.30995  1.0000
  H   H2301     1.0  0.49317  0.77933  0.24931  1.0000
  H   H2302     1.0  0.40111  0.92922  0.47134  1.0000
  H   H2303     1.0  0.24477  0.71086  0.45175  1.0000
  C   C1323     1.0  0.18917  0.92781  0.40572  1.0000
  H   H2304     1.0  0.42046  0.74514  0.41041  1.0000
  H   H2305     1.0  0.35908  0.95407  0.24028  1.0000
  H   H2306     1.0  0.36702  0.76931  0.31917  1.0000
  C   C1324     1.0  0.26032  0.65878  0.36652  1.0000
  C   C1325     1.0  0.24944  0.96831  0.40995  1.0000
  Fe  Fe143     1.0  0.45928  0.85184  0.35588  1.0000
  H   H2307     1.0  0.47487  0.87755  0.23092  1.0000
  S   S297      1.0  0.34149  0.87134  0.44944  1.0000
  H   H2308     1.0  0.20172  0.91520  0.41273  1.0000
  H   H2309     1.0  0.38874  0.84486  0.30825  1.0000
  H   H2310     1.0  0.33516  0.76627  0.33895  1.0000
  C   C1326     1.0  0.21354  0.67003  0.25333  1.0000
  S   S298      1.0  0.00310  0.87594  0.46874  1.0000
  H   H2311     1.0  0.45557  0.70352  0.43696  1.0000
  C   C1327     1.0  0.48960  0.84758  0.41019  1.0000
  H   H2312     1.0  0.39486  0.89405  0.32193  1.0000
  H   H2313     1.0  0.33347  0.93989  0.26488  1.0000
  H   H2314     1.0  0.48639  0.87280  0.43165  1.0000
  H   H2315     1.0  0.16717  0.96552  0.45771  1.0000
  Fe  Fe144     1.0  0.32714  0.87787  0.47227  1.0000
  H   H2316     1.0  0.21379  0.70599  0.45969  1.0000
  H   H2317     1.0  0.46381  0.90354  0.44767  1.0000
  H   H2318     1.0  0.35558  0.72459  0.33639  1.0000
  H   H2319     1.0  0.46093  0.77742  0.29892  1.0000
  H   H2320     1.0  0.45479  0.85036  0.26241  1.0000
  H   H2321     1.0  0.38937  0.91691  0.26157  1.0000
  C   C1328     1.0  0.25920  0.67272  0.37700  1.0000
  H   H2322     1.0  0.40863  0.76251  0.34610  1.0000
  H   H2323     1.0  0.38836  0.74063  0.30230  1.0000
  H   H2324     1.0  0.23398  0.67021  0.23098  1.0000
  Fe  Fe145     1.0  0.17464  0.85448  0.46396  1.0000
  H   H2325     1.0  0.99725  0.93810  0.38926  1.0000
  H   H2326     1.0  0.40616  0.88057  0.30596  1.0000
  H   H2327     1.0  0.40750  0.91245  0.30504  1.0000
  C   C1329     1.0  0.37954  0.67962  0.41992  1.0000
  C   C1330     1.0  0.22541  0.92061  0.24036  1.0000
  C   C1331     1.0  0.44624  0.66135  0.45850  1.0000
  H   H2328     1.0  0.27762  0.78339  0.46108  1.0000
  C   C1332     1.0  0.25173  0.90599  0.23530  1.0000
  H   H2329     1.0  0.35415  0.88529  0.27500  1.0000
  H   H2330     1.0  0.36179  0.92338  0.31056  1.0000
  H   H2331     1.0  0.20162  0.74630  0.46108  1.0000
  C   C1333     1.0  0.38250  0.76614  0.32515  1.0000
  H   H2332     1.0  0.34109  0.87433  0.24365  1.0000
  C   C1334     1.0  0.17481  0.94583  0.46181  1.0000
  H   H2333     1.0  0.48153  0.88233  0.38669  1.0000
  H   H2334     1.0  0.15016  0.76332  0.47837  1.0000
  H   H2335     1.0  0.13199  0.93704  0.41871  1.0000
  H   H2336     1.0  0.43489  0.90623  0.44186  1.0000
  C   C1335     1.0  0.37654  0.94487  0.24430  1.0000
  H   H2337     1.0  0.23277  0.97323  0.44553  1.0000
  C   C1336     1.0  0.14803  0.97043  0.43199  1.0000
  C   C1337     1.0  0.41155  0.73707  0.43984  1.0000
  C   C1338     1.0  0.16744  0.92858  0.45422  1.0000
  C   C1339     1.0  0.43329  0.72952  0.41584  1.0000
  H   H2338     1.0  0.26169  0.66786  0.46391  1.0000
  C   C1340     1.0  0.47177  0.88791  0.39724  1.0000
  H   H2339     1.0  0.33576  0.84678  0.28466  1.0000
  H   H2340     1.0  0.22449  0.94067  0.23588  1.0000
  C   C1341     1.0  0.21615  0.65837  0.37425  1.0000
  C   C1342     1.0  0.46691  0.90935  0.42413  1.0000
  C   C1343     1.0  0.44494  0.88306  0.40015  1.0000
  Fe  Fe146     1.0  0.34908  0.92453  0.46651  1.0000
  H   H2341     1.0  0.02907  0.95715  0.37109  1.0000
  C   C1344     1.0  0.43022  0.90036  0.38902  1.0000
  S   S299      1.0  0.48457  0.87965  0.35126  1.0000
  H   H2342     1.0  0.44790  0.93333  0.43958  1.0000
  H   H2343     1.0  0.47013  0.90826  0.39520  1.0000
  H   H2344     1.0  0.24267  0.97464  0.39984  1.0000
  S   S300      1.0  0.36319  0.88469  0.47495  1.0000
  H   H2345     1.0  0.45745  0.87312  0.42783  1.0000
  C   C1345     1.0  0.23545  0.70893  0.47541  1.0000
  H   H2346     1.0  0.45477  0.91962  0.41627  1.0000
  C   C1346     1.0  0.99993  0.93745  0.25422  1.0000
  H   H2347     1.0  0.44540  0.86382  0.39924  1.0000
  H   H2348     1.0  0.43451  0.88604  0.41106  1.0000
  H   H2349     1.0  0.17514  0.90933  0.45924  1.0000
  C   C1347     1.0  0.24221  0.67353  0.46216  1.0000
  C   C1348     1.0  0.44549  0.79252  0.30082  1.0000
  H   H2350     1.0  0.42795  0.74243  0.44198  1.0000
  H   H2351     1.0  0.18718  0.91393  0.43528  1.0000
  H   H2352     1.0  0.42781  0.91993  0.39007  1.0000
  H   H2353     1.0  0.43992  0.89828  0.37780  1.0000
  H   H2354     1.0  0.41153  0.89569  0.39093  1.0000
  H   H2355     1.0  0.26549  0.78679  0.44475  1.0000
  C   C1349     1.0  0.14646  0.90293  0.43244  1.0000
  H   H2356     1.0  0.32285  0.98516  0.45514  1.0000
  H   H2357     1.0  0.28401  0.94706  0.40049  1.0000
  H   H2358     1.0  0.24039  0.83527  0.47695  1.0000
  H   H2359     1.0  0.38351  0.80141  0.34066  1.0000
  H   H2360     1.0  0.41409  0.82531  0.32701  1.0000
  S   S301      1.0  0.17050  0.81652  0.47653  1.0000
  C   C1350     1.0  0.37142  0.91101  0.28958  1.0000
  H   H2361     1.0  0.23016  0.66305  0.47111  1.0000
  H   H2362     1.0  0.24160  0.66875  0.45176  1.0000
  H   H2363     1.0  0.36624  0.90977  0.25413  1.0000
  C   C1351     1.0  0.43823  0.69692  0.43743  1.0000
  S   S302      1.0  0.43420  0.85002  0.34123  1.0000
  H   H2364     1.0  0.38309  0.89429  0.28549  1.0000
  H   H2365     1.0  0.37245  0.76891  0.45477  1.0000
  H   H2366     1.0  0.40992  0.68228  0.45539  1.0000
  H   H2367     1.0  0.42901  0.69859  0.46066  1.0000
  H   H2368     1.0  0.39500  0.72528  0.32774  1.0000
  H   H2369     1.0  0.10830  0.89704  0.43993  1.0000
  H   H2370     1.0  0.43586  0.79788  0.27971  1.0000
  C   C1352     1.0  0.24395  0.96750  0.43568  1.0000
  S   S303      1.0  0.31151  0.91839  0.46570  1.0000
  H   H2371     1.0  0.37834  0.75699  0.43081  1.0000
  C   C1353     1.0  0.30106  0.94132  0.29022  1.0000
  H   H2372     1.0  0.08692  0.86745  0.47707  1.0000
  H   H2373     1.0  0.44893  0.74423  0.38635  1.0000
  H   H2374     1.0  0.47642  0.73082  0.39406  1.0000
  C   C1354     1.0  0.32234  0.85616  0.29306  1.0000
  C   C1355     1.0  0.45254  0.91326  0.43924  1.0000
  H   H2375     1.0  0.37695  0.98350  0.38934  1.0000
  H   H2376     1.0  0.21835  0.89756  0.26195  1.0000
  H   H2377     1.0  0.33412  0.97492  0.39419  1.0000
  H   H2378     1.0  0.38893  0.72248  0.41979  1.0000
  H   H2379     1.0  0.40459  0.77212  0.42418  1.0000
  H   H2380     1.0  0.40001  0.78257  0.44850  1.0000
  N   N76       1.0  0.37228  0.76723  0.34104  1.0000
  Fe  Fe147     1.0  0.40578  0.83291  0.25644  1.0000
  H   H2381     1.0  0.33340  0.94909  0.29533  1.0000
  H   H2382     1.0  0.30170  0.95509  0.27989  1.0000
  H   H2383     1.0  0.41839  0.67743  0.41826  1.0000
  H   H2384     1.0  0.19536  0.94320  0.46009  1.0000
  H   H2385     1.0  0.01041  0.91805  0.25546  1.0000
  H   H2386     1.0  0.15054  0.89652  0.44355  1.0000
  H   H2387     1.0  0.12063  0.89618  0.42085  1.0000
  C   C1356     1.0  0.46279  0.86310  0.26629  1.0000
  H   H2388     1.0  0.30457  0.86424  0.28916  1.0000
  S   S304      1.0  0.34959  0.95588  0.47715  1.0000
  H   H2389     1.0  0.35931  0.68417  0.46277  1.0000
  C   C1357     1.0  0.28241  0.95397  0.30180  1.0000
  N   N77       1.0  0.41996  0.71765  0.43039  1.0000
  H   H2390     1.0  0.32926  0.98021  0.41238  1.0000
  H   H2391     1.0  0.29359  0.92557  0.28915  1.0000
  H   H2392     1.0  0.14697  0.93022  0.45673  1.0000
  H   H2393     1.0  0.20297  0.66429  0.23386  1.0000
  N   N78       1.0  0.29035  0.86060  0.41665  1.0000
  C   C1358     1.0  0.28586  0.85391  0.40338  1.0000
  C   C1359     1.0  0.29681  0.83719  0.42752  1.0000
  C   C1360     1.0  0.26616  0.87531  0.42356  1.0000
  C   C1361     1.0  0.31019  0.87611  0.41297  1.0000
  C   C1362     1.0  0.33236  0.87063  0.40036  1.0000
  C   C1363     1.0  0.27450  0.87599  0.39237  1.0000
  C   C1364     1.0  0.26569  0.88165  0.43844  1.0000
  C   C1365     1.0  0.32077  0.81877  0.42278  1.0000
  C   C1366     1.0  0.32181  0.79365  0.43307  1.0000
  C   C1367     1.0  0.35247  0.88524  0.39926  1.0000
  C   C1368     1.0  0.27797  0.86920  0.37752  1.0000
  C   C1369     1.0  0.24174  0.89949  0.44318  1.0000
  H   H2394     1.0  0.27318  0.84036  0.40662  1.0000
  H   H2395     1.0  0.30320  0.84414  0.39738  1.0000
  H   H2396     1.0  0.29962  0.84154  0.43759  1.0000
  H   H2397     1.0  0.28100  0.82717  0.43083  1.0000
  H   H2398     1.0  0.25061  0.86538  0.42514  1.0000
  H   H2399     1.0  0.26108  0.89335  0.41623  1.0000
  H   H2400     1.0  0.30191  0.89599  0.40974  1.0000
  H   H2401     1.0  0.31789  0.87484  0.42279  1.0000
  H   H2402     1.0  0.32608  0.87604  0.38978  1.0000
  H   H2403     1.0  0.34118  0.85088  0.40167  1.0000
  H   H2404     1.0  0.25421  0.88139  0.39643  1.0000
  H   H2405     1.0  0.28304  0.89237  0.39087  1.0000
  H   H2406     1.0  0.28164  0.89032  0.43789  1.0000
  H   H2407     1.0  0.26626  0.86477  0.44710  1.0000
  H   H2408     1.0  0.32211  0.81539  0.41181  1.0000
  H   H2409     1.0  0.33731  0.82596  0.42305  1.0000
  H   H2410     1.0  0.30693  0.78457  0.43227  1.0000
  H   H2411     1.0  0.33979  0.78143  0.42982  1.0000
  H   H2412     1.0  0.32010  0.79562  0.44447  1.0000
  H   H2413     1.0  0.36825  0.88048  0.39037  1.0000
  H   H2414     1.0  0.34500  0.90546  0.39680  1.0000
  H   H2415     1.0  0.35951  0.88062  0.40958  1.0000
  H   H2416     1.0  0.27006  0.85253  0.37857  1.0000
  H   H2417     1.0  0.26832  0.88483  0.37020  1.0000
  H   H2418     1.0  0.29804  0.86554  0.37252  1.0000
  H   H2419     1.0  0.23910  0.91645  0.43469  1.0000
  H   H2420     1.0  0.22551  0.89037  0.44539  1.0000
  H   H2421     1.0  0.24266  0.90501  0.45329  1.0000
  C   C1370     1.0  0.33287  0.87633  0.29630  1.0000
  H   H2422     1.0  0.41241  0.75866  0.29866  1.0000
  H   H2423     1.0  0.31886  0.88485  0.30477  1.0000
  C   C1371     1.0  0.42906  0.68570  0.45358  1.0000
  H   H2424     1.0  0.35931  0.89177  0.31219  1.0000
  H   H2425     1.0  0.30381  0.96363  0.23300  1.0000
  C   C1372     1.0  0.00916  0.96600  0.37167  1.0000
  C   C1373     1.0  0.21848  0.91732  0.25690  1.0000
  H   H2426     1.0  0.24459  0.74860  0.45394  1.0000
  C   C1374     1.0  0.16266  0.98468  0.35992  1.0000
  C   C1375     1.0  0.17818  0.93257  0.43760  1.0000
  C   C1376     1.0  0.40383  0.73781  0.37489  1.0000
  H   H2427     1.0  0.21918  0.94605  0.39233  1.0000
  Fe  Fe148     1.0  0.44678  0.83611  0.22957  1.0000
  H   H2428     1.0  0.37321  0.79563  0.44022  1.0000
  H   H2429     1.0  0.13064  0.87061  0.43470  1.0000
  H   H2430     1.0  0.18716  0.96305  0.41148  1.0000
  Fe  Fe149     1.0  0.37654  0.88094  0.45163  1.0000
  S   S305      1.0  0.41992  0.86494  0.24077  1.0000
  C   C1377     1.0  0.24479  0.75043  0.46513  1.0000
  H   H2431     1.0  0.16297  0.89563  0.42481  1.0000
  H   H2432     1.0  0.99535  0.72165  0.43337  1.0000
  H   H2433     1.0  0.02411  0.95687  0.29260  1.0000
  Fe  Fe150     1.0  0.40837  0.80521  0.23244  1.0000
  H   H2434     1.0  0.22925  0.67489  0.27802  1.0000
  H   H2435     1.0  0.40609  0.71804  0.37430  1.0000
  C   C1378     1.0  0.35061  0.93508  0.26958  1.0000
  H   H2436     1.0  0.46730  0.71488  0.38265  1.0000
  H   H2437     1.0  0.19457  0.67808  0.25869  1.0000
  H   H2438     1.0  0.25306  0.88705  0.24210  1.0000
  H   H2439     1.0  0.22771  0.92439  0.47560  1.0000
  H   H2440     1.0  0.18223  0.98092  0.36141  1.0000
  H   H2441     1.0  0.21663  0.71407  0.23311  1.0000
  H   H2442     1.0  0.34573  0.98165  0.43872  1.0000
  H   H2443     1.0  0.22593  0.68136  0.25494  1.0000
  H   H2444     1.0  0.25590  0.81098  0.45529  1.0000
  C   C1379     1.0  0.21454  0.67505  0.23672  1.0000
  H   H2445     1.0  0.26427  0.74254  0.46662  1.0000
  C   C1380     1.0  0.32711  0.93240  0.29441  1.0000
  H   H2446     1.0  0.15861  0.96736  0.35836  1.0000
  H   H2447     1.0  0.37168  0.95861  0.40461  1.0000
  H   H2448     1.0  0.00558  0.91921  0.23079  1.0000
  C   C1381     1.0  0.18135  0.97399  0.22990  1.0000
  H   H2449     1.0  0.00315  0.96456  0.39453  1.0000
  H   H2450     1.0  0.28817  0.97082  0.30283  1.0000
  C   C1382     1.0  0.36651  0.97889  0.40062  1.0000
  H   H2451     1.0  0.23565  0.78292  0.47585  1.0000
  H   H2452     1.0  0.48263  0.80229  0.27525  1.0000
  Fe  Fe151     1.0  0.25692  0.98048  0.25454  1.0000
  H   H2453     1.0  0.43995  0.93699  0.47593  1.0000
  H   H2454     1.0  0.48380  0.91744  0.42186  1.0000
  C   C1383     1.0  0.15583  0.74351  0.47738  1.0000
  H   H2455     1.0  0.29547  0.97251  0.37269  1.0000
  S   S306      1.0  0.13684  0.87349  0.47428  1.0000
  H   H2456     1.0  0.29276  0.86682  0.23588  1.0000
  H   H2457     1.0  0.11714  0.97918  0.41997  1.0000
  H   H2458     1.0  0.25533  0.70273  0.47640  1.0000
  C   C1384     1.0  0.04984  0.87076  0.47364  1.0000
  N   N79       1.0  0.22698  0.73605  0.47614  1.0000
  C   C1385     1.0  0.23333  0.65456  0.28198  1.0000
  H   H2459     1.0  0.20858  0.65637  0.30306  1.0000
  H   H2460     1.0  0.17101  0.65399  0.25493  1.0000
  H   H2461     1.0  0.27778  0.65380  0.35933  1.0000
  H   H2462     1.0  0.24398  0.98531  0.32458  1.0000
  C   C1386     1.0  0.34368  0.90901  0.22885  1.0000
  C   C1387     1.0  0.42246  0.94941  0.47862  1.0000
  Fe  Fe152     1.0  0.15624  0.87714  0.49140  1.0000
  S   S307      1.0  0.15124  0.84041  0.50549  1.0000
  S   S308      1.0  0.15043  0.90830  0.50341  1.0000
  S   S309      1.0  0.09965  0.81824  0.49427  1.0000
  Fe  Fe153     1.0  0.18800  0.82606  0.49239  1.0000
  S   S310      1.0  0.21936  0.80067  0.50219  1.0000
  H   H2463     1.0  0.36065  0.66559  0.67885  1.0000
  C   C1388     1.0  0.05599  0.84404  0.52464  1.0000
  C   C1389     1.0  0.46027  0.94647  0.71128  1.0000
  S   S311      1.0  0.24082  0.69973  0.71656  1.0000
  H   H2464     1.0  0.22684  0.91194  0.54858  1.0000
  H   H2465     1.0  0.41725  0.66112  0.52455  1.0000
  C   C1390     1.0  0.11114  0.91247  0.63323  1.0000
  C   C1391     1.0  0.29759  0.91109  0.52402  1.0000
  H   H2466     1.0  0.04441  0.71175  0.71753  1.0000
  H   H2467     1.0  0.42590  0.72716  0.69947  1.0000
  Fe  Fe154     1.0  0.18944  0.85716  0.61204  1.0000
  S   S312      1.0  0.18962  0.82133  0.62832  1.0000
  H   H2468     1.0  0.34061  0.94496  0.57746  1.0000
  C   C1392     1.0  0.19408  0.86548  0.53118  1.0000
  H   H2469     1.0  0.14726  0.97555  0.62287  1.0000
  H   H2470     1.0  0.18938  0.86653  0.50961  1.0000
  H   H2471     1.0  0.18300  0.98432  0.60300  1.0000
  H   H2472     1.0  0.16318  0.90754  0.55235  1.0000
  Fe  Fe155     1.0  0.32249  0.72828  0.69586  1.0000
  S   S313      1.0  0.28299  0.74676  0.70273  1.0000
  S   S314      1.0  0.35602  0.72635  0.70551  1.0000
  Fe  Fe156     1.0  0.31058  0.70989  0.67162  1.0000
  S   S315      1.0  0.27004  0.72655  0.67640  1.0000
  H   H2473     1.0  0.13531  0.80167  0.60099  1.0000
  Fe  Fe157     1.0  0.28243  0.75980  0.67895  1.0000
  S   S316      1.0  0.26529  0.79971  0.67087  1.0000
  Fe  Fe158     1.0  0.27294  0.71244  0.69982  1.0000
  C   C1393     1.0  0.22219  0.95140  0.54407  1.0000
  S   S317      1.0  0.32295  0.74443  0.67219  1.0000
  S   S318      1.0  0.31264  0.69248  0.69490  1.0000
  H   H2474     1.0  0.10517  0.89018  0.53092  1.0000
  C   C1394     1.0  0.35554  0.74884  0.71553  1.0000
  C   C1395     1.0  0.33431  0.76683  0.71857  1.0000
  C   C1396     1.0  0.24309  0.91655  0.49515  1.0000
  H   H2475     1.0  0.45749  0.93717  0.54345  1.0000
  C   C1397     1.0  0.38037  0.66767  0.67524  1.0000
  C   C1398     1.0  0.22797  0.67649  0.71358  1.0000
  C   C1399     1.0  0.01368  0.87514  0.67048  1.0000
  H   H2476     1.0  0.02443  0.94468  0.60584  1.0000
  S   S319      1.0  0.18880  0.91518  0.58121  1.0000
  H   H2477     1.0  0.14120  0.73351  0.48433  1.0000
  C   C1400     1.0  0.23839  0.66481  0.70172  1.0000
  H   H2478     1.0  0.38011  0.65879  0.65501  1.0000
  H   H2479     1.0  0.25489  0.66981  0.69433  1.0000
  C   C1401     1.0  0.38072  0.69528  0.67010  1.0000
  C   C1402     1.0  0.48791  0.65343  0.72419  1.0000
  C   C1403     1.0  0.01574  0.86951  0.51741  1.0000
  Fe  Fe159     1.0  0.21634  0.89940  0.59604  1.0000
  H   H2480     1.0  0.12956  0.77972  0.68400  1.0000
  H   H2481     1.0  0.29924  0.89560  0.53344  1.0000
  H   H2482     1.0  0.43077  0.97783  0.52188  1.0000
  H   H2483     1.0  0.19747  0.78236  0.71008  1.0000
  C   C1404     1.0  0.27284  0.84167  0.48247  1.0000
  H   H2484     1.0  0.15947  0.75458  0.66801  1.0000
  H   H2485     1.0  0.24280  0.71652  0.51798  1.0000
  C   C1405     1.0  0.25954  0.92756  0.60383  1.0000
  H   H2486     1.0  0.21984  0.75362  0.71263  1.0000
  C   C1406     1.0  0.21026  0.81570  0.64030  1.0000
  C   C1407     1.0  0.21994  0.79123  0.64623  1.0000
  C   C1408     1.0  0.23662  0.78622  0.65573  1.0000
  C   C1409     1.0  0.24322  0.80559  0.65968  1.0000
  C   C1410     1.0  0.23287  0.83010  0.65412  1.0000
  C   C1411     1.0  0.21679  0.83519  0.64422  1.0000
  H   H2487     1.0  0.21500  0.77612  0.64318  1.0000
  H   H2488     1.0  0.24479  0.76741  0.65977  1.0000
  H   H2489     1.0  0.23755  0.84516  0.65734  1.0000
  H   H2490     1.0  0.20919  0.85413  0.63979  1.0000
  H   H2491     1.0  0.40010  0.69847  0.66724  1.0000
  Fe  Fe160     1.0  0.13398  0.83566  0.48789  1.0000
  S   S320      1.0  0.05752  0.92837  0.66771  1.0000
  H   H2492     1.0  0.43526  0.94508  0.52276  1.0000
  S   S321      1.0  0.36844  0.98483  0.66278  1.0000
  H   H2493     1.0  0.44214  0.69878  0.72392  1.0000
  H   H2494     1.0  0.34599  0.96003  0.54458  1.0000
  C   C1412     1.0  0.08583  0.95210  0.62522  1.0000
  C   C1413     1.0  0.39568  0.91110  0.51473  1.0000
  H   H2495     1.0  0.47174  0.95613  0.52728  1.0000
  H   H2496     1.0  0.22520  0.69734  0.48482  1.0000
  C   C1414     1.0  0.24708  0.81245  0.49749  1.0000
  H   H2497     1.0  0.31767  0.76715  0.71478  1.0000
  C   C1415     1.0  0.39307  0.65319  0.66281  1.0000
  C   C1416     1.0  0.28860  0.83480  0.49257  1.0000
  C   C1417     1.0  0.28463  0.81551  0.50446  1.0000
  C   C1418     1.0  0.26396  0.80440  0.50693  1.0000
  H   H2498     1.0  0.01145  0.88017  0.61703  1.0000
  S   S322      1.0  0.19850  0.86081  0.55911  1.0000
  H   H2499     1.0  0.29705  0.80981  0.51215  1.0000
  H   H2500     1.0  0.26062  0.79020  0.51647  1.0000
  C   C1419     1.0  0.04754  0.89381  0.62422  1.0000
  H   H2501     1.0  0.33430  0.89674  0.51219  1.0000
  C   C1420     1.0  0.16552  0.89739  0.51842  1.0000
  C   C1421     1.0  0.15875  0.90934  0.53038  1.0000
  C   C1422     1.0  0.16906  0.89878  0.54296  1.0000
  C   C1423     1.0  0.18357  0.87569  0.51881  1.0000
  H   H2502     1.0  0.14484  0.92620  0.53012  1.0000
  H   H2503     1.0  0.14020  0.72701  0.68791  1.0000
  H   H2504     1.0  0.37283  0.83225  0.70812  1.0000
  H   H2505     1.0  0.28847  0.92860  0.52786  1.0000
  H   H2506     1.0  0.20200  0.70578  0.68988  1.0000
  C   C1424     1.0  0.37778  0.96067  0.47979  1.0000
  H   H2507     1.0  0.37044  0.70533  0.67895  1.0000
  C   C1425     1.0  0.45499  0.95550  0.53605  1.0000
  H   H2508     1.0  0.06579  0.85853  0.51729  1.0000
  H   H2509     1.0  0.24534  0.94125  0.51805  1.0000
  H   H2510     1.0  0.46565  0.69611  0.70838  1.0000
  H   H2511     1.0  0.45675  0.87748  0.69912  1.0000
  H   H2512     1.0  0.34517  0.87320  0.70945  1.0000
  H   H2513     1.0  0.10271  0.98271  0.66877  1.0000
  H   H2514     1.0  0.37460  0.96864  0.56616  1.0000
  H   H2515     1.0  0.17820  0.73345  0.49377  1.0000
  H   H2516     1.0  0.23591  0.95305  0.66230  1.0000
  C   C1426     1.0  0.32431  0.66292  0.65205  1.0000
  C   C1427     1.0  0.15514  0.79718  0.59570  1.0000
  H   H2517     1.0  0.43211  0.75814  0.69487  1.0000
  C   C1428     1.0  0.02880  0.85485  0.53013  1.0000
  C   C1429     1.0  0.14808  0.80606  0.66792  1.0000
  H   H2518     1.0  0.23182  0.93391  0.49846  1.0000
  C   C1430     1.0  0.07055  0.95069  0.63906  1.0000
  H   H2519     1.0  0.37954  0.90584  0.70628  1.0000
  H   H2520     1.0  0.16546  0.69138  0.70376  1.0000
  C   C1431     1.0  0.14979  0.73078  0.69580  1.0000
  C   C1432     1.0  0.14863  0.78376  0.68050  1.0000
  H   H2521     1.0  0.38840  0.93423  0.67071  1.0000
  H   H2522     1.0  0.33518  0.87294  0.69309  1.0000
  H   H2523     1.0  0.01059  0.91082  0.60744  1.0000
  H   H2524     1.0  0.46336  0.96188  0.70245  1.0000
  H   H2525     1.0  0.19256  0.95162  0.60251  1.0000
  H   H2526     1.0  0.05300  0.80406  0.49609  1.0000
  H   H2527     1.0  0.34530  0.93778  0.67537  1.0000
  H   H2528     1.0  0.26162  0.84805  0.52216  1.0000
  C   C1433     1.0  0.20964  0.72402  0.66729  1.0000
  H   H2529     1.0  0.24004  0.89204  0.48155  1.0000
  H   H2530     1.0  0.28224  0.92288  0.50472  1.0000
  S   S323      1.0  0.41673  0.89523  0.72264  1.0000
  H   H2531     1.0  0.19950  0.73237  0.65819  1.0000
  H   H2532     1.0  0.28209  0.83870  0.55015  1.0000
  H   H2533     1.0  0.41045  0.93956  0.54817  1.0000
  C   C1434     1.0  0.25682  0.93124  0.62873  1.0000
  H   H2534     1.0  0.00806  0.66655  0.71972  1.0000
  H   H2535     1.0  0.22064  0.73718  0.66801  1.0000
  H   H2536     1.0  0.29073  0.85484  0.52342  1.0000
  C   C1435     1.0  0.22954  0.90937  0.48527  1.0000
  H   H2537     1.0  0.13660  0.74553  0.70107  1.0000
  H   H2538     1.0  0.09639  0.89986  0.59438  1.0000
  C   C1436     1.0  0.17644  0.96656  0.60516  1.0000
  H   H2539     1.0  0.08863  0.87699  0.54839  1.0000
  H   H2540     1.0  0.45451  0.91338  0.67443  1.0000
  H   H2541     1.0  0.37970  0.91776  0.50900  1.0000
  C   C1437     1.0  0.36530  0.91619  0.69970  1.0000
  H   H2542     1.0  0.39311  0.73426  0.71868  1.0000
  H   H2543     1.0  0.22207  0.75020  0.68713  1.0000
  H   H2544     1.0  0.23590  0.90968  0.62223  1.0000
  H   H2545     1.0  0.05052  0.87340  0.62499  1.0000
  C   C1438     1.0  0.00593  0.89981  0.61848  1.0000
  H   H2546     1.0  0.13001  0.68250  0.72301  1.0000
  H   H2547     1.0  0.23692  0.74992  0.51561  1.0000
  H   H2548     1.0  0.00792  0.85750  0.70779  1.0000
  H   H2549     1.0  0.16126  0.77678  0.59696  1.0000
  C   C1439     1.0  0.45924  0.70580  0.71772  1.0000
  C   C1440     1.0  0.28478  0.95233  0.60938  1.0000
  H   H2550     1.0  0.32356  0.92969  0.50677  1.0000
  H   H2551     1.0  0.36343  0.83194  0.69146  1.0000
  C   C1441     1.0  0.47313  0.94095  0.72273  1.0000
  H   H2552     1.0  0.21060  0.90664  0.49110  1.0000
  C   C1442     1.0  0.03625  0.69970  0.72704  1.0000
  H   H2553     1.0  0.11580  0.88965  0.54719  1.0000
  H   H2554     1.0  0.29445  0.89086  0.50831  1.0000
  C   C1443     1.0  0.27199  0.83416  0.54286  1.0000
  H   H2555     1.0  0.06559  0.83594  0.53396  1.0000
  H   H2556     1.0  0.41441  0.91490  0.69098  1.0000
  H   H2557     1.0  0.26445  0.88252  0.54162  1.0000
  H   H2558     1.0  0.23884  0.69182  0.67187  1.0000
  C   C1444     1.0  0.18642  0.87650  0.54343  1.0000
  H   H2559     1.0  0.22870  0.78018  0.69971  1.0000
  H   H2560     1.0  0.02841  0.90594  0.65621  1.0000
  H   H2561     1.0  0.34658  0.66164  0.63067  1.0000
  H   H2562     1.0  0.44134  0.90979  0.65990  1.0000
  H   H2563     1.0  0.37767  0.94171  0.71779  1.0000
  S   S324      1.0  0.41872  0.82847  0.72353  1.0000
  C   C1445     1.0  0.20337  0.97089  0.65256  1.0000
  S   S325      1.0  0.28231  0.95926  0.63709  1.0000
  H   H2564     1.0  0.02041  0.85835  0.50876  1.0000
  C   C1446     1.0  0.22765  0.70074  0.66332  1.0000
  H   H2565     1.0  0.05516  0.96566  0.64128  1.0000
  H   H2566     1.0  0.16638  0.80415  0.60133  1.0000
  H   H2567     1.0  0.02514  0.88553  0.51252  1.0000
  H   H2568     1.0  0.15351  0.78929  0.68958  1.0000
  H   H2569     1.0  0.36834  0.93822  0.55346  1.0000
  H   H2570     1.0  0.08602  0.87148  0.60380  1.0000
  H   H2571     1.0  0.21633  0.72529  0.49947  1.0000
  S   S326      1.0  0.22067  0.86056  0.59294  1.0000
  C   C1447     1.0  0.25221  0.83027  0.48487  1.0000
  H   H2572     1.0  0.22029  0.95214  0.55569  1.0000
  C   C1448     1.0  0.45101  0.73386  0.71166  1.0000
  H   H2573     1.0  0.09789  0.88876  0.61327  1.0000
  C   C1449     1.0  0.16732  0.76082  0.67579  1.0000
  H   H2574     1.0  0.47890  0.84056  0.71415  1.0000
  H   H2575     1.0  0.39840  0.89062  0.51797  1.0000
  S   S327      1.0  0.31188  0.85115  0.49179  1.0000
  H   H2576     1.0  0.38950  0.66117  0.68481  1.0000
  C   C1450     1.0  0.18068  0.73209  0.48222  1.0000
  H   H2577     1.0  0.37165  0.70297  0.66052  1.0000
  C   C1451     1.0  0.07557  0.93020  0.65005  1.0000
  C   C1452     1.0  0.43896  0.91215  0.72271  1.0000
  C   C1453     1.0  0.38510  0.95128  0.52405  1.0000
  N   N80       1.0  0.17248  0.94798  0.64734  1.0000
  C   C1454     1.0  0.16888  0.92180  0.64904  1.0000
  C   C1455     1.0  0.18124  0.95800  0.63143  1.0000
  C   C1456     1.0  0.19309  0.94678  0.65522  1.0000
  C   C1457     1.0  0.14942  0.96488  0.65365  1.0000
  C   C1458     1.0  0.12387  0.95978  0.65298  1.0000
  C   C1459     1.0  0.16497  0.90686  0.66486  1.0000
  H   H2578     1.0  0.01296  0.85570  0.67055  1.0000
  H   H2579     1.0  0.16324  0.96844  0.59788  1.0000
  H   H2580     1.0  0.28556  0.94704  0.58786  1.0000
  H   H2581     1.0  0.40812  0.97095  0.54850  1.0000
  C   C1460     1.0  0.15682  0.88263  0.66566  1.0000
  C   C1461     1.0  0.37696  0.74855  0.72062  1.0000
  H   H2582     1.0  0.18548  0.91100  0.64290  1.0000
  H   H2583     1.0  0.15311  0.92129  0.64417  1.0000
  H   H2584     1.0  0.20327  0.95446  0.54165  1.0000
  H   H2585     1.0  0.19936  0.94643  0.62735  1.0000
  H   H2586     1.0  0.20914  0.93192  0.65226  1.0000
  H   H2587     1.0  0.18678  0.94151  0.66718  1.0000
  H   H2588     1.0  0.14878  0.96418  0.66537  1.0000
  C   C1462     1.0  0.01273  0.95057  0.61579  1.0000
  H   H2589     1.0  0.12029  0.94227  0.66045  1.0000
  H   H2590     1.0  0.08214  0.96818  0.61680  1.0000
  H   H2591     1.0  0.18269  0.90182  0.66895  1.0000
  H   H2592     1.0  0.15088  0.91773  0.67227  1.0000
  H   H2593     1.0  0.15969  0.71089  0.71690  1.0000
  S   S328      1.0  0.00284  0.96563  0.69238  1.0000
  H   H2594     1.0  0.15670  0.94297  0.62240  1.0000
  H   H2595     1.0  0.99912  0.93600  0.63807  1.0000
  H   H2596     1.0  0.12282  0.95811  0.64199  1.0000
  C   C1463     1.0  0.27429  0.94681  0.62413  1.0000
  N   N81       1.0  0.38395  0.96503  0.53586  1.0000
  C   C1464     1.0  0.15256  0.70730  0.70797  1.0000
  H   H2597     1.0  0.30136  0.65857  0.67341  1.0000
  H   H2598     1.0  0.00995  0.98091  0.62689  1.0000
  H   H2599     1.0  0.17072  0.87112  0.65847  1.0000
  H   H2600     1.0  0.15497  0.87196  0.67699  1.0000
  H   H2601     1.0  0.13856  0.88644  0.66233  1.0000
  H   H2602     1.0  0.00580  0.66440  0.70201  1.0000
  H   H2603     1.0  0.14360  0.80151  0.65836  1.0000
  C   C1465     1.0  0.43205  0.95959  0.52933  1.0000
  H   H2604     1.0  0.39592  0.90517  0.66557  1.0000
  Fe  Fe161     1.0  0.19100  0.87603  0.57957  1.0000
  C   C1466     1.0  0.10612  0.93305  0.62227  1.0000
  H   H2605     1.0  0.32262  0.91223  0.64983  1.0000
  H   H2606     1.0  0.41269  0.91593  0.50709  1.0000
  H   H2607     1.0  0.26120  0.92043  0.48856  1.0000
  C   C1467     1.0  0.44297  0.93230  0.71138  1.0000
  H   H2608     1.0  0.09947  0.89503  0.65552  1.0000
  C   C1468     1.0  0.06057  0.90525  0.60893  1.0000
  H   H2609     1.0  0.42258  0.88698  0.68378  1.0000
  C   C1469     1.0  0.46759  0.86126  0.69433  1.0000
  C   C1470     1.0  0.16343  0.96030  0.62102  1.0000
  H   H2610     1.0  0.47384  0.65661  0.71731  1.0000
  H   H2611     1.0  0.03935  0.97320  0.61506  1.0000
  S   S329      1.0  0.32869  0.69272  0.65187  1.0000
  H   H2612     1.0  0.06252  0.92434  0.60885  1.0000
  C   C1471     1.0  0.22643  0.73888  0.49140  1.0000
  H   H2613     1.0  0.43637  0.74233  0.71996  1.0000
  C   C1472     1.0  0.32211  0.91848  0.65999  1.0000
  C   C1473     1.0  0.09580  0.91104  0.64708  1.0000
  C   C1474     1.0  0.35767  0.83906  0.70176  1.0000
  N   N82       1.0  0.30816  0.81277  0.61995  1.0000
  C   C1475     1.0  0.31101  0.82800  0.60475  1.0000
  C   C1476     1.0  0.33352  0.80357  0.62391  1.0000
  C   C1477     1.0  0.29594  0.79152  0.62039  1.0000
  C   C1478     1.0  0.29206  0.82801  0.63081  1.0000
  C   C1479     1.0  0.29990  0.85260  0.63064  1.0000
  C   C1480     1.0  0.28646  0.84151  0.59945  1.0000
  C   C1481     1.0  0.29692  0.77042  0.63401  1.0000
  C   C1482     1.0  0.35216  0.78593  0.61449  1.0000
  C   C1483     1.0  0.37536  0.77432  0.62109  1.0000
  C   C1484     1.0  0.28184  0.86668  0.64178  1.0000
  C   C1485     1.0  0.29182  0.85625  0.58395  1.0000
  C   C1486     1.0  0.28362  0.75033  0.63326  1.0000
  H   H2614     1.0  0.32138  0.81603  0.59678  1.0000
  H   H2615     1.0  0.32266  0.84198  0.60352  1.0000
  H   H2616     1.0  0.34272  0.81935  0.62290  1.0000
  H   H2617     1.0  0.33185  0.79441  0.63560  1.0000
  H   H2618     1.0  0.30404  0.78295  0.61063  1.0000
  H   H2619     1.0  0.27591  0.79844  0.61981  1.0000
  H   H2620     1.0  0.27235  0.83248  0.62942  1.0000
  H   H2621     1.0  0.29174  0.81702  0.64203  1.0000
  H   H2622     1.0  0.30020  0.86513  0.61988  1.0000
  H   H2623     1.0  0.31856  0.84896  0.63344  1.0000
  H   H2624     1.0  0.27506  0.82802  0.59947  1.0000
  H   H2625     1.0  0.27519  0.85476  0.60643  1.0000
  H   H2626     1.0  0.28805  0.77769  0.64407  1.0000
  H   H2627     1.0  0.31628  0.76120  0.63500  1.0000
  H   H2628     1.0  0.34405  0.77061  0.61344  1.0000
  H   H2629     1.0  0.35818  0.79638  0.60340  1.0000
  H   H2630     1.0  0.37038  0.76275  0.63200  1.0000
  H   H2631     1.0  0.38867  0.76226  0.61399  1.0000
  H   H2632     1.0  0.38464  0.78890  0.62209  1.0000
  H   H2633     1.0  0.28087  0.85511  0.65288  1.0000
  H   H2634     1.0  0.28825  0.88379  0.64171  1.0000
  H   H2635     1.0  0.26301  0.87209  0.63902  1.0000
  H   H2636     1.0  0.30223  0.87085  0.58353  1.0000
  H   H2637     1.0  0.30266  0.84387  0.57634  1.0000
  H   H2638     1.0  0.27407  0.86551  0.58028  1.0000
  H   H2639     1.0  0.29308  0.74145  0.62378  1.0000
  H   H2640     1.0  0.28406  0.73580  0.64325  1.0000
  H   H2641     1.0  0.26392  0.75820  0.63237  1.0000
  N   N83       1.0  0.36953  0.90654  0.68584  1.0000
  H   H2642     1.0  0.25996  0.87966  0.50383  1.0000
  H   H2643     1.0  0.22925  0.88914  0.51316  1.0000
  C   C1487     1.0  0.39099  0.92262  0.52818  1.0000
  C   C1488     1.0  0.37378  0.87862  0.68959  1.0000
  C   C1489     1.0  0.35116  0.86734  0.69877  1.0000
  C   C1490     1.0  0.34664  0.90754  0.66527  1.0000
  C   C1491     1.0  0.40820  0.95838  0.54123  1.0000
  C   C1492     1.0  0.36464  0.94428  0.69785  1.0000
  C   C1493     1.0  0.28294  0.90631  0.51364  1.0000
  H   H2644     1.0  0.43267  0.93708  0.70265  1.0000
  C   C1494     1.0  0.24718  0.89536  0.50843  1.0000
  H   H2645     1.0  0.20808  0.84871  0.53128  1.0000
  C   C1495     1.0  0.25709  0.87947  0.53264  1.0000
  H   H2646     1.0  0.32965  0.91478  0.68697  1.0000
  H   H2647     1.0  0.23763  0.87729  0.53743  1.0000
  H   H2648     1.0  0.40773  0.91581  0.53318  1.0000
  H   H2649     1.0  0.24062  0.70576  0.65295  1.0000
  H   H2650     1.0  0.21543  0.75723  0.49345  1.0000
  H   H2651     1.0  0.38045  0.87056  0.67958  1.0000
  H   H2652     1.0  0.38901  0.87129  0.69591  1.0000
  H   H2653     1.0  0.47574  0.86767  0.68276  1.0000
  C   C1496     1.0  0.25216  0.73565  0.49553  1.0000
  S   S330      1.0  0.25086  0.91598  0.59076  1.0000
  H   H2654     1.0  0.34879  0.88711  0.66752  1.0000
  C   C1497     1.0  0.24931  0.92173  0.61861  1.0000
  H   H2655     1.0  0.26827  0.73259  0.51434  1.0000
  H   H2656     1.0  0.18429  0.76746  0.66921  1.0000
  H   H2657     1.0  0.26092  0.75185  0.48991  1.0000
  H   H2658     1.0  0.18509  0.71225  0.48145  1.0000
  N   N84       1.0  0.25711  0.90137  0.52016  1.0000
  C   C1498     1.0  0.20554  0.76179  0.69250  1.0000
  C   C1499     1.0  0.10731  0.87921  0.54191  1.0000
  S   S331      1.0  0.07613  0.66391  0.71934  1.0000
  H   H2659     1.0  0.46661  0.74393  0.70912  1.0000
  H   H2660     1.0  0.26504  0.97731  0.68032  1.0000
  S   S332      1.0  0.35295  0.96386  0.62940  1.0000
  H   H2661     1.0  0.30631  0.91237  0.66828  1.0000
  H   H2662     1.0  0.16636  0.81194  0.66466  1.0000
  S   S333      1.0  0.15988  0.86921  0.59844  1.0000
  C   C1500     1.0  0.44048  0.73822  0.69784  1.0000
  N   N85       1.0  0.14421  0.81291  0.55557  1.0000
  C   C1501     1.0  0.12941  0.83897  0.55540  1.0000
  C   C1502     1.0  0.14378  0.80009  0.57124  1.0000
  C   C1503     1.0  0.17036  0.81428  0.54755  1.0000
  C   C1504     1.0  0.13345  0.79846  0.54816  1.0000
  C   C1505     1.0  0.10558  0.79735  0.55391  1.0000
  C   C1506     1.0  0.12383  0.85395  0.54046  1.0000
  C   C1507     1.0  0.18885  0.78918  0.54731  1.0000
  C   C1508     1.0  0.15890  0.80951  0.57964  1.0000
  H   H2663     1.0  0.37504  0.91577  0.53595  1.0000
  C   C1509     1.0  0.09633  0.78413  0.54473  1.0000
  H   H2664     1.0  0.25523  0.92333  0.54448  1.0000
  C   C1510     1.0  0.21566  0.79309  0.54235  1.0000
  H   H2665     1.0  0.13943  0.85018  0.55923  1.0000
  H   H2666     1.0  0.11141  0.83899  0.56322  1.0000
  H   H2667     1.0  0.12431  0.80207  0.57742  1.0000
  H   H2668     1.0  0.15043  0.77975  0.57213  1.0000
  H   H2669     1.0  0.17821  0.82631  0.55205  1.0000
  H   H2670     1.0  0.17052  0.82340  0.53597  1.0000
  H   H2671     1.0  0.13635  0.80571  0.53621  1.0000
  H   H2672     1.0  0.14369  0.77891  0.54929  1.0000
  H   H2673     1.0  0.09381  0.81609  0.55357  1.0000
  H   H2674     1.0  0.10271  0.78703  0.56530  1.0000
  H   H2675     1.0  0.14132  0.85722  0.53295  1.0000
  H   H2676     1.0  0.11414  0.84433  0.53541  1.0000
  H   H2677     1.0  0.18504  0.77945  0.53957  1.0000
  H   H2678     1.0  0.18764  0.77685  0.55813  1.0000
  H   H2679     1.0  0.17911  0.80527  0.57513  1.0000
  H   H2680     1.0  0.15326  0.82980  0.57904  1.0000
  H   H2681     1.0  0.01982  0.83920  0.53648  1.0000
  H   H2682     1.0  0.33412  0.91757  0.52376  1.0000
  H   H2683     1.0  0.36714  0.95613  0.52023  1.0000
  H   H2684     1.0  0.07633  0.78360  0.54897  1.0000
  H   H2685     1.0  0.09843  0.79410  0.53321  1.0000
  H   H2686     1.0  0.10687  0.76481  0.54513  1.0000
  H   H2687     1.0  0.99661  0.90677  0.52978  1.0000
  C   C1511     1.0  0.02639  0.88732  0.65555  1.0000
  C   C1512     1.0  0.24978  0.73354  0.51188  1.0000
  H   H2688     1.0  0.22080  0.80160  0.55021  1.0000
  H   H2689     1.0  0.22848  0.77505  0.54156  1.0000
  H   H2690     1.0  0.21803  0.80538  0.53151  1.0000
  C   C1513     1.0  0.33649  0.96507  0.57279  1.0000
  H   H2691     1.0  0.21733  0.68729  0.66195  1.0000
  C   C1514     1.0  0.27131  0.85407  0.52905  1.0000
  C   C1515     1.0  0.32399  0.91393  0.51617  1.0000
  C   C1516     1.0  0.36357  0.95814  0.54843  1.0000
  H   H2692     1.0  0.25281  0.83247  0.54872  1.0000
  C   C1517     1.0  0.23708  0.92612  0.54125  1.0000
  H   H2693     1.0  0.28171  0.81602  0.53992  1.0000
  H   H2694     1.0  0.22049  0.92473  0.52390  1.0000
  H   H2695     1.0  0.45549  0.73306  0.68870  1.0000
  C   C1518     1.0  0.19110  0.71785  0.68170  1.0000
  H   H2696     1.0  0.18037  0.70560  0.67930  1.0000
  C   C1519     1.0  0.41653  0.90735  0.68110  1.0000
  C   C1520     1.0  0.34700  0.91735  0.67891  1.0000
  H   H2697     1.0  0.05719  0.82911  0.51870  1.0000
  S   S334      1.0  0.12461  0.93546  0.60475  1.0000
  H   H2698     1.0  0.02861  0.86745  0.53739  1.0000
  C   C1521     1.0  0.21325  0.76992  0.70452  1.0000
  H   H2699     1.0  0.19218  0.73010  0.70634  1.0000
  C   C1522     1.0  0.39201  0.91404  0.67520  1.0000
  H   H2700     1.0  0.38207  0.94945  0.69108  1.0000
  C   C1523     1.0  0.27749  0.94262  0.59927  1.0000
  H   H2701     1.0  0.31916  0.96948  0.56834  1.0000
  Fe  Fe162     1.0  0.01982  0.95378  0.67090  1.0000
  Fe  Fe163     1.0  0.16003  0.90727  0.60139  1.0000
  H   H2702     1.0  0.36179  0.91296  0.65623  1.0000
  H   H2703     1.0  0.34735  0.91264  0.70675  1.0000
  C   C1524     1.0  0.01608  0.93096  0.62988  1.0000
  H   H2704     1.0  0.16969  0.75769  0.70590  1.0000
  C   C1525     1.0  0.23986  0.92402  0.52512  1.0000
  H   H2705     1.0  0.13373  0.82186  0.67132  1.0000
  H   H2706     1.0  0.12671  0.89761  0.63101  1.0000
  N   N86       1.0  0.17366  0.73937  0.68788  1.0000
  C   C1526     1.0  0.18450  0.74678  0.69876  1.0000
  H   H2707     1.0  0.19990  0.77886  0.68466  1.0000
  H   H2708     1.0  0.39901  0.95713  0.51436  1.0000
  S   S335      1.0  0.44937  0.97422  0.48868  1.0000
  S   S336      1.0  0.18740  0.89483  0.61649  1.0000
  C   C1527     1.0  0.43735  0.91784  0.66982  1.0000
  H   H2709     1.0  0.43214  0.93831  0.66680  1.0000
  H   H2710     1.0  0.26497  0.71878  0.49247  1.0000
  H   H2711     1.0  0.05842  0.89669  0.63171  1.0000
  H   H2712     1.0  0.18475  0.97705  0.62979  1.0000
  H   H2713     1.0  0.34111  0.83152  0.70824  1.0000
  H   H2714     1.0  0.24942  0.92629  0.64017  1.0000
  C   C1528     1.0  0.07273  0.83419  0.48716  1.0000
  N   N87       1.0  0.02020  0.90403  0.62881  1.0000
  C   C1529     1.0  0.48797  0.84721  0.70283  1.0000
  H   H2715     1.0  0.05044  0.90569  0.60033  1.0000
  H   H2716     1.0  0.29836  0.96420  0.60575  1.0000
  H   H2717     1.0  0.34419  0.94714  0.71981  1.0000
  S   S337      1.0  0.48285  0.78376  0.72213  1.0000
  H   H2718     1.0  0.00434  0.70464  0.69607  1.0000
  H   H2719     1.0  0.00857  0.91234  0.49484  1.0000
  H   H2720     1.0  0.45472  0.84887  0.69482  1.0000
  C   C1530     1.0  0.01898  0.97507  0.61639  1.0000
  C   C1531     1.0  0.08677  0.89034  0.60490  1.0000
  C   C1532     1.0  0.05212  0.82272  0.48985  1.0000
  H   H2721     1.0  0.03147  0.93411  0.63417  1.0000
  H   H2722     1.0  0.31895  0.93904  0.65764  1.0000
  H   H2723     1.0  0.20956  0.96706  0.67456  1.0000
  H   H2724     1.0  0.45331  0.97029  0.54219  1.0000
  S   S338      1.0  0.19395  0.86303  0.47940  1.0000
  C   C1533     1.0  0.39911  0.98552  0.48827  1.0000
  H   H2725     1.0  0.34886  0.95545  0.69272  1.0000
  C   C1534     1.0  0.37719  0.98087  0.48594  1.0000
  H   H2726     1.0  0.41009  0.66040  0.65673  1.0000
  C   C1535     1.0  0.07137  0.85833  0.47912  1.0000
  H   H2727     1.0  0.04519  0.87577  0.65319  1.0000
  C   C1536     1.0  0.12753  0.69941  0.71448  1.0000
  C   C1537     1.0  0.99709  0.65999  0.71368  1.0000
  C   C1538     1.0  0.37745  0.76650  0.72836  1.0000
  C   C1539     1.0  0.22019  0.96906  0.66322  1.0000
  H   H2728     1.0  0.23180  0.96642  0.53730  1.0000
  C   C1540     1.0  0.36162  0.95160  0.71251  1.0000
  H   H2729     1.0  0.01485  0.82613  0.48627  1.0000
  C   C1541     1.0  0.03049  0.83519  0.48434  1.0000
  C   C1542     1.0  0.33453  0.78431  0.72671  1.0000
  C   C1543     1.0  0.20670  0.66982  0.72319  1.0000
  H   H2730     1.0  0.11400  0.71424  0.71948  1.0000
  H   H2731     1.0  0.21490  0.97417  0.64147  1.0000
  H   H2732     1.0  0.15003  0.98452  0.64833  1.0000
  H   H2733     1.0  0.36092  0.97182  0.71084  1.0000
  C   C1544     1.0  0.42186  0.96974  0.48475  1.0000
  N   N88       1.0  0.47859  0.69957  0.72714  1.0000
  H   H2734     1.0  0.02435  0.87511  0.67880  1.0000
  H   H2735     1.0  0.11983  0.69501  0.70601  1.0000
  C   C1545     1.0  0.01136  0.88924  0.64366  1.0000
  H   H2736     1.0  0.01130  0.86994  0.64288  1.0000
  C   C1546     1.0  0.35815  0.97261  0.56098  1.0000
  H   H2737     1.0  0.08455  0.97588  0.65777  1.0000
  Fe  Fe164     1.0  0.31283  0.98173  0.62960  1.0000
  S   S339      1.0  0.39073  0.98424  0.59078  1.0000
  H   H2738     1.0  0.99447  0.88544  0.67357  1.0000
  H   H2739     1.0  0.39937  0.98527  0.68271  1.0000
  H   H2740     1.0  0.33342  0.97545  0.58170  1.0000
  C   C1547     1.0  0.10266  0.98049  0.65764  1.0000
  H   H2741     1.0  0.99758  0.82959  0.51435  1.0000
  N   N89       1.0  0.08303  0.66282  0.78049  1.0000
  Fe  Fe165     1.0  0.45355  0.85976  0.86519  1.0000
  S   S340      1.0  0.41449  0.88098  0.86846  1.0000
  H   H2742     1.0  0.48808  0.82087  0.90712  1.0000
  Fe  Fe166     1.0  0.43513  0.81033  0.86963  1.0000
  S   S341      1.0  0.39532  0.82990  0.87332  1.0000
  S   S342      1.0  0.44040  0.76867  0.87151  1.0000
  Fe  Fe167     1.0  0.40817  0.85812  0.85414  1.0000
  S   S343      1.0  0.39022  0.87442  0.83446  1.0000
  Fe  Fe168     1.0  0.40751  0.84956  0.88707  1.0000
  S   S344      1.0  0.38608  0.85480  0.90937  1.0000
  S   S345      1.0  0.44770  0.83806  0.84995  1.0000
  S   S346      1.0  0.44691  0.82896  0.88438  1.0000
  C   C1548     1.0  0.00359  0.77803  0.90440  1.0000
  C   C1549     1.0  0.03973  0.72476  0.78890  1.0000
  H   H2743     1.0  0.02266  0.76938  0.90493  1.0000
  Fe  Fe169     1.0  0.32184  0.70965  0.89859  1.0000
  S   S347      1.0  0.33714  0.69206  0.91890  1.0000
  S   S348      1.0  0.33347  0.74275  0.88242  1.0000
  H   H2744     1.0  0.20492  0.79681  0.90707  1.0000
  Fe  Fe170     1.0  0.29698  0.69284  0.92972  1.0000
  S   S349      1.0  0.27936  0.70266  0.95181  1.0000
  H   H2745     1.0  0.48947  0.67335  0.87920  1.0000
  S   S350      1.0  0.28182  0.71324  0.90986  1.0000
  H   H2746     1.0  0.23368  0.89216  0.96594  1.0000
  C   C1550     1.0  0.42862  0.66234  0.89733  1.0000
  H   H2747     1.0  0.34889  0.80748  0.78014  1.0000
  H   H2748     1.0  0.18826  0.89051  0.95652  1.0000
  H   H2749     1.0  0.00007  0.71910  0.86869  1.0000
  C   C1551     1.0  0.04845  0.67507  0.73075  1.0000
  H   H2750     1.0  0.37364  0.81660  0.78524  1.0000
  C   C1552     1.0  0.14917  0.66769  0.75666  1.0000
  S   S351      1.0  0.23432  0.81480  0.95731  1.0000
  H   H2751     1.0  0.49034  0.65774  0.95076  1.0000
  H   H2752     1.0  0.99617  0.77879  0.93626  1.0000
  H   H2753     1.0  0.25013  0.78875  0.89654  1.0000
  H   H2754     1.0  0.19957  0.76953  0.95683  1.0000
  H   H2755     1.0  0.21668  0.76522  0.90492  1.0000
  H   H2756     1.0  0.99542  0.80868  0.74916  1.0000
  Fe  Fe171     1.0  0.02814  0.72594  0.92993  1.0000
  S   S352      1.0  0.02974  0.73024  0.95221  1.0000
  Fe  Fe172     1.0  0.08291  0.70163  0.92367  1.0000
  S   S353      1.0  0.08882  0.70313  0.94566  1.0000
  S   S354      1.0  0.11629  0.68951  0.90695  1.0000
  Fe  Fe173     1.0  0.05172  0.69135  0.95399  1.0000
  H   H2757     1.0  0.47912  0.91647  0.74295  1.0000
  Fe  Fe174     1.0  0.06644  0.74174  0.94194  1.0000
  S   S355      1.0  0.07829  0.77660  0.94322  1.0000
  S   S356      1.0  0.04802  0.68628  0.93229  1.0000
  S   S357      1.0  0.06272  0.74101  0.91936  1.0000
  S   S358      1.0  0.45080  0.81820  0.95833  1.0000
  S   S359      1.0  0.35585  0.80656  0.74163  1.0000
  H   H2758     1.0  0.41185  0.72834  0.82636  1.0000
  C   C1553     1.0  0.17031  0.76108  0.92221  1.0000
  C   C1554     1.0  0.44092  0.96726  0.82486  1.0000
  H   H2759     1.0  0.01644  0.86354  0.93113  1.0000
  H   H2760     1.0  0.02044  0.72934  0.79501  1.0000
  H   H2761     1.0  0.41025  0.91918  0.84225  1.0000
  S   S360      1.0  0.42297  0.78727  0.75351  1.0000
  C   C1555     1.0  0.21681  0.77916  0.91128  1.0000
  C   C1556     1.0  0.17281  0.75834  0.94744  1.0000
  C   C1557     1.0  0.20713  0.76962  0.92767  1.0000
  Fe  Fe175     1.0  0.42383  0.81863  0.76388  1.0000
  S   S361      1.0  0.43097  0.80680  0.78682  1.0000
  H   H2762     1.0  0.18661  0.81148  0.94439  1.0000
  H   H2763     1.0  0.17873  0.70010  0.93149  1.0000
  H   H2764     1.0  0.33595  0.84708  0.83964  1.0000
  S   S362      1.0  0.46523  0.74802  0.95308  1.0000
  C   C1558     1.0  0.36471  0.80074  0.78599  1.0000
  H   H2765     1.0  0.13662  0.76660  0.90365  1.0000
  H   H2766     1.0  0.45920  0.65373  0.95130  1.0000
  H   H2767     1.0  0.14656  0.67570  0.93544  1.0000
  H   H2768     1.0  0.20800  0.65461  0.83241  1.0000
  H   H2769     1.0  0.19683  0.82024  0.92526  1.0000
  C   C1559     1.0  0.41850  0.93544  0.84174  1.0000
  H   H2770     1.0  0.24421  0.79847  0.91371  1.0000
  Fe  Fe176     1.0  0.39259  0.81383  0.74331  1.0000
  H   H2771     1.0  0.14534  0.73410  0.91152  1.0000
  H   H2772     1.0  0.25061  0.69704  0.78794  1.0000
  H   H2773     1.0  0.00409  0.72778  0.73247  1.0000
  H   H2774     1.0  0.22990  0.76815  0.97768  1.0000
  C   C1560     1.0  0.18083  0.67535  0.85508  1.0000
  C   C1561     1.0  0.16626  0.66602  0.93338  1.0000
  H   H2775     1.0  0.01053  0.82551  0.86385  1.0000
  C   C1562     1.0  0.26235  0.92888  0.95261  1.0000
  Fe  Fe177     1.0  0.20343  0.82454  0.97607  1.0000
  H   H2776     1.0  0.14249  0.67821  0.74660  1.0000
  N   N90       1.0  0.24632  0.65736  0.83087  1.0000
  Fe  Fe178     1.0  0.33516  0.65636  0.91324  1.0000
  H   H2777     1.0  0.16771  0.78459  0.96177  1.0000
  N   N91       1.0  0.17921  0.77269  0.93216  1.0000
  H   H2778     1.0  0.25594  0.76615  0.91257  1.0000
  H   H2779     1.0  0.14785  0.80098  0.93842  1.0000
  H   H2780     1.0  0.05259  0.72905  0.79466  1.0000
  S   S363      1.0  0.24899  0.67044  0.89898  1.0000
  C   C1563     1.0  0.00245  0.69317  0.74754  1.0000
  H   H2781     1.0  0.46521  0.68409  0.95023  1.0000
  H   H2782     1.0  0.48645  0.87618  0.82880  1.0000
  H   H2783     1.0  0.13850  0.74506  0.93585  1.0000
  H   H2784     1.0  0.18127  0.74202  0.92180  1.0000
  H   H2785     1.0  0.02401  0.86348  0.96216  1.0000
  C   C1564     1.0  0.35895  0.72825  0.84259  1.0000
  H   H2786     1.0  0.15500  0.66373  0.88794  1.0000
  H   H2787     1.0  0.03083  0.82129  0.95665  1.0000
  H   H2788     1.0  0.49176  0.75455  0.78376  1.0000
  C   C1565     1.0  0.09199  0.77956  0.95719  1.0000
  C   C1566     1.0  0.10107  0.80121  0.95576  1.0000
  H   H2789     1.0  0.47602  0.90674  0.95645  1.0000
  H   H2790     1.0  0.02051  0.81265  0.75635  1.0000
  C   C1567     1.0  0.45225  0.90621  0.73401  1.0000
  H   H2791     1.0  0.09964  0.81556  0.94617  1.0000
  S   S364      1.0  0.16579  0.84314  0.97099  1.0000
  C   C1568     1.0  0.26591  0.73382  0.95289  1.0000
  C   C1569     1.0  0.27113  0.75316  0.94129  1.0000
  C   C1570     1.0  0.26136  0.77790  0.94280  1.0000
  C   C1571     1.0  0.24625  0.78349  0.95588  1.0000
  C   C1572     1.0  0.24124  0.76411  0.96752  1.0000
  C   C1573     1.0  0.25097  0.73939  0.96600  1.0000
  H   H2792     1.0  0.28311  0.74907  0.93126  1.0000
  H   H2793     1.0  0.26579  0.79280  0.93387  1.0000
  H   H2794     1.0  0.15822  0.74435  0.97719  1.0000
  S   S365      1.0  0.32243  0.67409  0.89202  1.0000
  C   C1574     1.0  0.09649  0.66698  0.80387  1.0000
  H   H2795     1.0  0.04095  0.73650  0.77784  1.0000
  C   C1575     1.0  0.12833  0.66965  0.76997  1.0000
  H   H2796     1.0  0.18124  0.73832  0.94782  1.0000
  H   H2797     1.0  0.13055  0.77749  0.92796  1.0000
  H   H2798     1.0  0.28207  0.68634  0.81154  1.0000
  C   C1576     1.0  0.48163  0.67249  0.73427  1.0000
  H   H2799     1.0  0.21486  0.77877  0.93408  1.0000
  C   C1577     1.0  0.40310  0.84266  0.92343  1.0000
  C   C1578     1.0  0.39606  0.85282  0.93601  1.0000
  C   C1579     1.0  0.41076  0.84514  0.94673  1.0000
  C   C1580     1.0  0.43204  0.82659  0.94518  1.0000
  C   C1581     1.0  0.43846  0.81552  0.93297  1.0000
  C   C1582     1.0  0.42402  0.82362  0.92210  1.0000
  H   H2800     1.0  0.37970  0.86724  0.93726  1.0000
  H   H2801     1.0  0.40566  0.85360  0.95622  1.0000
  H   H2802     1.0  0.45481  0.80105  0.93177  1.0000
  H   H2803     1.0  0.42887  0.81478  0.91286  1.0000
  C   C1583     1.0  0.41171  0.75962  0.87348  1.0000
  C   C1584     1.0  0.39252  0.77622  0.86749  1.0000
  C   C1585     1.0  0.36860  0.77098  0.87077  1.0000
  C   C1586     1.0  0.36387  0.74831  0.87927  1.0000
  C   C1587     1.0  0.38336  0.73081  0.88463  1.0000
  C   C1588     1.0  0.40733  0.73647  0.88170  1.0000
  H   H2804     1.0  0.39615  0.79309  0.86014  1.0000
  H   H2805     1.0  0.35365  0.78466  0.86671  1.0000
  H   H2806     1.0  0.37988  0.71312  0.89108  1.0000
  H   H2807     1.0  0.42224  0.72321  0.88611  1.0000
  C   C1589     1.0  0.40130  0.85599  0.82099  1.0000
  C   C1590     1.0  0.39629  0.86503  0.80690  1.0000
  C   C1591     1.0  0.40550  0.85035  0.79613  1.0000
  C   C1592     1.0  0.41998  0.82672  0.79944  1.0000
  C   C1593     1.0  0.42492  0.81781  0.81349  1.0000
  C   C1594     1.0  0.41527  0.83215  0.82427  1.0000
  H   H2808     1.0  0.38528  0.88336  0.80431  1.0000
  H   H2809     1.0  0.40139  0.85728  0.78533  1.0000
  H   H2810     1.0  0.43596  0.79951  0.81613  1.0000
  H   H2811     1.0  0.41828  0.82447  0.83520  1.0000
  H   H2812     1.0  0.20973  0.65770  0.88975  1.0000
  H   H2813     1.0  0.19073  0.73022  0.97254  1.0000
  C   C1595     1.0  0.45379  0.91917  0.87384  1.0000
  C   C1596     1.0  0.44862  0.94170  0.87863  1.0000
  H   H2814     1.0  0.44035  0.90734  0.87738  1.0000
  H   H2815     1.0  0.16188  0.80728  0.91991  1.0000
  C   C1597     1.0  0.18021  0.81787  0.93390  1.0000
  C   C1598     1.0  0.24341  0.78336  0.90841  1.0000
  C   C1599     1.0  0.16362  0.84345  0.93405  1.0000
  C   C1600     1.0  0.16623  0.79954  0.93097  1.0000
  S   S366      1.0  0.39122  0.84398  0.75517  1.0000
  H   H2816     1.0  0.11100  0.67716  0.79712  1.0000
  C   C1601     1.0  0.11754  0.66338  0.89969  1.0000
  C   C1602     1.0  0.18016  0.76691  0.95963  1.0000
  H   H2817     1.0  0.21610  0.74969  0.93022  1.0000
  H   H2818     1.0  0.17361  0.77164  0.91085  1.0000
  H   H2819     1.0  0.11445  0.75086  0.91697  1.0000
  H   H2820     1.0  0.24699  0.72451  0.97504  1.0000
  C   C1603     1.0  0.22248  0.95557  0.95988  1.0000
  C   C1604     1.0  0.14235  0.75947  0.92601  1.0000
  C   C1605     1.0  0.48168  0.87919  0.94298  1.0000
  C   C1606     1.0  0.44054  0.89501  0.91423  1.0000
  H   H2821     1.0  0.48706  0.88698  0.80949  1.0000
  C   C1607     1.0  0.42104  0.91828  0.91786  1.0000
  H   H2822     1.0  0.46646  0.73456  0.73464  1.0000
  C   C1608     1.0  0.39712  0.91992  0.91254  1.0000
  H   H2823     1.0  0.33232  0.68448  0.95880  1.0000
  H   H2824     1.0  0.29502  0.65733  0.85855  1.0000
  H   H2825     1.0  0.43193  0.87859  0.91952  1.0000
  H   H2826     1.0  0.44272  0.89612  0.90240  1.0000
  C   C1609     1.0  0.48893  0.94990  0.86576  1.0000
  H   H2827     1.0  0.42802  0.93558  0.91257  1.0000
  H   H2828     1.0  0.41601  0.91772  0.92975  1.0000
  H   H2829     1.0  0.15239  0.75942  0.95087  1.0000
  H   H2830     1.0  0.14035  0.96293  0.97363  1.0000
  C   C1610     1.0  0.13436  0.75233  0.91374  1.0000
  H   H2831     1.0  0.37481  0.73380  0.81953  1.0000
  H   H2832     1.0  0.38373  0.93700  0.91488  1.0000
  H   H2833     1.0  0.40096  0.92055  0.90063  1.0000
  H   H2834     1.0  0.38840  0.90371  0.91815  1.0000
  H   H2835     1.0  0.47945  0.91156  0.89711  1.0000
  Fe  Fe179     1.0  0.47469  0.78020  0.95902  1.0000
  C   C1611     1.0  0.34820  0.70587  0.84268  1.0000
  H   H2836     1.0  0.25867  0.68200  0.84063  1.0000
  H   H2837     1.0  0.17244  0.65827  0.94390  1.0000
  H   H2838     1.0  0.22996  0.67733  0.81219  1.0000
  H   H2839     1.0  0.17408  0.85620  0.93609  1.0000
  C   C1612     1.0  0.03777  0.65959  0.74299  1.0000
  H   H2840     1.0  0.03193  0.69401  0.78268  1.0000
  H   H2841     1.0  0.15768  0.85123  0.92343  1.0000
  C   C1613     1.0  0.47442  0.72645  0.76178  1.0000
  H   H2842     1.0  0.34034  0.75053  0.97560  1.0000
  N   N92       1.0  0.23823  0.93012  0.96351  1.0000
  H   H2843     1.0  0.18195  0.65844  0.86367  1.0000
  H   H2844     1.0  0.01527  0.69676  0.89110  1.0000
  H   H2845     1.0  0.99781  0.85268  0.74468  1.0000
  H   H2846     1.0  0.29688  0.90890  0.93020  1.0000
  H   H2847     1.0  0.08665  0.74450  0.97086  1.0000
  H   H2848     1.0  0.42031  0.95369  0.77838  1.0000
  H   H2849     1.0  0.46896  0.92959  0.81409  1.0000
  H   H2850     1.0  0.44419  0.88572  0.94037  1.0000
  C   C1614     1.0  0.00221  0.66100  0.96373  1.0000
  C   C1615     1.0  0.99438  0.80600  0.85253  1.0000
  H   H2851     1.0  0.45352  0.72885  0.83023  1.0000
  H   H2852     1.0  0.27065  0.88881  0.95223  1.0000
  H   H2853     1.0  0.17606  0.69415  0.91439  1.0000
  H   H2854     1.0  0.02571  0.73090  0.85746  1.0000
  C   C1616     1.0  0.03053  0.70740  0.88695  1.0000
  H   H2855     1.0  0.43108  0.92893  0.84976  1.0000
  C   C1617     1.0  0.20684  0.67871  0.84682  1.0000
  H   H2856     1.0  0.02570  0.77527  0.85215  1.0000
  C   C1618     1.0  0.45587  0.92317  0.82413  1.0000
  C   C1619     1.0  0.99805  0.80189  0.89616  1.0000
  H   H2857     1.0  0.12281  0.68947  0.77071  1.0000
  H   H2858     1.0  0.23790  0.69645  0.82167  1.0000
  H   H2859     1.0  0.34618  0.73838  0.85081  1.0000
  H   H2860     1.0  0.03616  0.74413  0.87671  1.0000
  H   H2861     1.0  0.48218  0.85893  0.94496  1.0000
  H   H2862     1.0  0.13633  0.65897  0.77959  1.0000
  H   H2863     1.0  0.08071  0.65766  0.91034  1.0000
  C   C1620     1.0  0.30304  0.66130  0.84676  1.0000
  H   H2864     1.0  0.46768  0.93028  0.91029  1.0000
  H   H2865     1.0  0.44073  0.89912  0.81467  1.0000
  S   S367      1.0  0.04334  0.66215  0.97398  1.0000
  H   H2866     1.0  0.38100  0.76305  0.97560  1.0000
  C   C1621     1.0  0.22034  0.65624  0.83945  1.0000
  H   H2867     1.0  0.20460  0.69612  0.83866  1.0000
  H   H2868     1.0  0.47184  0.86168  0.81923  1.0000
  H   H2869     1.0  0.44645  0.96327  0.84737  1.0000
  N   N93       1.0  0.46552  0.89155  0.91839  1.0000
  C   C1622     1.0  0.47853  0.91166  0.90872  1.0000
  H   H2870     1.0  0.41071  0.67489  0.90045  1.0000
  H   H2871     1.0  0.11869  0.82131  0.96558  1.0000
  H   H2872     1.0  0.20361  0.95635  0.96686  1.0000
  H   H2873     1.0  0.45098  0.68218  0.90327  1.0000
  H   H2874     1.0  0.23629  0.97562  0.97258  1.0000
  H   H2875     1.0  0.48755  0.68708  0.90262  1.0000
  H   H2876     1.0  0.27719  0.66382  0.80245  1.0000
  H   H2877     1.0  0.42454  0.98276  0.82511  1.0000
  S   S368      1.0  0.46055  0.98219  0.88377  1.0000
  C   C1623     1.0  0.32012  0.72456  0.97226  1.0000
  C   C1624     1.0  0.41103  0.95018  0.78999  1.0000
  Fe  Fe180     1.0  0.44914  0.80493  0.73481  1.0000
  H   H2878     1.0  0.47037  0.76237  0.79980  1.0000
  C   C1625     1.0  0.36202  0.74511  0.82725  1.0000
  H   H2879     1.0  0.33679  0.71897  0.96406  1.0000
  H   H2880     1.0  0.00489  0.75765  0.83856  1.0000
  C   C1626     1.0  0.43688  0.74112  0.83523  1.0000
  S   S369      1.0  0.48404  0.88229  0.85991  1.0000
  C   C1627     1.0  0.48488  0.86094  0.90061  1.0000
  H   H2881     1.0  0.25877  0.93564  0.94134  1.0000
  H   H2882     1.0  0.20028  0.89294  0.93733  1.0000
  H   H2883     1.0  0.49085  0.68384  0.92601  1.0000
  H   H2884     1.0  0.43052  0.73182  0.84658  1.0000
  C   C1628     1.0  0.02053  0.73395  0.87989  1.0000
  C   C1629     1.0  0.47572  0.87960  0.82000  1.0000
  H   H2885     1.0  0.44900  0.89085  0.74286  1.0000
  H   H2886     1.0  0.34370  0.74927  0.82386  1.0000
  S   S370      1.0  0.45231  0.83436  0.74578  1.0000
  C   C1630     1.0  0.01480  0.66861  0.75135  1.0000
  H   H2887     1.0  0.21879  0.87344  0.95013  1.0000
  H   H2888     1.0  0.49033  0.78950  0.74988  1.0000
  C   C1631     1.0  0.04603  0.69734  0.78796  1.0000
  C   C1632     1.0  0.01188  0.84748  0.93978  1.0000
  H   H2889     1.0  0.01288  0.81173  0.89054  1.0000
  H   H2890     1.0  0.25057  0.97939  0.95363  1.0000
  C   C1633     1.0  0.09369  0.76119  0.96966  1.0000
  H   H2891     1.0  0.28696  0.89780  0.96361  1.0000
  H   H2892     1.0  0.45884  0.88189  0.96438  1.0000
  H   H2893     1.0  0.00633  0.74264  0.88818  1.0000
  H   H2894     1.0  0.49022  0.85864  0.75617  1.0000
  N   N94       1.0  0.39915  0.75701  0.92566  1.0000
  C   C1634     1.0  0.40654  0.75980  0.93916  1.0000
  C   C1635     1.0  0.42102  0.75774  0.91304  1.0000
  C   C1636     1.0  0.37887  0.77891  0.92188  1.0000
  C   C1637     1.0  0.38898  0.73370  0.92802  1.0000
  C   C1638     1.0  0.40606  0.70907  0.93331  1.0000
  C   C1639     1.0  0.38585  0.76058  0.95292  1.0000
  C   C1640     1.0  0.37062  0.78128  0.90726  1.0000
  C   C1641     1.0  0.44744  0.74648  0.91645  1.0000
  C   C1642     1.0  0.46656  0.74337  0.90256  1.0000
  C   C1643     1.0  0.39272  0.68726  0.93678  1.0000
  C   C1644     1.0  0.39626  0.76154  0.96600  1.0000
  C   C1645     1.0  0.34997  0.80389  0.90472  1.0000
  H   H2895     1.0  0.41406  0.77705  0.93689  1.0000
  H   H2896     1.0  0.42190  0.74467  0.94228  1.0000
  H   H2897     1.0  0.41834  0.74875  0.90464  1.0000
  H   H2898     1.0  0.42200  0.77722  0.90742  1.0000
  H   H2899     1.0  0.38474  0.79655  0.92153  1.0000
  H   H2900     1.0  0.36177  0.77838  0.93037  1.0000
  H   H2901     1.0  0.37078  0.73498  0.93569  1.0000
  H   H2902     1.0  0.38482  0.73155  0.91773  1.0000
  H   H2903     1.0  0.41246  0.70931  0.94327  1.0000
  H   H2904     1.0  0.42221  0.70533  0.92452  1.0000
  H   H2905     1.0  0.37124  0.77742  0.95129  1.0000
  H   H2906     1.0  0.37737  0.74389  0.95572  1.0000
  H   H2907     1.0  0.36322  0.76491  0.90712  1.0000
  H   H2908     1.0  0.38630  0.78336  0.89794  1.0000
  H   H2909     1.0  0.45317  0.75909  0.92174  1.0000
  H   H2910     1.0  0.44846  0.72821  0.92381  1.0000
  C   C1646     1.0  0.07246  0.69025  0.77892  1.0000
  N   N95       1.0  0.43295  0.94294  0.82665  1.0000
  H   H2911     1.0  0.31603  0.83131  0.83454  1.0000
  H   H2912     1.0  0.38773  0.68472  0.92684  1.0000
  H   H2913     1.0  0.40515  0.67001  0.94103  1.0000
  H   H2914     1.0  0.37565  0.69019  0.94517  1.0000
  C   C1647     1.0  0.47965  0.86603  0.91627  1.0000
  H   H2915     1.0  0.10142  0.66654  0.75792  1.0000
  H   H2916     1.0  0.33052  0.76278  0.95009  1.0000
  H   H2917     1.0  0.34462  0.80517  0.89416  1.0000
  H   H2918     1.0  0.33331  0.80235  0.91347  1.0000
  H   H2919     1.0  0.35643  0.82113  0.90433  1.0000
  H   H2920     1.0  0.25532  0.71962  0.79704  1.0000
  H   H2921     1.0  0.44051  0.88949  0.83381  1.0000
  H   H2922     1.0  0.46121  0.73163  0.89654  1.0000
  H   H2923     1.0  0.01074  0.78117  0.86976  1.0000
  C   C1648     1.0  0.02547  0.81513  0.92453  1.0000
  C   C1649     1.0  0.04064  0.83092  0.91170  1.0000
  H   H2924     1.0  0.08491  0.70020  0.78164  1.0000
  H   H2925     1.0  0.16926  0.67382  0.84760  1.0000
  C   C1650     1.0  0.21667  0.91317  0.94791  1.0000
  H   H2926     1.0  0.43110  0.94706  0.88566  1.0000
  C   C1651     1.0  0.06313  0.81446  0.90410  1.0000
  C   C1652     1.0  0.32168  0.75076  0.97369  1.0000
  H   H2927     1.0  0.40744  0.92927  0.81824  1.0000
  C   C1653     1.0  0.11191  0.80450  0.96670  1.0000
  C   C1654     1.0  0.00711  0.77963  0.85920  1.0000
  C   C1655     1.0  0.46626  0.95697  0.87486  1.0000
  H   H2928     1.0  0.48679  0.69017  0.75701  1.0000
  C   C1656     1.0  0.18168  0.68553  0.92503  1.0000
  C   C1657     1.0  0.17748  0.74788  0.97382  1.0000
  H   H2929     1.0  0.03824  0.80260  0.93144  1.0000
  H   H2930     1.0  0.01907  0.80252  0.91969  1.0000
  H   H2931     1.0  0.04761  0.84463  0.91538  1.0000
  H   H2932     1.0  0.02906  0.84096  0.90348  1.0000
  H   H2933     1.0  0.39419  0.96486  0.79162  1.0000
  H   H2934     1.0  0.05143  0.83049  0.93995  1.0000
  C   C1658     1.0  0.99997  0.81616  0.75764  1.0000
  H   H2935     1.0  0.35454  0.67171  0.97066  1.0000
  H   H2936     1.0  0.42400  0.75473  0.81507  1.0000
  C   C1659     1.0  0.41637  0.94573  0.81594  1.0000
  H   H2937     1.0  0.38278  0.96142  0.84034  1.0000
  H   H2938     1.0  0.44227  0.75865  0.83546  1.0000
  C   C1660     1.0  0.45121  0.89767  0.82331  1.0000
  H   H2939     1.0  0.07584  0.80456  0.91175  1.0000
  H   H2940     1.0  0.05710  0.80064  0.89992  1.0000
  H   H2941     1.0  0.07351  0.82603  0.89480  1.0000
  C   C1661     1.0  0.04013  0.85679  0.95398  1.0000
  C   C1662     1.0  0.41635  0.74632  0.82640  1.0000
  H   H2942     1.0  0.39675  0.93965  0.87041  1.0000
  C   C1663     1.0  0.38356  0.94556  0.86275  1.0000
  H   H2943     1.0  0.19867  0.67881  0.73240  1.0000
  H   H2944     1.0  0.27334  0.94177  0.95399  1.0000
  N   N96       1.0  0.37065  0.76889  0.82608  1.0000
  C   C1664     1.0  0.34996  0.78601  0.83399  1.0000
  C   C1665     1.0  0.26351  0.70157  0.79359  1.0000
  C   C1666     1.0  0.39322  0.76416  0.83287  1.0000
  C   C1667     1.0  0.37731  0.78028  0.81022  1.0000
  C   C1668     1.0  0.35543  0.78988  0.80190  1.0000
  C   C1669     1.0  0.35474  0.81233  0.83302  1.0000
  H   H2945     1.0  0.29854  0.77269  0.95832  1.0000
  H   H2946     1.0  0.36070  0.69444  0.83498  1.0000
  H   H2947     1.0  0.32615  0.82023  0.85185  1.0000
  H   H2948     1.0  0.04521  0.69798  0.87907  1.0000
  C   C1670     1.0  0.33171  0.82864  0.84022  1.0000
  C   C1671     1.0  0.35616  0.78435  0.73149  1.0000
  H   H2949     1.0  0.34591  0.77783  0.84574  1.0000
  H   H2950     1.0  0.33224  0.78795  0.83028  1.0000
  C   C1672     1.0  0.24443  0.67844  0.81798  1.0000
  H   H2951     1.0  0.39101  0.76672  0.80423  1.0000
  H   H2952     1.0  0.38850  0.75714  0.84473  1.0000
  H   H2953     1.0  0.39951  0.78171  0.83185  1.0000
  H   H2954     1.0  0.38695  0.79581  0.80889  1.0000
  H   H2955     1.0  0.20180  0.67711  0.92311  1.0000
  H   H2956     1.0  0.34157  0.80477  0.80659  1.0000
  H   H2957     1.0  0.34601  0.77466  0.80214  1.0000
  H   H2958     1.0  0.36991  0.81136  0.83876  1.0000
  H   H2959     1.0  0.35980  0.82191  0.82161  1.0000
  C   C1673     1.0  0.46884  0.71433  0.73918  1.0000
  H   H2960     1.0  0.48502  0.73429  0.90525  1.0000
  C   C1674     1.0  0.01342  0.70880  0.73547  1.0000
  H   H2961     1.0  0.00627  0.65641  0.76062  1.0000
  H   H2962     1.0  0.39407  0.76624  0.73217  1.0000
  H   H2963     1.0  0.37532  0.92961  0.86273  1.0000
  H   H2964     1.0  0.20262  0.93019  0.94541  1.0000
  H   H2965     1.0  0.14691  0.84238  0.94281  1.0000
  H   H2966     1.0  0.11095  0.66325  0.82342  1.0000
  H   H2967     1.0  0.43783  0.65995  0.91801  1.0000
  H   H2968     1.0  0.37708  0.72108  0.84614  1.0000
  C   C1675     1.0  0.00902  0.82544  0.85260  1.0000
  H   H2969     1.0  0.37835  0.78653  0.78053  1.0000
  Fe  Fe181     1.0  0.28369  0.67574  0.90516  1.0000
  H   H2970     1.0  0.05805  0.66053  0.76707  1.0000
  C   C1676     1.0  0.22365  0.91138  0.96280  1.0000
  H   H2971     1.0  0.34618  0.69424  0.85378  1.0000
  H   H2972     1.0  0.46648  0.91954  0.83305  1.0000
  H   H2973     1.0  0.04414  0.68615  0.79915  1.0000
  C   C1677     1.0  0.23289  0.97769  0.96145  1.0000
  H   H2974     1.0  0.44997  0.71106  0.74498  1.0000
  H   H2975     1.0  0.41009  0.74445  0.96877  1.0000
  H   H2976     1.0  0.32955  0.71199  0.83970  1.0000
  H   H2977     1.0  0.47452  0.95578  0.83453  1.0000
  C   C1678     1.0  0.46099  0.89340  0.93423  1.0000
  C   C1679     1.0  0.47667  0.91154  0.86516  1.0000
  H   H2978     1.0  0.46742  0.86290  0.89672  1.0000
  C   C1680     1.0  0.30265  0.90411  0.94093  1.0000
  H   H2979     1.0  0.00695  0.79969  0.95243  1.0000
  C   C1681     1.0  0.20534  0.89113  0.94803  1.0000
  H   H2980     1.0  0.43476  0.96847  0.79638  1.0000
  C   C1682     1.0  0.27997  0.90328  0.95327  1.0000
  C   C1683     1.0  0.33544  0.67224  0.96932  1.0000
  H   H2981     1.0  0.07134  0.69856  0.76733  1.0000
  C   C1684     1.0  0.26862  0.68109  0.80667  1.0000
  C   C1685     1.0  0.39678  0.95548  0.84745  1.0000
  H   H2982     1.0  0.03871  0.70763  0.89632  1.0000
  H   H2983     1.0  0.45275  0.97172  0.81397  1.0000
  H   H2984     1.0  0.46815  0.76173  0.89547  1.0000
  H   H2985     1.0  0.20600  0.91296  0.97095  1.0000
  H   H2986     1.0  0.40525  0.77789  0.96369  1.0000
  H   H2987     1.0  0.31517  0.88564  0.94174  1.0000
  H   H2988     1.0  0.32206  0.78747  0.96029  1.0000
  H   H2989     1.0  0.31322  0.91792  0.94157  1.0000
  H   H2990     1.0  0.46438  0.66900  0.74225  1.0000
  H   H2991     1.0  0.45680  0.91322  0.93527  1.0000
  H   H2992     1.0  0.44552  0.93570  0.79723  1.0000
  H   H2993     1.0  0.99652  0.85103  0.76362  1.0000
  H   H2994     1.0  0.28119  0.70343  0.78574  1.0000
  H   H2995     1.0  0.40057  0.96157  0.81726  1.0000
  C   C1686     1.0  0.47287  0.66614  0.94660  1.0000
  H   H2996     1.0  0.08027  0.68087  0.80773  1.0000
  Fe  Fe182     1.0  0.41973  0.85672  0.73602  1.0000
  H   H2997     1.0  0.45615  0.72243  0.76808  1.0000
  C   C1687     1.0  0.42895  0.95024  0.79963  1.0000
  H   H2998     1.0  0.46040  0.67936  0.92637  1.0000
  H   H2999     1.0  0.23318  0.91327  0.93901  1.0000
  H   H3000     1.0  0.40537  0.93189  0.79249  1.0000
  H   H3001     1.0  0.30384  0.72635  0.96721  1.0000
  H   H3002     1.0  0.05635  0.84877  0.95942  1.0000
  C   C1688     1.0  0.03441  0.83700  0.94760  1.0000
  H   H3003     1.0  0.46937  0.85182  0.92358  1.0000
  H   H3004     1.0  0.02795  0.82180  0.84591  1.0000
  C   C1689     1.0  0.31807  0.76949  0.95970  1.0000
  H   H3005     1.0  0.40193  0.67330  0.96883  1.0000
  S   S371      1.0  0.29633  0.65528  0.92594  1.0000
  H   H3006     1.0  0.17158  0.69147  0.86035  1.0000
  H   H3007     1.0  0.21713  0.68099  0.85475  1.0000
  C   C1690     1.0  0.45620  0.96848  0.83603  1.0000
  H   H3008     1.0  0.30136  0.68163  0.84304  1.0000
  H   H3009     1.0  0.16476  0.67547  0.75780  1.0000
  C   C1691     1.0  0.00962  0.73497  0.86637  1.0000
  C   C1692     1.0  0.47804  0.67051  0.93001  1.0000
  H   H3010     1.0  0.43139  0.69969  0.96929  1.0000
  Fe  Fe183     1.0  0.47581  0.72657  0.97422  1.0000
  N   N97       1.0  0.00377  0.82922  0.93363  1.0000
  C   C1693     1.0  0.46916  0.92078  0.73409  1.0000
  C   C1694     1.0  0.44712  0.66320  0.90640  1.0000
  H   H3011     1.0  0.36837  0.96032  0.86668  1.0000
  C   C1695     1.0  0.10613  0.65889  0.76892  1.0000
  H   H3012     1.0  0.43590  0.66842  0.88558  1.0000
  H   H3013     1.0  0.16112  0.65450  0.91471  1.0000
  C   C1696     1.0  0.26139  0.66182  0.84076  1.0000
  H   H3014     1.0  0.40350  0.97201  0.84806  1.0000
  H   H3015     1.0  0.04477  0.87268  0.94526  1.0000
  H   H3016     1.0  0.21957  0.95954  0.94848  1.0000
  H   H3017     1.0  0.00584  0.67762  0.95603  1.0000
  C   C1697     1.0  0.13947  0.65432  0.89060  1.0000
  H   H3018     1.0  0.47184  0.74617  0.75623  1.0000
  H   H3019     1.0  0.49191  0.87638  0.96369  1.0000
  C   C1698     1.0  0.47671  0.88658  0.95778  1.0000
  H   H3020     1.0  0.99923  0.84410  0.84800  1.0000
  C   C1699     1.0  0.49029  0.75934  0.79448  1.0000
  H   H3021     1.0  0.29865  0.65501  0.82655  1.0000
  H   H3022     1.0  0.25978  0.93408  0.97849  1.0000
  C   C1700     1.0  0.48538  0.70943  0.75075  1.0000
  H   H3023     1.0  0.99626  0.85559  0.94778  1.0000
  C   C1701     1.0  0.40891  0.67156  0.97861  1.0000
  H   H3024     1.0  0.48724  0.72350  0.76943  1.0000
  H   H3025     1.0  0.49324  0.86523  0.72890  1.0000
  H   H3026     1.0  0.25462  0.65343  0.85228  1.0000
  H   H3027     1.0  0.31796  0.79800  0.72919  1.0000
  H   H3028     1.0  0.98688  0.01218  0.21783  1.0000
  C   C1702     1.0  0.83694  0.27876  0.99580  1.0000
  Fe  Fe184     1.0  0.68874  0.06237  0.01457  1.0000
  S   S372      1.0  0.64710  0.07153  0.01944  1.0000
  Fe  Fe185     1.0  0.65154  0.09958  0.99865  1.0000
  S   S373      1.0  0.62958  0.13867  0.99669  1.0000
  Fe  Fe186     1.0  0.64928  0.04416  0.00546  1.0000
  H   H3029     1.0  0.98431  0.20978  0.13780  1.0000
  H   H3030     1.0  0.58578  0.18069  0.05873  1.0000
  N   N98       1.0  0.67767  0.28457  0.19588  1.0000
  H   H3031     1.0  0.50118  0.23050  0.06641  1.0000
  S   S374      1.0  0.70800  0.10888  0.10186  1.0000
  C   C1703     1.0  0.92314  0.23036  0.17220  1.0000
  H   H3032     1.0  0.86679  0.17037  0.18312  1.0000
  H   H3033     1.0  0.64211  0.06832  0.14147  1.0000
  H   H3034     1.0  0.70941  0.26737  0.18176  1.0000
  H   H3035     1.0  0.81884  0.17830  0.14933  1.0000
  Fe  Fe187     1.0  0.68128  0.08979  0.11967  1.0000
  H   H3036     1.0  0.93692  0.14797  0.17637  1.0000
  H   H3037     1.0  0.90218  0.98826  0.20441  1.0000
  S   S375      1.0  0.53003  0.27515  0.09519  1.0000
  S   S376      1.0  0.53336  0.20863  0.09138  1.0000
  H   H3038     1.0  0.69335  0.20998  0.17776  1.0000
  S   S377      1.0  0.71083  0.05790  0.03196  1.0000
  C   C1704     1.0  0.69202  0.05592  0.16548  1.0000
  H   H3039     1.0  0.73257  0.10336  0.01047  1.0000
  H   H3040     1.0  0.97938  0.27119  0.09087  1.0000
  H   H3041     1.0  0.96983  0.22642  0.99272  1.0000
  C   C1705     1.0  0.92692  0.12172  0.19632  1.0000
  H   H3042     1.0  0.52812  0.27461  0.04389  1.0000
  H   H3043     1.0  0.67185  0.01603  0.04021  1.0000
  H   H3044     1.0  0.66810  0.99711  0.99337  1.0000
  H   H3045     1.0  0.85536  0.15157  0.16494  1.0000
  H   H3046     1.0  0.68755  0.23181  0.19783  1.0000
  H   H3047     1.0  0.70517  0.02100  0.15866  1.0000
  Fe  Fe188     1.0  0.64453  0.13773  0.12286  1.0000
  S   S378      1.0  0.66817  0.16054  0.10544  1.0000
  S   S379      1.0  0.60810  0.15728  0.13412  1.0000
  Fe  Fe189     1.0  0.67397  0.13006  0.09318  1.0000
  S   S380      1.0  0.66885  0.14092  0.06990  1.0000
  Fe  Fe190     1.0  0.69990  0.13753  0.11587  1.0000
  S   S381      1.0  0.73040  0.15602  0.11745  1.0000
  S   S382      1.0  0.64776  0.10880  0.10987  1.0000
  S   S383      1.0  0.67576  0.11676  0.13442  1.0000
  Fe  Fe191     1.0  0.79999  0.18280  0.20552  1.0000
  S   S384      1.0  0.76004  0.19946  0.20416  1.0000
  Fe  Fe192     1.0  0.69065  0.06394  0.98270  1.0000
  Fe  Fe193     1.0  0.81816  0.20406  0.17389  1.0000
  S   S385      1.0  0.77994  0.22171  0.16954  1.0000
  S   S386      1.0  0.85292  0.20778  0.15695  1.0000
  Fe  Fe194     1.0  0.77397  0.23333  0.19096  1.0000
  S   S387      1.0  0.75426  0.27260  0.19177  1.0000
  Fe  Fe195     1.0  0.76893  0.18641  0.18291  1.0000
  S   S388      1.0  0.73938  0.16880  0.17948  1.0000
  S   S389      1.0  0.81299  0.21833  0.19435  1.0000
  S   S390      1.0  0.80796  0.16727  0.18518  1.0000
  C   C1706     1.0  0.56691  0.02189  0.99429  1.0000
  H   H3048     1.0  0.70685  0.05452  0.09310  1.0000
  C   C1707     1.0  0.75430  0.28233  0.20773  1.0000
  C   C1708     1.0  0.68078  0.10124  0.03841  1.0000
  H   H3049     1.0  0.88549  0.31038  0.08361  1.0000
  H   H3050     1.0  0.67265  0.10212  0.02918  1.0000
  C   C1709     1.0  0.84281  0.12418  0.21407  1.0000
  C   C1710     1.0  0.65882  0.01415  0.05087  1.0000
  H   H3051     1.0  0.67333  0.02613  0.16769  1.0000
  H   H3052     1.0  0.79416  0.25025  0.09719  1.0000
  C   C1711     1.0  0.73308  0.15895  0.13480  1.0000
  C   C1712     1.0  0.75321  0.16815  0.13622  1.0000
  C   C1713     1.0  0.75558  0.17098  0.14991  1.0000
  C   C1714     1.0  0.73758  0.16499  0.16218  1.0000
  C   C1715     1.0  0.71753  0.15573  0.16076  1.0000
  C   C1716     1.0  0.71537  0.15256  0.14714  1.0000
  H   H3053     1.0  0.76709  0.17274  0.12672  1.0000
  H   H3054     1.0  0.77138  0.17743  0.15109  1.0000
  H   H3055     1.0  0.70365  0.15087  0.17024  1.0000
  H   H3056     1.0  0.69990  0.14532  0.14620  1.0000
  C   C1717     1.0  0.53165  0.26979  0.01568  1.0000
  H   H3057     1.0  0.85329  0.18255  0.20471  1.0000
  H   H3058     1.0  0.61660  0.02820  0.12650  1.0000
  H   H3059     1.0  0.64888  0.01388  0.07993  1.0000
  C   C1718     1.0  0.55302  0.19280  0.10368  1.0000
  C   C1719     1.0  0.57473  0.17637  0.09907  1.0000
  C   C1720     1.0  0.59163  0.16512  0.10842  1.0000
  C   C1721     1.0  0.58643  0.16966  0.12257  1.0000
  C   C1722     1.0  0.56419  0.18526  0.12737  1.0000
  C   C1723     1.0  0.54774  0.19720  0.11786  1.0000
  H   H3060     1.0  0.57892  0.17307  0.08809  1.0000
  H   H3061     1.0  0.60880  0.15325  0.10458  1.0000
  H   H3062     1.0  0.56000  0.18865  0.13834  1.0000
  H   H3063     1.0  0.53096  0.20973  0.12152  1.0000
  H   H3064     1.0  0.91436  0.20979  0.19374  1.0000
  C   C1724     1.0  0.66624  0.03411  0.13722  1.0000
  C   C1725     1.0  0.82595  0.27409  0.12468  1.0000
  H   H3065     1.0  0.72078  0.00508  0.20568  1.0000
  H   H3066     1.0  0.50806  0.26000  0.16916  1.0000
  C   C1726     1.0  0.97871  0.24220  0.07982  1.0000
  S   S391      1.0  0.94699  0.29180  0.12457  1.0000
  H   H3067     1.0  0.64376  0.29413  0.18729  1.0000
  H   H3068     1.0  0.91446  0.11309  0.19260  1.0000
  S   S392      1.0  0.69058  0.04814  0.12615  1.0000
  C   C1727     1.0  0.86898  0.18922  0.20658  1.0000
  H   H3069     1.0  0.64607  0.22763  0.13822  1.0000
  C   C1728     1.0  0.63476  0.27252  0.20908  1.0000
  C   C1729     1.0  0.66177  0.18990  0.13698  1.0000
  C   C1730     1.0  0.64062  0.21226  0.13524  1.0000
  H   H3070     1.0  0.61596  0.18786  0.00198  1.0000
  H   H3071     1.0  0.71667  0.03724  0.07849  1.0000
  H   H3072     1.0  0.81953  0.28011  0.21738  1.0000
  S   S393      1.0  0.62273  0.01725  0.01181  1.0000
  H   H3073     1.0  0.73086  0.15861  0.99741  1.0000
  C   C1731     1.0  0.87440  0.28268  0.15167  1.0000
  C   C1732     1.0  0.85212  0.27753  0.16063  1.0000
  C   C1733     1.0  0.84535  0.25472  0.16212  1.0000
  C   C1734     1.0  0.86113  0.23658  0.15489  1.0000
  C   C1735     1.0  0.88351  0.24154  0.14590  1.0000
  H   H3074     1.0  0.84005  0.29117  0.16648  1.0000
  H   H3075     1.0  0.82774  0.25141  0.16875  1.0000
  H   H3076     1.0  0.67908  0.19341  0.12917  1.0000
  C   C1736     1.0  0.82400  0.26176  0.11236  1.0000
  H   H3077     1.0  0.86833  0.12111  0.17410  1.0000
  H   H3078     1.0  0.91564  0.18732  0.16726  1.0000
  C   C1737     1.0  0.82303  0.30217  0.99126  1.0000
  H   H3079     1.0  0.65607  0.13410  0.04438  1.0000
  H   H3080     1.0  0.94161  0.19525  0.18253  1.0000
  H   H3081     1.0  0.92040  0.12132  0.20815  1.0000
  H   H3082     1.0  0.52057  0.30167  0.18153  1.0000
  H   H3083     1.0  0.72058  0.01575  0.18055  1.0000
  S   S394      1.0  0.81223  0.16224  0.22667  1.0000
  C   C1738     1.0  0.64691  0.16239  0.99259  1.0000
  H   H3084     1.0  0.96987  0.22881  0.08865  1.0000
  C   C1739     1.0  0.66906  0.00824  0.14001  1.0000
  C   C1740     1.0  0.67363  0.20081  0.98716  1.0000
  C   C1741     1.0  0.64858  0.20420  0.99396  1.0000
  C   C1742     1.0  0.63525  0.18515  0.99659  1.0000
  H   H3085     1.0  0.70720  0.26425  0.20735  1.0000
  H   H3086     1.0  0.58888  0.02742  0.12047  1.0000
  H   H3087     1.0  0.63947  0.22156  0.99731  1.0000
  S   S395      1.0  0.81024  0.23281  0.97924  1.0000
  C   C1743     1.0  0.68757  0.30840  0.19084  1.0000
  C   C1744     1.0  0.71147  0.08165  0.05347  1.0000
  C   C1745     1.0  0.70181  0.09959  0.06225  1.0000
  C   C1746     1.0  0.68151  0.11827  0.05914  1.0000
  H   H3088     1.0  0.72705  0.06710  0.05593  1.0000
  H   H3089     1.0  0.71002  0.09892  0.07143  1.0000
  H   H3090     1.0  0.62691  0.26364  0.12895  1.0000
  H   H3091     1.0  0.65657  0.17326  0.13527  1.0000
  S   S396      1.0  0.69301  0.09219  0.99476  1.0000
  H   H3092     1.0  0.94437  0.25358  0.00941  1.0000
  S   S397      1.0  0.69083  0.03276  0.00214  1.0000
  H   H3093     1.0  0.96616  0.27339  0.06324  1.0000
  H   H3094     1.0  0.90721  0.26835  0.13724  1.0000
  H   H3095     1.0  0.60844  0.04785  0.15754  1.0000
  H   H3096     1.0  0.93060  0.22750  0.16087  1.0000
  H   H3097     1.0  0.64255  0.30881  0.20173  1.0000
  H   H3098     1.0  0.82230  0.19678  0.08658  1.0000
  H   H3099     1.0  0.96589  0.11253  0.19840  1.0000
  H   H3100     1.0  0.60991  0.99901  0.12592  1.0000
  H   H3101     1.0  0.82672  0.15538  0.13805  1.0000
  H   H3102     1.0  0.88819  0.20269  0.17694  1.0000
  H   H3103     1.0  0.50146  0.23061  0.03433  1.0000
  H   H3104     1.0  0.89572  0.22761  0.14019  1.0000
  H   H3105     1.0  0.67234  0.03029  0.10359  1.0000
  H   H3106     1.0  0.95339  0.21005  0.13555  1.0000
  C   C1747     1.0  0.78521  0.31108  0.15635  1.0000
  H   H3107     1.0  0.98265  0.20719  0.11259  1.0000
  C   C1748     1.0  0.70049  0.08204  0.04179  1.0000
  H   H3108     1.0  0.66316  0.24406  0.18723  1.0000
  H   H3109     1.0  0.53635  0.28452  0.01974  1.0000
  H   H3110     1.0  0.83896  0.28071  0.19962  1.0000
  C   C1749     1.0  0.64966  0.29094  0.19793  1.0000
  C   C1750     1.0  0.67179  0.15923  0.98534  1.0000
  H   H3111     1.0  0.90758  0.17400  0.20856  1.0000
  C   C1751     1.0  0.53771  0.27949  0.19918  1.0000
  H   H3112     1.0  0.59033  0.06090  0.98091  1.0000
  H   H3113     1.0  0.71726  0.02147  0.09702  1.0000
  C   C1752     1.0  0.86258  0.10380  0.21345  1.0000
  H   H3114     1.0  0.64939  0.27048  0.98382  1.0000
  H   H3115     1.0  0.83035  0.25999  0.13433  1.0000
  H   H3116     1.0  0.68601  0.99720  0.13514  1.0000
  C   C1753     1.0  0.68877  0.26922  0.18424  1.0000
  H   H3117     1.0  0.53218  0.26939  0.18045  1.0000
  H   H3118     1.0  0.80810  0.28659  0.12797  1.0000
  H   H3119     1.0  0.64746  0.01562  0.18721  1.0000
  H   H3120     1.0  0.52821  0.29150  0.20723  1.0000
  H   H3121     1.0  0.64249  0.00989  0.10523  1.0000
  C   C1754     1.0  0.82874  0.29222  0.20782  1.0000
  S   S398      1.0  0.88137  0.31215  0.14963  1.0000
  H   H3122     1.0  0.95775  0.22433  0.01947  1.0000
  N   N99       1.0  0.61665  0.24244  0.11598  1.0000
  C   C1755     1.0  0.62624  0.26423  0.11750  1.0000
  C   C1756     1.0  0.63533  0.21898  0.11960  1.0000
  C   C1757     1.0  0.61502  0.24574  0.10018  1.0000
  C   C1758     1.0  0.59129  0.24040  0.12526  1.0000
  C   C1759     1.0  0.58498  0.24908  0.14005  1.0000
  C   C1760     1.0  0.61160  0.29017  0.11164  1.0000
  C   C1761     1.0  0.60822  0.22392  0.09581  1.0000
  C   C1762     1.0  0.56292  0.23877  0.15006  1.0000
  C   C1763     1.0  0.60190  0.23121  0.08061  1.0000
  H   H3123     1.0  0.62899  0.20263  0.11829  1.0000
  H   H3124     1.0  0.65336  0.21977  0.11182  1.0000
  H   H3125     1.0  0.63296  0.24926  0.09299  1.0000
  H   H3126     1.0  0.60064  0.26227  0.09717  1.0000
  H   H3127     1.0  0.57620  0.25119  0.11931  1.0000
  H   H3128     1.0  0.58874  0.22090  0.12747  1.0000
  H   H3129     1.0  0.58001  0.26958  0.13824  1.0000
  H   H3130     1.0  0.60058  0.24333  0.14596  1.0000
  H   H3131     1.0  0.61595  0.29422  0.09957  1.0000
  H   H3132     1.0  0.59123  0.29125  0.11513  1.0000
  H   H3133     1.0  0.59185  0.21802  0.10351  1.0000
  H   H3134     1.0  0.62400  0.20788  0.09571  1.0000
  H   H3135     1.0  0.55726  0.24704  0.15995  1.0000
  H   H3136     1.0  0.54692  0.24321  0.14445  1.0000
  H   H3137     1.0  0.56808  0.21833  0.15338  1.0000
  H   H3138     1.0  0.61764  0.23774  0.07244  1.0000
  H   H3139     1.0  0.59812  0.21490  0.07761  1.0000
  H   H3140     1.0  0.58497  0.24597  0.08040  1.0000
  H   H3141     1.0  0.71837  0.22612  0.17524  1.0000
  C   C1764     1.0  0.62337  0.02030  0.10476  1.0000
  C   C1765     1.0  0.60875  0.01870  0.12034  1.0000
  H   H3142     1.0  0.70795  0.30450  0.19039  1.0000
  C   C1766     1.0  0.62808  0.01089  0.15538  1.0000
  H   H3143     1.0  0.94047  0.15554  0.19238  1.0000
  C   C1767     1.0  0.92761  0.14865  0.18785  1.0000
  H   H3144     1.0  0.88386  0.23125  0.98113  1.0000
  C   C1768     1.0  0.81347  0.25955  0.98464  1.0000
  C   C1769     1.0  0.83194  0.25755  0.99266  1.0000
  C   C1770     1.0  0.93535  0.28151  0.97993  1.0000
  H   H3145     1.0  0.87848  0.14040  0.19198  1.0000
  N   N100      1.0  0.71902  0.17092  0.02568  1.0000
  C   C1771     1.0  0.72177  0.16777  0.04124  1.0000
  C   C1772     1.0  0.69181  0.17788  0.02456  1.0000
  C   C1773     1.0  0.72962  0.14615  0.02112  1.0000
  C   C1774     1.0  0.73333  0.18964  0.01551  1.0000
  C   C1775     1.0  0.72715  0.21596  0.01896  1.0000
  C   C1776     1.0  0.74859  0.15944  0.04427  1.0000
  C   C1777     1.0  0.72477  0.14375  0.00636  1.0000
  C   C1778     1.0  0.67408  0.19417  0.03511  1.0000
  C   C1779     1.0  0.64870  0.20399  0.03076  1.0000
  C   C1780     1.0  0.74489  0.23203  0.00878  1.0000
  C   C1781     1.0  0.74861  0.15780  0.06032  1.0000
  H   H3146     1.0  0.53609  0.29586  0.15719  1.0000
  H   H3147     1.0  0.71087  0.15390  0.04827  1.0000
  H   H3148     1.0  0.71371  0.18504  0.04553  1.0000
  H   H3149     1.0  0.68976  0.18710  0.01326  1.0000
  H   H3150     1.0  0.68367  0.16099  0.02675  1.0000
  H   H3151     1.0  0.72217  0.13106  0.02953  1.0000
  H   H3152     1.0  0.75014  0.14157  0.02028  1.0000
  H   H3153     1.0  0.75370  0.18265  0.01465  1.0000
  H   H3154     1.0  0.72997  0.19232  0.00430  1.0000
  H   H3155     1.0  0.72870  0.21562  0.03024  1.0000
  H   H3156     1.0  0.70814  0.22516  0.01719  1.0000
  H   H3157     1.0  0.75706  0.14076  0.04179  1.0000
  H   H3158     1.0  0.76047  0.17274  0.03773  1.0000
  C   C1782     1.0  0.68515  0.17847  0.98259  1.0000
  H   H3159     1.0  0.70473  0.14449  0.00698  1.0000
  H   H3160     1.0  0.67107  0.18290  0.04626  1.0000
  H   H3161     1.0  0.68154  0.21023  0.03562  1.0000
  H   H3162     1.0  0.63555  0.21286  0.03943  1.0000
  H   H3163     1.0  0.65042  0.21806  0.02056  1.0000
  H   H3164     1.0  0.64110  0.18869  0.02913  1.0000
  H   H3165     1.0  0.74014  0.25084  0.01142  1.0000
  H   H3166     1.0  0.76446  0.22391  0.00993  1.0000
  H   H3167     1.0  0.74327  0.23392  0.99730  1.0000
  H   H3168     1.0  0.74112  0.17620  0.06343  1.0000
  H   H3169     1.0  0.73714  0.14436  0.06731  1.0000
  H   H3170     1.0  0.76790  0.15143  0.06235  1.0000
  C   C1783     1.0  0.67142  0.11938  0.04702  1.0000
  H   H3171     1.0  0.53591  0.19782  0.04426  1.0000
  H   H3172     1.0  0.86800  0.09531  0.20396  1.0000
  H   H3173     1.0  0.62397  0.20706  0.14309  1.0000
  H   H3174     1.0  0.83301  0.13107  0.20515  1.0000
  N   N101      1.0  0.63945  0.05257  0.08211  1.0000
  C   C1784     1.0  0.64182  0.03238  0.07378  1.0000
  C   C1785     1.0  0.62274  0.04769  0.09687  1.0000
  C   C1786     1.0  0.62739  0.07656  0.07349  1.0000
  C   C1787     1.0  0.66443  0.05570  0.08362  1.0000
  C   C1788     1.0  0.68036  0.03296  0.09178  1.0000
  C   C1789     1.0  0.65932  0.03457  0.05863  1.0000
  C   C1790     1.0  0.62023  0.09945  0.08092  1.0000
  S   S399      1.0  0.69014  0.22437  0.98548  1.0000
  C   C1791     1.0  0.68151  0.28643  0.22186  1.0000
  C   C1792     1.0  0.70689  0.03688  0.08994  1.0000
  H   H3175     1.0  0.53670  0.25970  0.99454  1.0000
  C   C1793     1.0  0.60611  0.12178  0.07179  1.0000
  H   H3176     1.0  0.62309  0.03145  0.07228  1.0000
  C   C1794     1.0  0.53309  0.30906  0.13482  1.0000
  H   H3177     1.0  0.62670  0.05789  0.10439  1.0000
  H   H3178     1.0  0.60287  0.05515  0.09601  1.0000
  H   H3179     1.0  0.61024  0.07408  0.07061  1.0000
  H   H3180     1.0  0.63989  0.08213  0.06302  1.0000
  H   H3181     1.0  0.67548  0.06173  0.07276  1.0000
  H   H3182     1.0  0.66236  0.07087  0.08955  1.0000
  H   H3183     1.0  0.63990  0.01576  0.04878  1.0000
  S   S400      1.0  0.64921  0.07331  0.98517  1.0000
  H   H3184     1.0  0.65393  0.05244  0.05137  1.0000
  H   H3185     1.0  0.67882  0.03277  0.05978  1.0000
  H   H3186     1.0  0.63714  0.10481  0.08211  1.0000
  H   H3187     1.0  0.60830  0.09599  0.09182  1.0000
  H   H3188     1.0  0.54139  0.25994  0.20497  1.0000
  H   H3189     1.0  0.73550  0.11803  0.99153  1.0000
  C   C1795     1.0  0.89011  0.26460  0.14427  1.0000
  H   H3190     1.0  0.77485  0.26825  0.11797  1.0000
  C   C1796     1.0  0.88424  0.15628  0.18373  1.0000
  C   C1797     1.0  0.60728  0.27935  0.20796  1.0000
  H   H3191     1.0  0.58579  0.21514  0.03731  1.0000
  H   H3192     1.0  0.96168  0.23835  0.13636  1.0000
  C   C1798     1.0  0.97950  0.23580  0.99795  1.0000
  C   C1799     1.0  0.83078  0.15620  0.97967  1.0000
  H   H3193     1.0  0.61713  0.12609  0.06066  1.0000
  H   H3194     1.0  0.58794  0.11822  0.07112  1.0000
  H   H3195     1.0  0.60271  0.13818  0.07691  1.0000
  N   N102      1.0  0.80921  0.24123  0.11688  1.0000
  C   C1800     1.0  0.80636  0.23463  0.10316  1.0000
  C   C1801     1.0  0.78379  0.25138  0.12493  1.0000
  H   H3196     1.0  0.49988  0.99358  0.18263  1.0000
  C   C1802     1.0  0.82257  0.21965  0.12662  1.0000
  C   C1803     1.0  0.81940  0.19328  0.12626  1.0000
  C   C1804     1.0  0.83093  0.22847  0.09222  1.0000
  H   H3197     1.0  0.49587  0.23882  0.18453  1.0000
  C   C1805     1.0  0.76534  0.23337  0.13053  1.0000
  C   C1806     1.0  0.73976  0.24637  0.13736  1.0000
  C   C1807     1.0  0.64434  0.04836  0.14352  1.0000
  H   H3198     1.0  0.99104  0.17733  0.99820  1.0000
  C   C1808     1.0  0.90277  0.31552  0.07741  1.0000
  H   H3199     1.0  0.79655  0.21890  0.10563  1.0000
  H   H3200     1.0  0.78531  0.25730  0.13483  1.0000
  C   C1809     1.0  0.80404  0.30404  0.98364  1.0000
  H   H3201     1.0  0.51115  0.27229  0.01732  1.0000
  C   C1810     1.0  0.95827  0.25957  0.07232  1.0000
  H   H3202     1.0  0.84300  0.21909  0.12405  1.0000
  H   H3203     1.0  0.81682  0.22225  0.13811  1.0000
  H   H3204     1.0  0.82986  0.18763  0.11592  1.0000
  H   H3205     1.0  0.79982  0.19228  0.12714  1.0000
  H   H3206     1.0  0.56872  0.00169  0.99866  1.0000
  H   H3207     1.0  0.84600  0.21686  0.09784  1.0000
  H   H3208     1.0  0.77497  0.24766  0.21739  1.0000
  H   H3209     1.0  0.57188  0.03052  0.00215  1.0000
  H   H3210     1.0  0.76274  0.22526  0.12175  1.0000
  H   H3211     1.0  0.77213  0.21838  0.13918  1.0000
  H   H3212     1.0  0.73156  0.26152  0.12919  1.0000
  H   H3213     1.0  0.77528  0.29531  0.15929  1.0000
  H   H3214     1.0  0.74108  0.25401  0.14668  1.0000
  H   H3215     1.0  0.64591  0.26333  0.11166  1.0000
  C   C1811     1.0  0.96208  0.24161  0.01199  1.0000
  C   C1812     1.0  0.69814  0.22863  0.17549  1.0000
  H   H3216     1.0  0.84597  0.29963  0.12839  1.0000
  H   H3217     1.0  0.96077  0.23638  0.11114  1.0000
  H   H3218     1.0  0.84267  0.30394  0.10979  1.0000
  H   H3219     1.0  0.93541  0.24036  0.17511  1.0000
  C   C1813     1.0  0.73892  0.11908  0.00222  1.0000
  H   H3220     1.0  0.79724  0.30157  0.17660  1.0000
  N   N103      1.0  0.90286  0.16629  0.18849  1.0000
  C   C1814     1.0  0.95274  0.10527  0.19434  1.0000
  C   C1815     1.0  0.69215  0.02823  0.16799  1.0000
  H   H3221     1.0  0.58744  0.27976  0.05194  1.0000
  S   S401      1.0  0.60366  0.99706  0.16658  1.0000
  C   C1816     1.0  0.80914  0.31296  0.20151  1.0000
  H   H3222     1.0  0.59678  0.26652  0.21635  1.0000
  H   H3223     1.0  0.61467  0.01078  0.09902  1.0000
  H   H3224     1.0  0.60384  0.17048  0.04240  1.0000
  H   H3225     1.0  0.88868  0.15200  0.21108  1.0000
  H   H3226     1.0  0.79619  0.30421  0.19845  1.0000
  H   H3227     1.0  0.89638  0.16393  0.15990  1.0000
  C   C1817     1.0  0.62536  0.03674  0.15265  1.0000
  C   C1818     1.0  0.82922  0.17396  0.13864  1.0000
  H   H3228     1.0  0.84931  0.17334  0.13782  1.0000
  H   H3229     1.0  0.72723  0.23274  0.14144  1.0000
  H   H3230     1.0  0.66178  0.29595  0.22388  1.0000
  H   H3231     1.0  0.61304  0.30859  0.12878  1.0000
  H   H3232     1.0  0.64177  0.25316  0.20765  1.0000
  H   H3233     1.0  0.50555  0.23215  0.15287  1.0000
  H   H3234     1.0  0.56199  0.27214  0.99684  1.0000
  H   H3235     1.0  0.67849  0.06442  0.17417  1.0000
  C   C1819     1.0  0.76624  0.26646  0.21856  1.0000
  C   C1820     1.0  0.90644  0.19052  0.17838  1.0000
  H   H3236     1.0  0.71083  0.05917  0.16512  1.0000
  H   H3237     1.0  0.80395  0.30518  0.14994  1.0000
  H   H3238     1.0  0.94414  0.26945  0.08022  1.0000
  Fe  Fe196     1.0  0.51036  0.24393  0.09787  1.0000
  H   H3239     1.0  0.90751  0.98999  0.22175  1.0000
  H   H3240     1.0  0.69354  0.31439  0.16693  1.0000
  C   C1821     1.0  0.97708  0.22546  0.11588  1.0000
  H   H3241     1.0  0.81161  0.15286  0.98431  1.0000
  H   H3242     1.0  0.95987  0.10417  0.18271  1.0000
  C   C1822     1.0  0.68675  0.27109  0.20973  1.0000
  C   C1823     1.0  0.61883  0.31052  0.11679  1.0000
  H   H3243     1.0  0.84275  0.23953  0.99623  1.0000
  H   H3244     1.0  0.99050  0.25873  0.11367  1.0000
  H   H3245     1.0  0.69089  0.02527  0.19101  1.0000
  H   H3246     1.0  0.87910  0.13129  0.15492  1.0000
  H   H3247     1.0  0.55970  0.29725  0.04548  1.0000
  H   H3248     1.0  0.55576  0.28509  0.19378  1.0000
  C   C1824     1.0  0.92222  0.20558  0.18273  1.0000
  C   C1825     1.0  0.82747  0.21495  0.08111  1.0000
  H   H3249     1.0  0.67105  0.99573  0.20684  1.0000
  N   N104      1.0  0.69785  0.98740  0.18769  1.0000
  H   H3250     1.0  0.87036  0.20741  0.19933  1.0000
  H   H3251     1.0  0.85145  0.27701  0.00177  1.0000
  C   C1826     1.0  0.70066  0.01424  0.18246  1.0000
  H   H3252     1.0  0.84342  0.25472  0.10713  1.0000
  H   H3253     1.0  0.92770  0.00163  0.20520  1.0000
  C   C1827     1.0  0.84606  0.28985  0.11967  1.0000
  C   C1828     1.0  0.74295  0.30661  0.20938  1.0000
  H   H3254     1.0  0.62416  0.00194  0.21148  1.0000
  H   H3255     1.0  0.69400  0.23849  0.16467  1.0000
  C   C1829     1.0  0.89268  0.14802  0.16881  1.0000
  H   H3256     1.0  0.57336  0.16328  0.04957  1.0000
  H   H3257     1.0  0.68645  0.06520  0.15490  1.0000
  H   H3258     1.0  0.66553  0.18597  0.14818  1.0000
  C   C1830     1.0  0.89310  0.16965  0.20401  1.0000
  C   C1831     1.0  0.68301  0.24288  0.18734  1.0000
  H   H3259     1.0  0.68221  0.27862  0.17395  1.0000
  S   S402      1.0  0.90164  0.07050  0.22295  1.0000
  Fe  Fe197     1.0  0.97513  0.29459  0.13682  1.0000
  H   H3260     1.0  0.90970  0.13343  0.16856  1.0000
  H   H3261     1.0  0.90426  0.24214  0.17280  1.0000
  C   C1832     1.0  0.87260  0.13734  0.16555  1.0000
  C   C1833     1.0  0.99323  0.25691  0.08544  1.0000
  N   N105      1.0  0.53421  0.23749  0.03972  1.0000
  C   C1834     1.0  0.54325  0.24379  0.02348  1.0000
  C   C1835     1.0  0.54621  0.21129  0.04573  1.0000
  C   C1836     1.0  0.50639  0.23906  0.04233  1.0000
  C   C1837     1.0  0.53867  0.25576  0.04750  1.0000
  C   C1838     1.0  0.56602  0.25749  0.04630  1.0000
  H   H3262     1.0  0.84513  0.21160  0.07317  1.0000
  H   H3263     1.0  0.55746  0.27867  0.06361  1.0000
  C   C1839     1.0  0.57361  0.20176  0.03874  1.0000
  C   C1840     1.0  0.58474  0.17758  0.04796  1.0000
  C   C1841     1.0  0.56770  0.27966  0.05221  1.0000
  C   C1842     1.0  0.54151  0.27360  0.99928  1.0000
  H   H3264     1.0  0.66473  0.99558  0.05740  1.0000
  H   H3265     1.0  0.53967  0.22977  0.01823  1.0000
  H   H3266     1.0  0.56365  0.24260  0.02069  1.0000
  H   H3267     1.0  0.54486  0.20879  0.05771  1.0000
  H   H3268     1.0  0.84209  0.29998  0.21140  1.0000
  H   H3269     1.0  0.69324  0.30074  0.21874  1.0000
  C   C1843     1.0  0.63255  0.98928  0.00521  1.0000
  H   H3270     1.0  0.57435  0.19803  0.02782  1.0000
  H   H3271     1.0  0.53102  0.25128  0.05934  1.0000
  H   H3272     1.0  0.57621  0.25969  0.03491  1.0000
  H   H3273     1.0  0.57543  0.24062  0.05294  1.0000
  H   H3274     1.0  0.83721  0.24588  0.08612  1.0000
  C   C1844     1.0  0.52195  0.28236  0.18777  1.0000
  H   H3275     1.0  0.49425  0.30259  0.16622  1.0000
  H   H3276     1.0  0.98240  0.25377  0.99085  1.0000
  H   H3277     1.0  0.75923  0.11737  0.00125  1.0000
  H   H3278     1.0  0.84456  0.20640  0.22395  1.0000
  C   C1845     1.0  0.86272  0.19347  0.22220  1.0000
  H   H3279     1.0  0.60497  0.27793  0.19709  1.0000
  H   H3280     1.0  0.95161  0.08626  0.20064  1.0000
  H   H3281     1.0  0.60984  0.99745  0.19771  1.0000
  H   H3282     1.0  0.49779  0.25883  0.20262  1.0000
  C   C1846     1.0  0.62652  0.99119  0.20284  1.0000
  H   H3283     1.0  0.67893  0.25412  0.21448  1.0000
  C   C1847     1.0  0.90782  0.31808  0.06221  1.0000
  H   H3284     1.0  0.81278  0.22629  0.07507  1.0000
  H   H3285     1.0  0.83193  0.17428  0.98182  1.0000
  H   H3286     1.0  0.68159  0.01585  0.08780  1.0000
  Fe  Fe198     1.0  0.92038  0.31693  0.13844  1.0000
  H   H3287     1.0  0.81607  0.27682  0.10396  1.0000
  C   C1848     1.0  0.64994  0.99665  0.14902  1.0000
  H   H3288     1.0  0.53288  0.29233  0.99401  1.0000
  H   H3289     1.0  0.86473  0.27800  0.11730  1.0000
  H   H3290     1.0  0.94885  0.24877  0.06784  1.0000
  H   H3291     1.0  0.63583  0.27316  0.22032  1.0000
  S   S403      1.0  0.94768  0.31733  0.15189  1.0000
  S   S404      1.0  0.88611  0.31233  0.05351  1.0000
  C   C1849     1.0  0.54098  0.30907  0.14750  1.0000
  H   H3292     1.0  0.92000  0.28584  0.98855  1.0000
  H   H3293     1.0  0.84399  0.14117  0.98517  1.0000
  C   C1850     1.0  0.96868  0.22064  0.13240  1.0000
  H   H3294     1.0  0.98494  0.14798  0.98459  1.0000
  S   S405      1.0  0.89183  0.30612  0.01186  1.0000
  H   H3295     1.0  0.59928  0.29858  0.20974  1.0000
  H   H3296     1.0  0.63921  0.30974  0.11371  1.0000
  H   H3297     1.0  0.97055  0.25171  0.01750  1.0000
  H   H3298     1.0  0.52176  0.00178  0.19979  1.0000
  S   S406      1.0  0.51328  0.28875  0.13582  1.0000
  H   H3299     1.0  0.99159  0.23178  0.07170  1.0000
  C   C1851     1.0  0.87546  0.09446  0.22496  1.0000
  C   C1852     1.0  0.64969  0.99539  0.19132  1.0000
  C   C1853     1.0  0.79931  0.28288  0.98031  1.0000
  H   H3300     1.0  0.68068  0.14214  0.98167  1.0000
  Fe  Fe199     1.0  0.50353  0.28353  0.11553  1.0000
  H   H3301     1.0  0.87719  0.20167  0.22436  1.0000
  C   C1854     1.0  0.83586  0.13552  0.22616  1.0000
  C   C1855     1.0  0.78742  0.31834  0.17021  1.0000
  H   H3302     1.0  0.91594  0.31749  0.09635  1.0000
  H   H3303     1.0  0.54728  0.02971  0.99321  1.0000
  H   H3304     1.0  0.73369  0.31896  0.20105  1.0000
  C   C1856     1.0  0.74397  0.31521  0.22167  1.0000
  Fe  Fe200     1.0  0.49953  0.29782  0.08348  1.0000
  H   H3305     1.0  0.60342  0.01761  0.98140  1.0000
  C   C1857     1.0  0.58431  0.02620  0.97953  1.0000
  H   H3306     1.0  0.49832  0.20597  0.05864  1.0000
  C   C1858     1.0  0.49566  0.27705  0.19499  1.0000
  H   H3307     1.0  0.49660  0.25880  0.04055  1.0000
  C   C1859     1.0  0.49419  0.22641  0.05764  1.0000
  C   C1860     1.0  0.50938  0.98800  0.20357  1.0000
  C   C1861     1.0  0.98992  0.16608  0.97880  1.0000
  C   C1862     1.0  0.91682  0.98688  0.21065  1.0000
  H   H3308     1.0  0.92434  0.24835  0.97880  1.0000
  S   S407      1.0  0.69387  0.04761  0.47498  1.0000
  H   H3309     1.0  0.85313  0.00056  0.43246  1.0000
  C   C1863     1.0  0.98322  0.07696  0.28310  1.0000
  H   H3310     1.0  0.95363  0.10929  0.28082  1.0000
  C   C1864     1.0  0.82328  0.27798  0.46280  1.0000
  C   C1865     1.0  0.76726  0.27505  0.23086  1.0000
  S   S408      1.0  0.78472  0.01802  0.40708  1.0000
  C   C1866     1.0  0.85683  0.04142  0.46297  1.0000
  H   H3311     1.0  0.60999  0.00410  0.43775  1.0000
  C   C1867     1.0  0.74505  0.23917  0.37846  1.0000
  H   H3312     1.0  0.91907  0.23097  0.45796  1.0000
  C   C1868     1.0  0.97110  0.09227  0.41120  1.0000
  H   H3313     1.0  0.62916  0.10489  0.45218  1.0000
  Fe  Fe201     1.0  0.96379  0.03432  0.36069  1.0000
  S   S409      1.0  0.96445  0.07389  0.34977  1.0000
  Fe  Fe202     1.0  0.94542  0.04802  0.39102  1.0000
  S   S410      1.0  0.94562  0.08792  0.38170  1.0000
  S   S411      1.0  0.92847  0.04291  0.41491  1.0000
  Fe  Fe203     1.0  0.92758  0.08200  0.36488  1.0000
  S   S412      1.0  0.88836  0.10107  0.36279  1.0000
  S   S413      1.0  0.92636  0.04236  0.37466  1.0000
  C   C1869     1.0  0.63536  0.99882  0.45297  1.0000
  H   H3314     1.0  0.94662  0.08172  0.27781  1.0000
  H   H3315     1.0  0.86664  0.08447  0.46738  1.0000
  S   S414      1.0  0.68316  0.11156  0.44924  1.0000
  H   H3316     1.0  0.91494  0.06562  0.31783  1.0000
  H   H3317     1.0  0.75754  0.08278  0.47229  1.0000
  H   H3318     1.0  0.74912  0.28700  0.36841  1.0000
  H   H3319     1.0  0.60126  0.29508  0.32821  1.0000
  S   S415      1.0  0.94279  0.05187  0.25378  1.0000
  S   S416      1.0  0.68387  0.24895  0.40814  1.0000
  C   C1870     1.0  0.98996  0.12774  0.41128  1.0000
  H   H3320     1.0  0.96455  0.10742  0.43684  1.0000
  C   C1871     1.0  0.94328  0.00852  0.31078  1.0000
  H   H3321     1.0  0.80204  0.17820  0.40837  1.0000
  H   H3322     1.0  0.73379  0.31652  0.31526  1.0000
  Fe  Fe204     1.0  0.79794  0.20268  0.44780  1.0000
  S   S417      1.0  0.77124  0.23834  0.44148  1.0000
  H   H3323     1.0  0.69310  0.16518  0.47483  1.0000
  S   S418      1.0  0.84098  0.13619  0.41994  1.0000
  S   S419      1.0  0.79411  0.16328  0.45041  1.0000
  S   S420      1.0  0.83587  0.19765  0.43379  1.0000
  S   S421      1.0  0.50508  0.28923  0.37008  1.0000
  C   C1872     1.0  0.66835  0.00545  0.42202  1.0000
  H   H3324     1.0  0.87665  0.02698  0.35008  1.0000
  H   H3325     1.0  0.70775  0.26089  0.23442  1.0000
  H   H3326     1.0  0.88131  0.02198  0.32532  1.0000
  Fe  Fe205     1.0  0.74912  0.01568  0.40141  1.0000
  C   C1873     1.0  0.80488  0.04137  0.33532  1.0000
  H   H3327     1.0  0.68452  0.28170  0.24439  1.0000
  S   S422      1.0  0.71746  0.04822  0.39979  1.0000
  S   S423      1.0  0.83424  0.01186  0.36933  1.0000
  H   H3328     1.0  0.65663  0.06433  0.45388  1.0000
  C   C1874     1.0  0.86611  0.01275  0.32519  1.0000
  C   C1875     1.0  0.83215  0.05550  0.28629  1.0000
  H   H3329     1.0  0.63365  0.03169  0.42608  1.0000
  Fe  Fe206     1.0  0.98252  0.07455  0.36820  1.0000
  H   H3330     1.0  0.77810  0.11811  0.47037  1.0000
  C   C1876     1.0  0.78534  0.24648  0.36348  1.0000
  C   C1877     1.0  0.64656  0.29188  0.33088  1.0000
  H   H3331     1.0  0.83343  0.05044  0.41403  1.0000
  H   H3332     1.0  0.68142  0.26548  0.33126  1.0000
  H   H3333     1.0  0.81147  0.05106  0.34196  1.0000
  H   H3334     1.0  0.86561  0.04055  0.43526  1.0000
  H   H3335     1.0  0.68976  0.25700  0.45261  1.0000
  C   C1878     1.0  0.84123  0.01921  0.43172  1.0000
  C   C1879     1.0  0.82040  0.25962  0.45430  1.0000
  C   C1880     1.0  0.95065  0.13499  0.40290  1.0000
  C   C1881     1.0  0.82875  0.24428  0.34798  1.0000
  H   H3336     1.0  0.56151  0.28805  0.32451  1.0000
  H   H3337     1.0  0.97528  0.04400  0.29882  1.0000
  C   C1882     1.0  0.67167  0.01730  0.45144  1.0000
  C   C1883     1.0  0.70868  0.24570  0.41708  1.0000
  C   C1884     1.0  0.71610  0.26653  0.41868  1.0000
  C   C1885     1.0  0.73575  0.26374  0.42587  1.0000
  C   C1886     1.0  0.74793  0.24023  0.43173  1.0000
  C   C1887     1.0  0.74090  0.21925  0.42995  1.0000
  C   C1888     1.0  0.72129  0.22200  0.42262  1.0000
  C   C1889     1.0  0.81142  0.05208  0.31887  1.0000
  H   H3338     1.0  0.74171  0.27983  0.42685  1.0000
  H   H3339     1.0  0.75033  0.20100  0.43439  1.0000
  H   H3340     1.0  0.71558  0.20577  0.42153  1.0000
  C   C1890     1.0  0.69410  0.09396  0.43549  1.0000
  C   C1891     1.0  0.68548  0.10265  0.42241  1.0000
  C   C1892     1.0  0.69283  0.08841  0.41154  1.0000
  C   C1893     1.0  0.70941  0.06574  0.41351  1.0000
  C   C1894     1.0  0.71902  0.05750  0.42629  1.0000
  C   C1895     1.0  0.71114  0.07150  0.43736  1.0000
  H   H3341     1.0  0.67243  0.12003  0.42087  1.0000
  H   H3342     1.0  0.68548  0.09489  0.40162  1.0000
  H   H3343     1.0  0.73218  0.04019  0.42774  1.0000
  H   H3344     1.0  0.71867  0.06513  0.44718  1.0000
  H   H3345     1.0  0.74981  0.14309  0.44886  1.0000
  C   C1896     1.0  0.87222  0.07698  0.36487  1.0000
  C   C1897     1.0  0.88084  0.06018  0.35548  1.0000
  C   C1898     1.0  0.86934  0.04007  0.35727  1.0000
  C   C1899     1.0  0.84871  0.03671  0.36834  1.0000
  C   C1900     1.0  0.84017  0.05320  0.37800  1.0000
  C   C1901     1.0  0.85187  0.07341  0.37622  1.0000
  H   H3346     1.0  0.89646  0.06281  0.34676  1.0000
  C   C1902     1.0  0.84698  0.08237  0.47143  1.0000
  H   H3347     1.0  0.82481  0.05023  0.38688  1.0000
  H   H3348     1.0  0.84563  0.08581  0.38383  1.0000
  C   C1903     1.0  0.90310  0.06770  0.41712  1.0000
  C   C1904     1.0  0.89705  0.07819  0.42962  1.0000
  C   C1905     1.0  0.87801  0.09929  0.43070  1.0000
  C   C1906     1.0  0.86466  0.10956  0.41943  1.0000
  C   C1907     1.0  0.87038  0.09862  0.40719  1.0000
  C   C1908     1.0  0.88957  0.07793  0.40600  1.0000
  H   H3349     1.0  0.90759  0.07052  0.43821  1.0000
  H   H3350     1.0  0.87381  0.10773  0.44014  1.0000
  H   H3351     1.0  0.86046  0.10664  0.39835  1.0000
  H   H3352     1.0  0.89398  0.07010  0.39631  1.0000
  H   H3353     1.0  0.87323  0.99198  0.24671  1.0000
  C   C1909     1.0  0.55021  0.28811  0.37685  1.0000
  H   H3354     1.0  0.84065  0.07806  0.45132  1.0000
  H   H3355     1.0  0.71578  0.17930  0.44813  1.0000
  H   H3356     1.0  0.79048  0.29410  0.36662  1.0000
  H   H3357     1.0  0.71290  0.99857  0.46507  1.0000
  H   H3358     1.0  0.55088  0.26843  0.38061  1.0000
  H   H3359     1.0  0.58529  0.28726  0.38267  1.0000
  H   H3360     1.0  0.86261  0.27190  0.46001  1.0000
  H   H3361     1.0  0.91917  0.14297  0.38293  1.0000
  H   H3362     1.0  0.94603  0.08517  0.29606  1.0000
  H   H3363     1.0  0.67604  0.25581  0.24016  1.0000
  C   C1910     1.0  0.92643  0.04728  0.31902  1.0000
  C   C1911     1.0  0.75819  0.27739  0.37784  1.0000
  H   H3364     1.0  0.66293  0.16358  0.44401  1.0000
  C   C1912     1.0  0.77675  0.04399  0.34042  1.0000
  H   H3365     1.0  0.68492  0.29699  0.32366  1.0000
  C   C1913     1.0  0.95596  0.99997  0.32256  1.0000
  H   H3366     1.0  0.73273  0.23933  0.38931  1.0000
  H   H3367     1.0  0.98588  0.14794  0.41136  1.0000
  C   C1914     1.0  0.71016  0.23606  0.36680  1.0000
  C   C1915     1.0  0.74330  0.27927  0.47031  1.0000
  H   H3368     1.0  0.64360  0.21572  0.46585  1.0000
  H   H3369     1.0  0.93785  0.05080  0.33803  1.0000
  Fe  Fe207     1.0  0.91557  0.04488  0.24233  1.0000
  H   H3370     1.0  0.98409  0.00181  0.28375  1.0000
  H   H3371     1.0  0.76566  0.24385  0.40071  1.0000
  S   S424      1.0  0.98348  0.03457  0.37853  1.0000
  H   H3372     1.0  0.97794  0.04211  0.28051  1.0000
  C   C1916     1.0  0.93946  0.03893  0.33052  1.0000
  Fe  Fe208     1.0  0.67086  0.28742  0.39549  1.0000
  H   H3373     1.0  0.78377  0.22945  0.36015  1.0000
  C   C1917     1.0  0.81343  0.24384  0.36336  1.0000
  H   H3374     1.0  0.75097  0.21936  0.37747  1.0000
  H   H3375     1.0  0.66605  0.20195  0.47689  1.0000
  H   H3376     1.0  0.91113  0.13777  0.44903  1.0000
  N   N106      1.0  0.76742  0.25021  0.37752  1.0000
  H   H3377     1.0  0.81720  0.25874  0.36764  1.0000
  H   H3378     1.0  0.79251  0.20178  0.38409  1.0000
  H   H3379     1.0  0.80316  0.25229  0.45945  1.0000
  H   H3380     1.0  0.84302  0.13449  0.24729  1.0000
  C   C1918     1.0  0.68782  0.27009  0.23607  1.0000
  C   C1919     1.0  0.78369  0.20924  0.39412  1.0000
  S   S425      1.0  0.89334  0.02543  0.26251  1.0000
  H   H3381     1.0  0.51161  0.29953  0.40283  1.0000
  C   C1920     1.0  0.95433  0.01535  0.33236  1.0000
  C   C1921     1.0  0.92858  0.03235  0.30896  1.0000
  C   C1922     1.0  0.77843  0.23795  0.39091  1.0000
  H   H3382     1.0  0.77777  0.00666  0.46673  1.0000
  C   C1923     1.0  0.83951  0.06727  0.46258  1.0000
  H   H3383     1.0  0.76593  0.20258  0.39871  1.0000
  C   C1924     1.0  0.77779  0.29269  0.37736  1.0000
  H   H3384     1.0  0.77254  0.03621  0.35223  1.0000
  H   H3385     1.0  0.65706  0.25638  0.45802  1.0000
  C   C1925     1.0  0.84795  0.28771  0.45646  1.0000
  H   H3386     1.0  0.86117  0.17579  0.23004  1.0000
  S   S426      1.0  0.93984  0.00975  0.23648  1.0000
  H   H3387     1.0  0.67996  0.99670  0.40041  1.0000
  H   H3388     1.0  0.80658  0.29283  0.46279  1.0000
  H   H3389     1.0  0.59554  0.01554  0.45433  1.0000
  H   H3390     1.0  0.93902  0.13013  0.45671  1.0000
  H   H3391     1.0  0.62460  0.18218  0.47025  1.0000
  C   C1926     1.0  0.65172  0.02623  0.42982  1.0000
  H   H3392     1.0  0.64094  0.15205  0.46762  1.0000
  C   C1927     1.0  0.84760  0.03489  0.44096  1.0000
  H   H3393     1.0  0.82139  0.01755  0.43520  1.0000
  C   C1928     1.0  0.56975  0.29871  0.37799  1.0000
  Fe  Fe209     1.0  0.96526  0.01509  0.24956  1.0000
  C   C1929     1.0  0.66225  0.18216  0.44625  1.0000
  N   N107      1.0  0.76930  0.11350  0.40160  1.0000
  C   C1930     1.0  0.74749  0.13209  0.39656  1.0000
  C   C1931     1.0  0.77262  0.09056  0.39538  1.0000
  C   C1932     1.0  0.76258  0.10629  0.41795  1.0000
  C   C1933     1.0  0.79312  0.12350  0.39776  1.0000
  C   C1934     1.0  0.79717  0.14272  0.38340  1.0000
  C   C1935     1.0  0.73796  0.15467  0.40423  1.0000
  C   C1936     1.0  0.78091  0.08472  0.42535  1.0000
  C   C1937     1.0  0.77897  0.09379  0.37857  1.0000
  C   C1938     1.0  0.77615  0.07116  0.37353  1.0000
  C   C1939     1.0  0.82349  0.14807  0.37977  1.0000
  C   C1940     1.0  0.72077  0.17517  0.39579  1.0000
  C   C1941     1.0  0.77560  0.08341  0.44176  1.0000
  H   H3394     1.0  0.73135  0.12286  0.39820  1.0000
  H   H3395     1.0  0.75166  0.13932  0.38472  1.0000
  H   H3396     1.0  0.78796  0.07603  0.39925  1.0000
  H   H3397     1.0  0.75556  0.08233  0.39938  1.0000
  H   H3398     1.0  0.74394  0.10113  0.42121  1.0000
  H   H3399     1.0  0.76099  0.12240  0.42308  1.0000
  H   H3400     1.0  0.79467  0.13265  0.40647  1.0000
  H   H3401     1.0  0.80947  0.10796  0.39739  1.0000
  H   H3402     1.0  0.78401  0.16046  0.38442  1.0000
  H   H3403     1.0  0.79426  0.13646  0.37403  1.0000
  H   H3404     1.0  0.72708  0.14903  0.41528  1.0000
  H   H3405     1.0  0.75360  0.16228  0.40541  1.0000
  H   H3406     1.0  0.80048  0.08696  0.42111  1.0000
  H   H3407     1.0  0.77881  0.06675  0.42351  1.0000
  H   H3408     1.0  0.76676  0.10984  0.37315  1.0000
  H   H3409     1.0  0.79858  0.09608  0.37461  1.0000
  H   H3410     1.0  0.75641  0.06910  0.37626  1.0000
  H   H3411     1.0  0.78239  0.07348  0.36158  1.0000
  H   H3412     1.0  0.78757  0.05399  0.37863  1.0000
  H   H3413     1.0  0.82764  0.15416  0.38892  1.0000
  H   H3414     1.0  0.83740  0.13128  0.37745  1.0000
  H   H3415     1.0  0.82547  0.16293  0.36996  1.0000
  H   H3416     1.0  0.71388  0.19108  0.40144  1.0000
  H   H3417     1.0  0.73084  0.18183  0.38471  1.0000
  H   H3418     1.0  0.70444  0.16822  0.39493  1.0000
  H   H3419     1.0  0.75582  0.08234  0.44645  1.0000
  H   H3420     1.0  0.78737  0.06667  0.44698  1.0000
  C   C1942     1.0  0.64071  0.06722  0.44839  1.0000
  C   C1943     1.0  0.63878  0.19962  0.44135  1.0000
  H   H3421     1.0  0.89040  0.14612  0.39586  1.0000
  H   H3422     1.0  0.81949  0.20260  0.40073  1.0000
  H   H3423     1.0  0.92572  0.99182  0.42767  1.0000
  H   H3424     1.0  0.92184  0.11281  0.40623  1.0000
  S   S427      1.0  0.97129  0.00547  0.34666  1.0000
  H   H3425     1.0  0.72369  0.00178  0.44560  1.0000
  H   H3426     1.0  0.78867  0.28458  0.38611  1.0000
  C   C1944     1.0  0.75638  0.29950  0.23237  1.0000
  H   H3427     1.0  0.81985  0.06567  0.46714  1.0000
  H   H3428     1.0  0.91251  0.13772  0.41602  1.0000
  H   H3429     1.0  0.95061  0.15487  0.40231  1.0000
  H   H3430     1.0  0.86846  0.02611  0.30248  1.0000
  C   C1945     1.0  0.91004  0.14842  0.39354  1.0000
  C   C1946     1.0  0.95260  0.11898  0.42909  1.0000
  H   H3431     1.0  0.68700  0.30384  0.45386  1.0000
  H   H3432     1.0  0.88471  0.01025  0.38894  1.0000
  H   H3433     1.0  0.82329  0.26828  0.47427  1.0000
  H   H3434     1.0  0.70646  0.28484  0.41460  1.0000
  H   H3435     1.0  0.76747  0.06380  0.33864  1.0000
  C   C1947     1.0  0.92313  0.13217  0.40568  1.0000
  H   H3436     1.0  0.93594  0.11028  0.43155  1.0000
  C   C1948     1.0  0.63956  0.20081  0.42525  1.0000
  H   H3437     1.0  0.84299  0.03659  0.28560  1.0000
  H   H3438     1.0  0.76908  0.03373  0.33459  1.0000
  S   S428      1.0  0.75922  0.31024  0.24742  1.0000
  H   H3439     1.0  0.80880  0.03301  0.46129  1.0000
  H   H3440     1.0  0.75665  0.29591  0.44841  1.0000
  H   H3441     1.0  0.66077  0.04258  0.42527  1.0000
  H   H3442     1.0  0.72014  0.21826  0.36351  1.0000
  H   H3443     1.0  0.68806  0.00421  0.42256  1.0000
  H   H3444     1.0  0.84124  0.01424  0.31080  1.0000
  H   H3445     1.0  0.67975  0.22359  0.44428  1.0000
  Fe  Fe210     1.0  0.80278  0.00128  0.38735  1.0000
  C   C1949     1.0  0.67588  0.24618  0.45974  1.0000
  H   H3446     1.0  0.86486  0.03284  0.41134  1.0000
  S   S429      1.0  0.88316  0.20505  0.45493  1.0000
  H   H3447     1.0  0.67585  0.28732  0.34308  1.0000
  C   C1950     1.0  0.98674  0.04837  0.28782  1.0000
  H   H3448     1.0  0.61326  0.04835  0.44640  1.0000
  Fe  Fe211     1.0  0.92270  0.02955  0.27363  1.0000
  C   C1951     1.0  0.84959  0.06539  0.32075  1.0000
  C   C1952     1.0  0.68778  0.16184  0.46516  1.0000
  C   C1953     1.0  0.84045  0.06683  0.29711  1.0000
  C   C1954     1.0  0.87768  0.31014  0.45995  1.0000
  H   H3449     1.0  0.80427  0.04089  0.31332  1.0000
  C   C1955     1.0  0.83741  0.09290  0.32117  1.0000
  C   C1956     1.0  0.88354  0.22126  0.46847  1.0000
  C   C1957     1.0  0.72856  0.25187  0.36693  1.0000
  H   H3450     1.0  0.68352  0.03011  0.44410  1.0000
  H   H3451     1.0  0.66778  0.02232  0.46235  1.0000
  C   C1958     1.0  0.84653  0.10242  0.33213  1.0000
  C   C1959     1.0  0.83594  0.07131  0.27100  1.0000
  H   H3452     1.0  0.86968  0.06486  0.31593  1.0000
  H   H3453     1.0  0.84923  0.05550  0.33215  1.0000
  H   H3454     1.0  0.99127  0.08509  0.28987  1.0000
  H   H3455     1.0  0.83831  0.99236  0.29039  1.0000
  H   H3456     1.0  0.86002  0.06932  0.29254  1.0000
  H   H3457     1.0  0.82898  0.08581  0.29675  1.0000
  H   H3458     1.0  0.88468  0.29591  0.46897  1.0000
  H   H3459     1.0  0.62161  0.19292  0.44746  1.0000
  H   H3460     1.0  0.87589  0.04434  0.45733  1.0000
  H   H3461     1.0  0.70039  0.21186  0.45727  1.0000
  H   H3462     1.0  0.84235  0.10471  0.31035  1.0000
  H   H3463     1.0  0.81691  0.09551  0.32432  1.0000
  C   C1960     1.0  0.52959  0.30291  0.37113  1.0000
  C   C1961     1.0  0.90380  0.23262  0.46710  1.0000
  C   C1962     1.0  0.89537  0.30497  0.44552  1.0000
  H   H3464     1.0  0.60502  0.09280  0.44842  1.0000
  H   H3465     1.0  0.69800  0.24615  0.35889  1.0000
  S   S430      1.0  0.76717  0.00172  0.38076  1.0000
  H   H3466     1.0  0.62284  0.21372  0.42188  1.0000
  H   H3467     1.0  0.72667  0.28846  0.45146  1.0000
  C   C1963     1.0  0.68115  0.22058  0.45583  1.0000
  H   H3468     1.0  0.87832  0.09848  0.24609  1.0000
  H   H3469     1.0  0.83903  0.12256  0.33144  1.0000
  H   H3470     1.0  0.83995  0.09277  0.34335  1.0000
  H   H3471     1.0  0.86716  0.09945  0.32988  1.0000
  H   H3472     1.0  0.55223  0.29093  0.34339  1.0000
  H   H3473     1.0  0.83063  0.06258  0.26332  1.0000
  H   H3474     1.0  0.82431  0.09017  0.27084  1.0000
  H   H3475     1.0  0.79581  0.24414  0.39055  1.0000
  H   H3476     1.0  0.92026  0.25460  0.47638  1.0000
  H   H3477     1.0  0.97903  0.09159  0.39956  1.0000
  H   H3478     1.0  0.82319  0.26229  0.34079  1.0000
  N   N108      1.0  0.66419  0.17970  0.46190  1.0000
  H   H3479     1.0  0.69822  0.23231  0.37773  1.0000
  S   S431      1.0  0.91250  0.04453  0.29441  1.0000
  C   C1964     1.0  0.67384  0.28506  0.33233  1.0000
  C   C1965     1.0  0.84503  0.03156  0.41564  1.0000
  H   H3480     1.0  0.65628  0.20766  0.41844  1.0000
  C   C1966     1.0  0.85314  0.02630  0.31217  1.0000
  H   H3481     1.0  0.63656  0.27829  0.33900  1.0000
  C   C1967     1.0  0.84837  0.12582  0.23787  1.0000
  H   H3482     1.0  0.64692  0.07364  0.43659  1.0000
  N   N109      1.0  0.84897  0.02319  0.45663  1.0000
  S   S432      1.0  0.65934  0.29217  0.37399  1.0000
  H   H3483     1.0  0.64771  0.01119  0.40462  1.0000
  H   H3484     1.0  0.63981  0.18221  0.42326  1.0000
  H   H3485     1.0  0.79285  0.20649  0.41529  1.0000
  H   H3486     1.0  0.75612  0.28588  0.47501  1.0000
  C   C1968     1.0  0.68490  0.31802  0.44387  1.0000
  H   H3487     1.0  0.85144  0.29018  0.44439  1.0000
  C   C1969     1.0  0.92236  0.30409  0.44619  1.0000
  H   H3488     1.0  0.81899  0.26881  0.44291  1.0000
  H   H3489     1.0  0.81214  0.05457  0.28958  1.0000
  H   H3490     1.0  0.70772  0.15368  0.44374  1.0000
  H   H3491     1.0  0.93368  0.15849  0.42580  1.0000
  H   H3492     1.0  0.79994  0.07098  0.31666  1.0000
  H   H3493     1.0  0.68455  0.14248  0.46823  1.0000
  C   C1970     1.0  0.71100  0.16091  0.45271  1.0000
  H   H3494     1.0  0.77984  0.09992  0.44430  1.0000
  C   C1971     1.0  0.62100  0.08813  0.45410  1.0000
  C   C1972     1.0  0.66272  0.20446  0.46569  1.0000
  C   C1973     1.0  0.73364  0.14359  0.45801  1.0000
  N   N110      1.0  0.96607  0.11849  0.41365  1.0000
  C   C1974     1.0  0.95569  0.08893  0.28455  1.0000
  H   H3495     1.0  0.62317  0.03870  0.46334  1.0000
  H   H3496     1.0  0.64556  0.28981  0.31989  1.0000
  H   H3497     1.0  0.65397  0.30405  0.44117  1.0000
  Fe  Fe212     1.0  0.68100  0.08859  0.47181  1.0000
  H   H3498     1.0  0.71738  0.26978  0.36953  1.0000
  H   H3499     1.0  0.83965  0.02034  0.40932  1.0000
  H   H3500     1.0  0.73994  0.25541  0.35584  1.0000
  S   S433      1.0  0.81226  0.19605  0.46856  1.0000
  H   H3501     1.0  0.85574  0.07294  0.26714  1.0000
  H   H3502     1.0  0.73005  0.12447  0.46205  1.0000
  C   C1975     1.0  0.92885  0.14345  0.44862  1.0000
  H   H3503     1.0  0.92434  0.16195  0.45166  1.0000
  H   H3504     1.0  0.95344  0.08536  0.41347  1.0000
  H   H3505     1.0  0.82048  0.22593  0.37016  1.0000
  H   H3506     1.0  0.67840  0.18889  0.43866  1.0000
  C   C1976     1.0  0.94469  0.14489  0.43334  1.0000
  H   H3507     1.0  0.73364  0.31860  0.42954  1.0000
  H   H3508     1.0  0.85788  0.03395  0.47461  1.0000
  S   S434      1.0  0.85147  0.14785  0.45753  1.0000
  Fe  Fe213     1.0  0.81220  0.15588  0.46977  1.0000
  N   N111      1.0  0.83851  0.05243  0.31256  1.0000
  H   H3509     1.0  0.81299  0.02134  0.33761  1.0000
  C   C1977     1.0  0.63008  0.04322  0.45141  1.0000
  C   C1978     1.0  0.82392  0.01837  0.46534  1.0000
  H   H3510     1.0  0.92849  0.28881  0.45496  1.0000
  Fe  Fe214     1.0  0.85014  0.18874  0.45470  1.0000
  H   H3511     1.0  0.99206  0.08225  0.27155  1.0000
  H   H3512     1.0  0.95918  0.13162  0.39172  1.0000
  H   H3513     1.0  0.91021  0.16824  0.39280  1.0000
  H   H3514     1.0  0.96131  0.15217  0.43329  1.0000
  C   C1979     1.0  0.86904  0.00010  0.45704  1.0000
  S   S435      1.0  0.69791  0.31304  0.38702  1.0000
  H   H3515     1.0  0.78021  0.26189  0.35443  1.0000
  C   C1980     1.0  0.66677  0.01111  0.40592  1.0000
  H   H3516     1.0  0.77679  0.26282  0.23915  1.0000
  H   H3517     1.0  0.82623  0.22903  0.34337  1.0000
  H   H3518     1.0  0.74374  0.27950  0.38780  1.0000
  H   H3519     1.0  0.84878  0.24179  0.34826  1.0000
  H   H3520     1.0  0.61421  0.08264  0.46597  1.0000
  N   N112      1.0  0.64756  0.02095  0.44621  1.0000
  Fe  Fe215     1.0  0.83345  0.15749  0.43805  1.0000
  H   H3521     1.0  0.83326  0.05214  0.44022  1.0000
  H   H3522     1.0  0.63746  0.21873  0.44287  1.0000
  C   C1981     1.0  0.80054  0.19859  0.40530  1.0000
  H   H3523     1.0  0.83645  0.24386  0.45424  1.0000
  H   H3524     1.0  0.67177  0.02937  0.40053  1.0000
  H   H3525     1.0  0.77786  0.30720  0.41924  1.0000
  H   H3526     1.0  0.85309  0.01266  0.33574  1.0000
  C   C1982     1.0  0.64234  0.16884  0.47132  1.0000
  C   C1983     1.0  0.86823  0.10537  0.23726  1.0000
  H   H3527     1.0  0.83502  0.10105  0.47037  1.0000
  C   C1984     1.0  0.73849  0.29644  0.45601  1.0000
  H   H3528     1.0  0.67732  0.24457  0.47122  1.0000
  H   H3529     1.0  0.73835  0.15012  0.46683  1.0000
  S   S436      1.0  0.63905  0.31672  0.40329  1.0000
  N   N113      1.0  0.85036  0.31088  0.46082  1.0000
  C   C1985     1.0  0.55278  0.30119  0.33201  1.0000
  C   C1986     1.0  0.60935  0.00058  0.44963  1.0000
  C   C1987     1.0  0.81760  0.99299  0.46586  1.0000
  H   H3530     1.0  0.97872  0.06930  0.43212  1.0000
  H   H3531     1.0  0.97912  0.04028  0.41640  1.0000
  S   S437      1.0  0.71331  0.31680  0.34552  1.0000
  H   H3532     1.0  0.88866  0.99969  0.47422  1.0000
  H   H3533     1.0  0.92458  0.00116  0.39961  1.0000
  H   H3534     1.0  0.75978  0.99867  0.26508  1.0000
  H   H3535     1.0  0.82192  0.01977  0.47691  1.0000
  C   C1988     1.0  0.98837  0.07286  0.42060  1.0000
  H   H3536     1.0  0.96242  0.99557  0.40852  1.0000
  C   C1989     1.0  0.90448  0.24612  0.47748  1.0000
  H   H3537     1.0  0.63328  0.99549  0.46505  1.0000
  C   C1990     1.0  0.79048  0.99222  0.47295  1.0000
  H   H3538     1.0  0.93458  0.30077  0.43571  1.0000
  H   H3539     1.0  0.96220  0.00034  0.43486  1.0000
  H   H3540     1.0  0.66295  0.98725  0.42676  1.0000
  H   H3541     1.0  0.88631  0.00405  0.44923  1.0000
  H   H3542     1.0  0.89457  0.28691  0.44324  1.0000
  H   H3543     1.0  0.94467  0.99665  0.30324  1.0000
  S   S438      1.0  0.94722  0.99321  0.27033  1.0000
  H   H3544     1.0  0.75205  0.26031  0.46833  1.0000
  C   C1991     1.0  0.88577  0.98993  0.39083  1.0000
  H   H3545     1.0  0.69673  0.31086  0.43428  1.0000
  H   H3546     1.0  0.82069  0.98901  0.45489  1.0000
  H   H3547     1.0  0.59105  0.30643  0.34472  1.0000
  H   H3548     1.0  0.72559  0.27821  0.47825  1.0000
  C   C1992     1.0  0.59354  0.31234  0.33265  1.0000
  Fe  Fe216     1.0  0.91977  0.99072  0.25747  1.0000
  C   C1993     1.0  0.71376  0.99076  0.45540  1.0000
  H   H3549     1.0  0.96486  0.99035  0.38366  1.0000
  C   C1994     1.0  0.68762  0.99067  0.45354  1.0000
  C   C1995     1.0  0.83752  0.31143  0.47641  1.0000
  H   H3550     1.0  0.53335  0.30897  0.33047  1.0000
  H   H3551     1.0  0.63013  0.31746  0.34557  1.0000
  C   C1996     1.0  0.63444  0.31846  0.33356  1.0000
  C   C1997     1.0  0.87648  0.98869  0.47208  1.0000
  H   H3552     1.0  0.83599  0.98999  0.23789  1.0000
  H   H3553     1.0  0.81778  0.30995  0.47828  1.0000
  H   H3554     1.0  0.61520  0.31923  0.30654  1.0000
  H   H3555     1.0  0.99364  0.05760  0.31294  1.0000
  C   C1998     1.0  0.76528  0.31912  0.37924  1.0000
  H   H3556     1.0  0.75251  0.31901  0.38995  1.0000
  H   H3557     1.0  0.79440  0.04140  0.59133  1.0000
  S   S439      1.0  0.58475  0.00034  0.67335  1.0000
  Fe  Fe217     1.0  0.71653  0.10275  0.61191  1.0000
  S   S440      1.0  0.69960  0.07746  0.63148  1.0000
  S   S441      1.0  0.73128  0.13681  0.61142  1.0000
  Fe  Fe218     1.0  0.71461  0.07055  0.59092  1.0000
  S   S442      1.0  0.69769  0.04257  0.60872  1.0000
  S   S443      1.0  0.72751  0.06322  0.56811  1.0000
  Fe  Fe219     1.0  0.67384  0.07567  0.61738  1.0000
  S   S444      1.0  0.63220  0.08015  0.62375  1.0000
  Fe  Fe220     1.0  0.72501  0.04670  0.62109  1.0000
  S   S445      1.0  0.75055  0.01610  0.63307  1.0000
  S   S446      1.0  0.68868  0.10356  0.59847  1.0000
  S   S447      1.0  0.74385  0.07207  0.60262  1.0000
  H   H3558     1.0  0.64132  0.13001  0.64441  1.0000
  C   C1999     1.0  0.87671  0.26616  0.68079  1.0000
  C   C2000     1.0  0.56039  0.09946  0.66317  1.0000
  C   C2001     1.0  0.86050  0.30706  0.57132  1.0000
  H   H3559     1.0  0.79463  0.28870  0.60050  1.0000
  H   H3560     1.0  0.70424  0.18006  0.56999  1.0000
  H   H3561     1.0  0.64535  0.11308  0.66231  1.0000
  H   H3562     1.0  0.69912  0.13460  0.51527  1.0000
  H   H3563     1.0  0.60107  0.11868  0.64757  1.0000
  H   H3564     1.0  0.63743  0.09848  0.57477  1.0000
  C   C2002     1.0  0.53246  0.09771  0.66765  1.0000
  C   C2003     1.0  0.82416  0.03094  0.52776  1.0000
  C   C2004     1.0  0.90286  0.29315  0.68443  1.0000
  C   C2005     1.0  0.79366  0.00522  0.57668  1.0000
  H   H3565     1.0  0.52988  0.07936  0.67434  1.0000
  H   H3566     1.0  0.88031  0.30729  0.59412  1.0000
  C   C2006     1.0  0.92755  0.31568  0.56761  1.0000
  H   H3567     1.0  0.55464  0.04128  0.56410  1.0000
  C   C2007     1.0  0.69577  0.26385  0.70912  1.0000
  H   H3568     1.0  0.75428  0.17621  0.51074  1.0000
  C   C2008     1.0  0.74841  0.99862  0.56906  1.0000
  C   C2009     1.0  0.68136  0.28466  0.71461  1.0000
  Fe  Fe221     1.0  0.78678  0.19427  0.69657  1.0000
  H   H3569     1.0  0.59498  0.99838  0.48793  1.0000
  Fe  Fe222     1.0  0.75966  0.18760  0.67431  1.0000
  S   S448      1.0  0.74295  0.15703  0.67117  1.0000
  S   S449      1.0  0.80008  0.18254  0.67504  1.0000
  S   S450      1.0  0.74662  0.19617  0.69681  1.0000
  Fe  Fe223     1.0  0.65878  0.04636  0.49192  1.0000
  S   S451      1.0  0.63415  0.02000  0.49157  1.0000
  Fe  Fe224     1.0  0.71168  0.05256  0.49226  1.0000
  S   S452      1.0  0.75159  0.03929  0.49480  1.0000
  Fe  Fe225     1.0  0.66705  0.08736  0.50454  1.0000
  S   S453      1.0  0.65594  0.10851  0.52283  1.0000
  S   S454      1.0  0.67842  0.04605  0.50982  1.0000
  H   H3570     1.0  0.96968  0.25608  0.54653  1.0000
  H   H3571     1.0  0.91927  0.27399  0.59299  1.0000
  S   S455      1.0  0.97429  0.14676  0.72309  1.0000
  S   S456      1.0  0.80123  0.13058  0.49112  1.0000
  C   C2010     1.0  0.90881  0.26358  0.60281  1.0000
  H   H3572     1.0  0.78197  0.20613  0.50280  1.0000
  H   H3573     1.0  0.60274  0.19502  0.72691  1.0000
  S   S457      1.0  0.93154  0.29312  0.51743  1.0000
  C   C2011     1.0  0.60164  0.09330  0.66873  1.0000
  Fe  Fe226     1.0  0.91039  0.29215  0.50044  1.0000
  S   S458      1.0  0.88458  0.26544  0.50263  1.0000
  H   H3574     1.0  0.78618  0.15423  0.53440  1.0000
  H   H3575     1.0  0.79730  0.27616  0.66417  1.0000
  H   H3576     1.0  0.63439  0.01754  0.56443  1.0000
  C   C2012     1.0  0.86468  0.23692  0.49076  1.0000
  C   C2013     1.0  0.88487  0.24838  0.48936  1.0000
  C   C2014     1.0  0.54918  0.04685  0.49685  1.0000
  C   C2015     1.0  0.55742  0.19276  0.72269  1.0000
  H   H3577     1.0  0.90634  0.07404  0.70984  1.0000
  H   H3578     1.0  0.84950  0.23845  0.49995  1.0000
  H   H3579     1.0  0.53055  0.08689  0.64776  1.0000
  C   C2016     1.0  0.50945  0.11268  0.72277  1.0000
  C   C2017     1.0  0.76563  0.06467  0.49336  1.0000
  C   C2018     1.0  0.77663  0.06587  0.50466  1.0000
  C   C2019     1.0  0.78767  0.08605  0.50375  1.0000
  C   C2020     1.0  0.78820  0.10502  0.49141  1.0000
  H   H3580     1.0  0.56491  0.03715  0.65027  1.0000
  H   H3581     1.0  0.91860  0.07524  0.65970  1.0000
  H   H3582     1.0  0.77597  0.05148  0.51431  1.0000
  H   H3583     1.0  0.79570  0.08707  0.51266  1.0000
  H   H3584     1.0  0.86639  0.28095  0.67334  1.0000
  H   H3585     1.0  0.61899  0.14723  0.50804  1.0000
  H   H3586     1.0  0.75678  0.20832  0.72746  1.0000
  H   H3587     1.0  0.58394  0.06821  0.63089  1.0000
  H   H3588     1.0  0.61513  0.13746  0.49241  1.0000
  H   H3589     1.0  0.91892  0.04364  0.66906  1.0000
  H   H3590     1.0  0.60136  0.13348  0.66218  1.0000
  H   H3591     1.0  0.88115  0.26184  0.59148  1.0000
  C   C2021     1.0  0.91886  0.08721  0.70862  1.0000
  C   C2022     1.0  0.85684  0.30231  0.55709  1.0000
  H   H3592     1.0  0.70506  0.22407  0.71324  1.0000
  H   H3593     1.0  0.76907  0.10394  0.53551  1.0000
  H   H3594     1.0  0.56106  0.11831  0.65649  1.0000
  C   C2023     1.0  0.76151  0.11436  0.54454  1.0000
  H   H3595     1.0  0.56942  0.08635  0.65569  1.0000
  C   C2024     1.0  0.61823  0.15321  0.49630  1.0000
  C   C2025     1.0  0.70818  0.07728  0.55537  1.0000
  C   C2026     1.0  0.68680  0.09501  0.55857  1.0000
  C   C2027     1.0  0.67113  0.10509  0.54837  1.0000
  C   C2028     1.0  0.67666  0.09725  0.53505  1.0000
  C   C2029     1.0  0.69867  0.08036  0.53163  1.0000
  C   C2030     1.0  0.71443  0.07050  0.54173  1.0000
  H   H3596     1.0  0.68222  0.10078  0.56893  1.0000
  H   H3597     1.0  0.65449  0.11869  0.55086  1.0000
  H   H3598     1.0  0.70361  0.07477  0.52120  1.0000
  H   H3599     1.0  0.73121  0.05717  0.53905  1.0000
  Fe  Fe227     1.0  0.96056  0.30652  0.49848  1.0000
  C   C2031     1.0  0.51915  0.08825  0.72087  1.0000
  C   C2032     1.0  0.75339  0.28419  0.71245  1.0000
  S   S459      1.0  0.51618  0.03536  0.66733  1.0000
  H   H3600     1.0  0.94560  0.26268  0.71698  1.0000
  H   H3601     1.0  0.87259  0.25496  0.61099  1.0000
  H   H3602     1.0  0.73152  0.99540  0.61426  1.0000
  H   H3603     1.0  0.87620  0.30262  0.63751  1.0000
  H   H3604     1.0  0.87702  0.24868  0.67736  1.0000
  C   C2033     1.0  0.83409  0.26311  0.69627  1.0000
  C   C2034     1.0  0.73367  0.14327  0.62800  1.0000
  C   C2035     1.0  0.74771  0.16074  0.62792  1.0000
  C   C2036     1.0  0.75028  0.16573  0.64106  1.0000
  C   C2037     1.0  0.73889  0.15314  0.65434  1.0000
  C   C2038     1.0  0.72458  0.13599  0.65437  1.0000
  C   C2039     1.0  0.72191  0.13113  0.64127  1.0000
  H   H3605     1.0  0.75672  0.17035  0.61768  1.0000
  H   H3606     1.0  0.76129  0.17904  0.64094  1.0000
  H   H3607     1.0  0.71549  0.12642  0.66460  1.0000
  H   H3608     1.0  0.71054  0.11816  0.64146  1.0000
  C   C2040     1.0  0.59828  0.02146  0.65890  1.0000
  C   C2041     1.0  0.58419  0.03786  0.64924  1.0000
  C   C2042     1.0  0.59507  0.05531  0.63819  1.0000
  C   C2043     1.0  0.62003  0.05652  0.63681  1.0000
  C   C2044     1.0  0.63442  0.03967  0.64617  1.0000
  C   C2045     1.0  0.62352  0.02215  0.65721  1.0000
  H   H3609     1.0  0.65374  0.04048  0.64511  1.0000
  H   H3610     1.0  0.63453  0.00938  0.66462  1.0000
  H   H3611     1.0  0.79994  0.12259  0.66689  1.0000
  H   H3612     1.0  0.57477  0.13816  0.71185  1.0000
  C   C2046     1.0  0.94527  0.24768  0.68615  1.0000
  H   H3613     1.0  0.73316  0.29191  0.71346  1.0000
  C   C2047     1.0  0.87037  0.19423  0.70185  1.0000
  H   H3614     1.0  0.82713  0.13111  0.65433  1.0000
  C   C2048     1.0  0.88330  0.18148  0.71301  1.0000
  C   C2049     1.0  0.79813  0.29258  0.61051  1.0000
  H   H3615     1.0  0.79409  0.07063  0.55174  1.0000
  H   H3616     1.0  0.82269  0.30454  0.58172  1.0000
  H   H3617     1.0  0.50104  0.09977  0.65784  1.0000
  H   H3618     1.0  0.61386  0.00805  0.60908  1.0000
  C   C2050     1.0  0.56043  0.02417  0.49257  1.0000
  C   C2051     1.0  0.58647  0.01607  0.49100  1.0000
  C   C2052     1.0  0.60145  0.03061  0.49357  1.0000
  C   C2053     1.0  0.59017  0.05335  0.49765  1.0000
  C   C2054     1.0  0.98568  0.25581  0.53727  1.0000
  S   S460      1.0  0.51654  0.05807  0.49963  1.0000
  H   H3619     1.0  0.97771  0.24816  0.71703  1.0000
  H   H3620     1.0  0.53936  0.20110  0.71917  1.0000
  C   C2055     1.0  0.83420  0.17669  0.71474  1.0000
  S   S461      1.0  0.71562  0.26804  0.69198  1.0000
  H   H3621     1.0  0.64496  0.09680  0.64836  1.0000
  H   H3622     1.0  0.56396  0.13357  0.67627  1.0000
  C   C2056     1.0  0.63678  0.11385  0.65293  1.0000
  H   H3623     1.0  0.74014  0.10937  0.52136  1.0000
  C   C2057     1.0  0.88160  0.26754  0.60162  1.0000
  Fe  Fe228     1.0  0.74593  0.23579  0.68588  1.0000
  H   H3624     1.0  0.94821  0.26377  0.68975  1.0000
  H   H3625     1.0  0.57240  0.31237  0.72436  1.0000
  H   H3626     1.0  0.70860  0.06361  0.66867  1.0000
  C   C2058     1.0  0.72774  0.05257  0.66659  1.0000
  H   H3627     1.0  0.57209  0.19076  0.71286  1.0000
  C   C2059     1.0  0.83280  0.26581  0.65062  1.0000
  H   H3628     1.0  0.84423  0.13267  0.68742  1.0000
  H   H3629     1.0  0.86006  0.28063  0.70107  1.0000
  H   H3630     1.0  0.84400  0.27639  0.58485  1.0000
  H   H3631     1.0  0.62414  0.27184  0.70428  1.0000
  H   H3632     1.0  0.92694  0.05301  0.69097  1.0000
  C   C2060     1.0  0.69438  0.24023  0.71745  1.0000
  C   C2061     1.0  0.91460  0.27337  0.66322  1.0000
  C   C2062     1.0  0.84686  0.01409  0.63725  1.0000
  H   H3633     1.0  0.60845  0.07725  0.66308  1.0000
  H   H3634     1.0  0.83587  0.20202  0.69416  1.0000
  C   C2063     1.0  0.61249  0.24277  0.72196  1.0000
  S   S462      1.0  0.78528  0.23468  0.68754  1.0000
  H   H3635     1.0  0.87930  0.20597  0.69252  1.0000
  H   H3636     1.0  0.93906  0.29773  0.57049  1.0000
  C   C2064     1.0  0.82041  0.02915  0.63759  1.0000
  H   H3637     1.0  0.95695  0.20760  0.69145  1.0000
  H   H3638     1.0  0.83334  0.00131  0.57755  1.0000
  H   H3639     1.0  0.77805  0.02146  0.57590  1.0000
  H   H3640     1.0  0.70133  0.15356  0.58444  1.0000
  C   C2065     1.0  0.72361  0.14457  0.56401  1.0000
  H   H3641     1.0  0.70715  0.14165  0.56072  1.0000
  H   H3642     1.0  0.83377  0.24747  0.69128  1.0000
  H   H3643     1.0  0.52202  0.11994  0.64742  1.0000
  H   H3644     1.0  0.93120  0.23417  0.66180  1.0000
  H   H3645     1.0  0.59847  0.08741  0.57711  1.0000
  C   C2066     1.0  0.74186  0.15580  0.55070  1.0000
  H   H3646     1.0  0.82885  0.28711  0.62161  1.0000
  S   S463      1.0  0.70103  0.09376  0.48792  1.0000
  H   H3647     1.0  0.62735  0.12946  0.59043  1.0000
  N   N114      1.0  0.91809  0.10582  0.69452  1.0000
  C   C2067     1.0  0.92989  0.09188  0.68228  1.0000
  C   C2068     1.0  0.93369  0.12431  0.69416  1.0000
  H   H3648     1.0  0.57142  0.10013  0.70569  1.0000
  C   C2069     1.0  0.89137  0.11852  0.69408  1.0000
  C   C2070     1.0  0.88421  0.12776  0.67884  1.0000
  C   C2071     1.0  0.91925  0.06871  0.68286  1.0000
  C   C2072     1.0  0.78936  0.08236  0.56010  1.0000
  C   C2073     1.0  0.93613  0.14499  0.68045  1.0000
  H   H3649     1.0  0.91735  0.24360  0.60377  1.0000
  C   C2074     1.0  0.85792  0.14318  0.67980  1.0000
  H   H3650     1.0  0.57388  0.15499  0.69352  1.0000
  H   H3651     1.0  0.95019  0.08539  0.68212  1.0000
  H   H3652     1.0  0.92888  0.10405  0.67152  1.0000
  H   H3653     1.0  0.92601  0.13438  0.70333  1.0000
  H   H3654     1.0  0.95269  0.11441  0.69571  1.0000
  C   C2075     1.0  0.58224  0.03384  0.70520  1.0000
  H   H3655     1.0  0.93780  0.07558  0.70855  1.0000
  C   C2076     1.0  0.98140  0.03290  0.71126  1.0000
  H   H3656     1.0  0.83587  0.01632  0.54823  1.0000
  H   H3657     1.0  0.88469  0.11184  0.67389  1.0000
  H   H3658     1.0  0.89697  0.13926  0.67131  1.0000
  H   H3659     1.0  0.89870  0.07226  0.68608  1.0000
  C   C2077     1.0  0.66610  0.28190  0.72851  1.0000
  C   C2078     1.0  0.81897  0.30474  0.65914  1.0000
  H   H3660     1.0  0.94083  0.13778  0.67024  1.0000
  H   H3661     1.0  0.91842  0.15878  0.68064  1.0000
  C   C2079     1.0  0.73055  0.14244  0.53119  1.0000
  H   H3662     1.0  0.74861  0.01456  0.55979  1.0000
  H   H3663     1.0  0.91487  0.23046  0.68567  1.0000
  C   C2080     1.0  0.56567  0.03278  0.57279  1.0000
  H   H3664     1.0  0.85691  0.16052  0.68350  1.0000
  H   H3665     1.0  0.95491  0.24814  0.67469  1.0000
  H   H3666     1.0  0.94695  0.05598  0.66485  1.0000
  H   H3667     1.0  0.74445  0.00560  0.57936  1.0000
  H   H3668     1.0  0.53372  0.07709  0.72647  1.0000
  N   N115      1.0  0.84227  0.30165  0.59898  1.0000
  Fe  Fe229     1.0  0.54277  0.00596  0.67904  1.0000
  C   C2081     1.0  0.91932  0.25036  0.65615  1.0000
  C   C2082     1.0  0.84580  0.19200  0.70276  1.0000
  H   H3669     1.0  0.90154  0.24512  0.65627  1.0000
  H   H3670     1.0  0.91040  0.26993  0.61251  1.0000
  H   H3671     1.0  0.77123  0.03974  0.64862  1.0000
  C   C2083     1.0  0.78785  0.18824  0.50999  1.0000
  H   H3672     1.0  0.70911  0.00011  0.57091  1.0000
  H   H3673     1.0  0.82338  0.26026  0.70758  1.0000
  N   N116      1.0  0.61973  0.05104  0.58459  1.0000
  C   C2084     1.0  0.59878  0.03844  0.58492  1.0000
  C   C2085     1.0  0.63259  0.03888  0.59741  1.0000
  C   C2086     1.0  0.60837  0.07750  0.58613  1.0000
  C   C2087     1.0  0.63832  0.05145  0.57047  1.0000
  C   C2088     1.0  0.64920  0.02623  0.56570  1.0000
  C   C2089     1.0  0.58356  0.04936  0.57259  1.0000
  C   C2090     1.0  0.62696  0.09385  0.58596  1.0000
  C   C2091     1.0  0.63290  0.01085  0.60349  1.0000
  H   H3674     1.0  0.86068  0.02529  0.63051  1.0000
  C   C2092     1.0  0.66709  0.02934  0.55109  1.0000
  C   C2093     1.0  0.96196  0.26171  0.72175  1.0000
  H   H3675     1.0  0.58543  0.03878  0.59547  1.0000
  H   H3676     1.0  0.60573  0.01855  0.58449  1.0000
  H   H3677     1.0  0.65212  0.04176  0.59485  1.0000
  H   H3678     1.0  0.62359  0.04785  0.60694  1.0000
  H   H3679     1.0  0.59414  0.07784  0.59636  1.0000
  H   H3680     1.0  0.63021  0.06458  0.56142  1.0000
  H   H3681     1.0  0.65452  0.05893  0.57106  1.0000
  C   C2094     1.0  0.82516  0.01113  0.54159  1.0000
  H   H3682     1.0  0.59745  0.02349  0.71106  1.0000
  H   H3683     1.0  0.57209  0.06780  0.57398  1.0000
  H   H3684     1.0  0.59581  0.05124  0.56172  1.0000
  H   H3685     1.0  0.64056  0.08440  0.59306  1.0000
  H   H3686     1.0  0.84331  0.03308  0.52211  1.0000
  H   H3687     1.0  0.66946  0.00148  0.60942  1.0000
  H   H3688     1.0  0.85282  0.14824  0.66889  1.0000
  H   H3689     1.0  0.55262  0.03056  0.58342  1.0000
  H   H3690     1.0  0.52174  0.11216  0.67393  1.0000
  H   H3691     1.0  0.57608  0.01425  0.57076  1.0000
  C   C2095     1.0  0.64986  0.00048  0.61464  1.0000
  H   H3692     1.0  0.97216  0.29908  0.54554  1.0000
  H   H3693     1.0  0.60226  0.16887  0.49507  1.0000
  H   H3694     1.0  0.76181  0.28611  0.70070  1.0000
  H   H3695     1.0  0.68355  0.03581  0.55212  1.0000
  N   N117      1.0  0.75164  0.14113  0.53866  1.0000
  Fe  Fe230     1.0  0.79567  0.22343  0.66583  1.0000
  H   H3696     1.0  0.82014  0.04555  0.65581  1.0000
  H   H3697     1.0  0.95677  0.17466  0.67087  1.0000
  H   H3698     1.0  0.54678  0.14377  0.70474  1.0000
  S   S464      1.0  0.52419  0.01453  0.70105  1.0000
  H   H3699     1.0  0.89429  0.11238  0.72268  1.0000
  H   H3700     1.0  0.79860  0.19150  0.51739  1.0000
  H   H3701     1.0  0.73277  0.12655  0.56976  1.0000
  H   H3702     1.0  0.63227  0.23498  0.72260  1.0000
  H   H3703     1.0  0.60130  0.06462  0.49983  1.0000
  H   H3704     1.0  0.83817  0.31193  0.55483  1.0000
  H   H3705     1.0  0.73008  0.16464  0.57906  1.0000
  H   H3706     1.0  0.67361  0.01130  0.54745  1.0000
  C   C2096     1.0  0.95798  0.22426  0.69525  1.0000
  H   H3707     1.0  0.81516  0.02547  0.52026  1.0000
  H   H3708     1.0  0.90261  0.28825  0.65677  1.0000
  C   C2097     1.0  0.56740  0.13952  0.70193  1.0000
  H   H3709     1.0  0.64472  0.17652  0.49240  1.0000
  H   H3710     1.0  0.80763  0.01658  0.64393  1.0000
  H   H3711     1.0  0.85905  0.28215  0.55752  1.0000
  C   C2098     1.0  0.81136  0.02666  0.59098  1.0000
  H   H3712     1.0  0.85087  0.00765  0.64842  1.0000
  C   C2099     1.0  0.86080  0.26439  0.69636  1.0000
  H   H3713     1.0  0.93443  0.23977  0.63513  1.0000
  C   C2100     1.0  0.77261  0.15208  0.52829  1.0000
  C   C2101     1.0  0.84738  0.16334  0.72568  1.0000
  H   H3714     1.0  0.65779  0.04288  0.54268  1.0000
  C   C2102     1.0  0.50960  0.07801  0.71197  1.0000
  H   H3715     1.0  0.56605  0.04098  0.71320  1.0000
  S   S465      1.0  0.80313  0.17449  0.71635  1.0000
  H   H3716     1.0  0.79018  0.31230  0.61101  1.0000
  C   C2103     1.0  0.92640  0.06049  0.66819  1.0000
  H   H3717     1.0  0.78671  0.99512  0.48432  1.0000
  H   H3718     1.0  0.54904  0.01279  0.49070  1.0000
  H   H3719     1.0  0.79093  0.25689  0.62360  1.0000
  H   H3720     1.0  0.65994  0.01357  0.57367  1.0000
  H   H3721     1.0  0.97511  0.14601  0.67867  1.0000
  H   H3722     1.0  0.92683  0.10636  0.72369  1.0000
  H   H3723     1.0  0.93243  0.27994  0.66120  1.0000
  H   H3724     1.0  0.82488  0.28061  0.69002  1.0000
  H   H3725     1.0  0.92520  0.30947  0.54675  1.0000
  H   H3726     1.0  0.73351  0.04404  0.67720  1.0000
  H   H3727     1.0  0.87978  0.29802  0.57258  1.0000
  H   H3728     1.0  0.88625  0.13459  0.69972  1.0000
  C   C2104     1.0  0.91709  0.24808  0.68798  1.0000
  H   H3729     1.0  0.86864  0.29811  0.61271  1.0000
  H   H3730     1.0  0.71559  0.15811  0.50375  1.0000
  H   H3731     1.0  0.94908  0.22263  0.70693  1.0000
  C   C2105     1.0  0.71729  0.13809  0.50860  1.0000
  N   N118      1.0  0.90281  0.27014  0.67914  1.0000
  C   C2106     1.0  0.52092  0.10134  0.65429  1.0000
  H   H3732     1.0  0.75344  0.19126  0.52536  1.0000
  H   H3733     1.0  0.73199  0.17465  0.54641  1.0000
  H   H3734     1.0  0.63933  0.99969  0.59487  1.0000
  H   H3735     1.0  0.75477  0.13428  0.51058  1.0000
  C   C2107     1.0  0.81477  0.28155  0.65864  1.0000
  C   C2108     1.0  0.91153  0.09802  0.72270  1.0000
  S   S466      1.0  0.94083  0.30200  0.48173  1.0000
  H   H3736     1.0  0.87837  0.10598  0.70035  1.0000
  H   H3737     1.0  0.84621  0.29491  0.48373  1.0000
  C   C2109     1.0  0.78395  0.27698  0.62357  1.0000
  H   H3738     1.0  0.80564  0.07936  0.56534  1.0000
  H   H3739     1.0  0.76386  0.28136  0.62313  1.0000
  S   S467      1.0  0.75612  0.22771  0.66319  1.0000
  C   C2110     1.0  0.85515  0.27332  0.64319  1.0000
  C   C2111     1.0  0.93245  0.25587  0.64029  1.0000
  H   H3740     1.0  0.86915  0.26120  0.63698  1.0000
  H   H3741     1.0  0.64405  0.01097  0.62364  1.0000
  C   C2112     1.0  0.76304  0.99088  0.62423  1.0000
  C   C2113     1.0  0.84144  0.29663  0.58444  1.0000
  C   C2114     1.0  0.82635  0.28621  0.61070  1.0000
  C   C2115     1.0  0.61350  0.11826  0.59069  1.0000
  H   H3742     1.0  0.71576  0.13336  0.53882  1.0000
  H   H3743     1.0  0.65796  0.14522  0.49013  1.0000
  C   C2116     1.0  0.73750  0.12980  0.51779  1.0000
  H   H3744     1.0  0.86849  0.24738  0.70363  1.0000
  S   S468      1.0  0.64507  0.08750  0.48783  1.0000
  H   H3745     1.0  0.68254  0.30291  0.70819  1.0000
  N   N119      1.0  0.79155  0.06944  0.64472  1.0000
  C   C2117     1.0  0.81661  0.05226  0.64450  1.0000
  C   C2118     1.0  0.79025  0.09104  0.65180  1.0000
  C   C2119     1.0  0.77233  0.05470  0.65393  1.0000
  C   C2120     1.0  0.78540  0.07854  0.62971  1.0000
  C   C2121     1.0  0.80417  0.09236  0.61818  1.0000
  H   H3746     1.0  0.97910  0.01451  0.71120  1.0000
  C   C2122     1.0  0.74535  0.06944  0.65722  1.0000
  C   C2123     1.0  0.81453  0.10095  0.64966  1.0000
  C   C2124     1.0  0.80938  0.12509  0.65529  1.0000
  C   C2125     1.0  0.79862  0.09642  0.60295  1.0000
  C   C2126     1.0  0.75788  0.25686  0.71973  1.0000
  C   C2127     1.0  0.60857  0.11643  0.65756  1.0000
  H   H3747     1.0  0.80010  0.17529  0.50308  1.0000
  H   H3748     1.0  0.83195  0.06207  0.63864  1.0000
  H   H3749     1.0  0.77560  0.10690  0.64823  1.0000
  H   H3750     1.0  0.78439  0.08601  0.66384  1.0000
  H   H3751     1.0  0.98266  0.29965  0.58882  1.0000
  H   H3752     1.0  0.77364  0.07661  0.56859  1.0000
  H   H3753     1.0  0.78251  0.06301  0.62546  1.0000
  H   H3754     1.0  0.76731  0.09178  0.63010  1.0000
  H   H3755     1.0  0.82353  0.08203  0.61778  1.0000
  H   H3756     1.0  0.80271  0.11093  0.62058  1.0000
  H   H3757     1.0  0.60072  0.12902  0.58325  1.0000
  H   H3758     1.0  0.60275  0.11477  0.60197  1.0000
  H   H3759     1.0  0.73831  0.07784  0.64704  1.0000
  H   H3760     1.0  0.74425  0.08430  0.66316  1.0000
  H   H3761     1.0  0.82774  0.08721  0.65589  1.0000
  H   H3762     1.0  0.82385  0.10447  0.63813  1.0000
  S   S469      1.0  0.91359  0.18575  0.71181  1.0000
  H   H3763     1.0  0.79745  0.13996  0.64881  1.0000
  H   H3764     1.0  0.77825  0.25012  0.71839  1.0000
  H   H3765     1.0  0.81201  0.10684  0.59498  1.0000
  H   H3766     1.0  0.80036  0.07841  0.59977  1.0000
  H   H3767     1.0  0.77959  0.10734  0.60250  1.0000
  H   H3768     1.0  0.74619  0.10526  0.55139  1.0000
  H   H3769     1.0  0.89796  0.29021  0.69650  1.0000
  H   H3770     1.0  0.81731  0.03458  0.62624  1.0000
  C   C2128     1.0  0.72680  0.98644  0.56942  1.0000
  C   C2129     1.0  0.61079  0.27008  0.71480  1.0000
  H   H3771     1.0  0.72747  0.03774  0.66092  1.0000
  H   H3772     1.0  0.78369  0.13919  0.52098  1.0000
  H   H3773     1.0  0.79035  0.00141  0.54253  1.0000
  H   H3774     1.0  0.79963  0.11514  0.54593  1.0000
  S   S470      1.0  0.95284  0.99261  0.67807  1.0000
  S   S471      1.0  0.82713  0.23747  0.64896  1.0000
  H   H3775     1.0  0.95125  0.25946  0.63958  1.0000
  H   H3776     1.0  0.77725  0.12030  0.56216  1.0000
  H   H3777     1.0  0.72129  0.16204  0.52793  1.0000
  C   C2130     1.0  0.76499  0.17772  0.51867  1.0000
  C   C2131     1.0  0.71430  0.16184  0.57498  1.0000
  H   H3778     1.0  0.72232  0.12755  0.49965  1.0000
  H   H3779     1.0  0.92153  0.27234  0.63418  1.0000
  C   C2132     1.0  0.78262  0.10970  0.55325  1.0000
  N   N120      1.0  0.57443  0.09452  0.67543  1.0000
  C   C2133     1.0  0.57053  0.06981  0.68496  1.0000
  C   C2134     1.0  0.56402  0.11531  0.68377  1.0000
  C   C2135     1.0  0.57652  0.11510  0.69644  1.0000
  C   C2136     1.0  0.59113  0.05513  0.69364  1.0000
  H   H3780     1.0  0.77778  0.04530  0.66457  1.0000
  H   H3781     1.0  0.60690  0.23345  0.71470  1.0000
  H   H3782     1.0  0.61315  0.08956  0.67713  1.0000
  H   H3783     1.0  0.55260  0.07219  0.69274  1.0000
  H   H3784     1.0  0.56889  0.05685  0.67829  1.0000
  H   H3785     1.0  0.54413  0.11525  0.68878  1.0000
  H   H3786     1.0  0.59699  0.11253  0.69323  1.0000
  C   C2137     1.0  0.86842  0.29486  0.60184  1.0000
  H   H3787     1.0  0.60758  0.04699  0.68612  1.0000
  H   H3788     1.0  0.59734  0.06689  0.69917  1.0000
  H   H3789     1.0  0.57693  0.02078  0.70007  1.0000
  H   H3790     1.0  0.75039  0.24668  0.71377  1.0000
  H   H3791     1.0  0.90922  0.24704  0.69978  1.0000
  C   C2138     1.0  0.95669  0.15861  0.68009  1.0000
  H   H3792     1.0  0.78861  0.99323  0.58745  1.0000
  H   H3793     1.0  0.92193  0.29729  0.68163  1.0000
  H   H3794     1.0  0.95372  0.16550  0.69033  1.0000
  H   H3795     1.0  0.75739  0.15904  0.55485  1.0000
  C   C2139     1.0  0.85917  0.29673  0.64349  1.0000
  C   C2140     1.0  0.64257  0.16109  0.48789  1.0000
  H   H3796     1.0  0.83245  0.26626  0.61002  1.0000
  C   C2141     1.0  0.87184  0.16587  0.72488  1.0000
  H   H3797     1.0  0.87102  0.30953  0.54795  1.0000
  H   H3798     1.0  0.55573  0.07883  0.50267  1.0000
  H   H3799     1.0  0.76199  0.29501  0.71742  1.0000
  H   H3800     1.0  0.59176  0.27823  0.71266  1.0000
  C   C2142     1.0  0.76610  0.08364  0.48100  1.0000
  H   H3801     1.0  0.86583  0.31558  0.68163  1.0000
  H   H3802     1.0  0.97875  0.26323  0.52693  1.0000
  C   C2143     1.0  0.84104  0.31248  0.65149  1.0000
  H   H3803     1.0  0.96700  0.28032  0.71882  1.0000
  S   S472      1.0  0.99081  0.04075  0.68115  1.0000
  H   H3804     1.0  0.81371  0.04908  0.53039  1.0000
  C   C2144     1.0  0.98680  0.08076  0.71154  1.0000
  C   C2145     1.0  0.81622  0.01573  0.57729  1.0000
  Fe  Fe231     1.0  0.98878  0.00235  0.67889  1.0000
  C   C2146     1.0  0.77765  0.10364  0.47994  1.0000
  H   H3805     1.0  0.83580  0.99359  0.53821  1.0000
  H   H3806     1.0  0.78727  0.02673  0.55092  1.0000
  H   H3807     1.0  0.98777  0.30593  0.52722  1.0000
  H   H3808     1.0  0.84831  0.21476  0.48159  1.0000
  Fe  Fe232     1.0  0.50101  0.98682  0.70212  1.0000
  H   H3809     1.0  0.82739  0.03481  0.59103  1.0000
  C   C2147     1.0  0.79864  0.00797  0.54999  1.0000
  H   H3810     1.0  0.51680  0.05906  0.71079  1.0000
  H   H3811     1.0  0.84432  0.07352  0.48313  1.0000
  H   H3812     1.0  0.80487  0.31689  0.66532  1.0000
  H   H3813     1.0  0.81939  0.03093  0.56786  1.0000
  C   C2148     1.0  0.86396  0.22347  0.48036  1.0000
  C   C2149     1.0  0.98032  0.06482  0.72469  1.0000
  C   C2150     1.0  0.56424  0.06134  0.49931  1.0000
  H   H3814     1.0  0.78608  0.28099  0.63390  1.0000
  H   H3815     1.0  0.84898  0.99752  0.63246  1.0000
  Fe  Fe233     1.0  0.49597  0.04167  0.68948  1.0000
  H   H3816     1.0  0.56335  0.22796  0.72421  1.0000
  H   H3817     1.0  0.61555  0.28049  0.72186  1.0000
  H   H3818     1.0  0.97788  0.22482  0.69420  1.0000
  C   C2151     1.0  0.88568  0.31717  0.67820  1.0000
  C   C2152     1.0  0.97791  0.04077  0.72452  1.0000
  H   H3819     1.0  0.83670  0.31628  0.50468  1.0000
  C   C2153     1.0  0.98770  0.04897  0.69811  1.0000
  C   C2154     1.0  0.99067  0.07278  0.69832  1.0000
  H   H3820     1.0  0.98907  0.09915  0.71156  1.0000
  N   N121      1.0  0.79663  0.99100  0.56476  1.0000
  C   C2155     1.0  0.99098  0.29857  0.53857  1.0000
  H   H3821     1.0  0.65767  0.31232  0.67868  1.0000
  H   H3822     1.0  0.85990  0.98866  0.48097  1.0000
  H   H3823     1.0  0.80894  0.01202  0.60088  1.0000
  Fe  Fe234     1.0  0.86724  0.10318  0.88224  1.0000
  S   S473      1.0  0.87710  0.07442  0.90142  1.0000
  S   S474      1.0  0.83264  0.13297  0.88400  1.0000
  Fe  Fe235     1.0  0.91690  0.08778  0.86289  1.0000
  S   S475      1.0  0.93072  0.05847  0.88090  1.0000
  S   S476      1.0  0.94503  0.09196  0.84195  1.0000
  Fe  Fe236     1.0  0.89293  0.04898  0.88536  1.0000
  S   S477      1.0  0.88899  0.00876  0.89221  1.0000
  Fe  Fe237     1.0  0.91373  0.08668  0.89508  1.0000
  H   H3824     1.0  0.70198  0.25245  0.75717  1.0000
  S   S478      1.0  0.87982  0.07676  0.86650  1.0000
  S   S479      1.0  0.90315  0.11675  0.87666  1.0000
  H   H3825     1.0  0.57223  0.13837  0.95899  1.0000
  C   C2156     1.0  0.59581  0.23962  0.73732  1.0000
  S   S480      1.0  0.71373  0.06090  0.96053  1.0000
  H   H3826     1.0  0.56059  0.10099  0.84826  1.0000
  S   S481      1.0  0.78624  0.15542  0.94720  1.0000
  Fe  Fe238     1.0  0.62521  0.19231  0.89847  1.0000
  S   S482      1.0  0.58382  0.20716  0.90130  1.0000
  S   S483      1.0  0.66138  0.20594  0.88928  1.0000
  Fe  Fe239     1.0  0.61905  0.14010  0.91300  1.0000
  S   S484      1.0  0.57747  0.14957  0.91762  1.0000
  S   S485      1.0  0.64170  0.10150  0.91583  1.0000
  Fe  Fe240     1.0  0.58112  0.17205  0.89507  1.0000
  S   S486      1.0  0.55349  0.17161  0.88154  1.0000
  Fe  Fe241     1.0  0.58218  0.18382  0.92373  1.0000
  S   S487      1.0  0.55556  0.19519  0.94356  1.0000
  S   S488      1.0  0.62241  0.15981  0.88981  1.0000
  S   S489      1.0  0.62365  0.17178  0.92155  1.0000
  H   H3827     1.0  0.63831  0.29199  0.92346  1.0000
  H   H3828     1.0  0.58127  0.29419  0.85662  1.0000
  H   H3829     1.0  0.49674  0.22190  0.92447  1.0000
  H   H3830     1.0  0.50855  0.14822  0.80988  1.0000
  H   H3831     1.0  0.95616  0.29649  0.75393  1.0000
  C   C2157     1.0  0.70927  0.23345  0.76267  1.0000
  H   H3832     1.0  0.55703  0.30063  0.81530  1.0000
  S   S490      1.0  0.52993  0.06618  0.88375  1.0000
  C   C2158     1.0  0.85654  0.03096  0.94357  1.0000
  H   H3833     1.0  0.87986  0.28917  0.96801  1.0000
  Fe  Fe242     1.0  0.62146  0.28576  0.76390  1.0000
  C   C2159     1.0  0.79007  0.20731  0.75797  1.0000
  H   H3834     1.0  0.98577  0.07477  0.87485  1.0000
  H   H3835     1.0  0.57479  0.19455  0.76492  1.0000
  Fe  Fe243     1.0  0.93665  0.14999  0.76210  1.0000
  H   H3836     1.0  0.74764  0.26769  0.74089  1.0000
  S   S491      1.0  0.91095  0.15371  0.78371  1.0000
  C   C2160     1.0  0.97360  0.14203  0.91164  1.0000
  H   H3837     1.0  0.63767  0.29590  0.87199  1.0000
  Fe  Fe244     1.0  0.98173  0.16443  0.73982  1.0000
  H   H3838     1.0  0.81841  0.26462  0.94972  1.0000
  C   C2161     1.0  0.54801  0.07384  0.84144  1.0000
  H   H3839     1.0  0.70843  0.29921  0.94376  1.0000
  C   C2162     1.0  0.54127  0.11950  0.82989  1.0000
  H   H3840     1.0  0.74290  0.14600  0.74637  1.0000
  C   C2163     1.0  0.89985  0.98827  0.81070  1.0000
  H   H3841     1.0  0.87643  0.14681  0.96217  1.0000
  H   H3842     1.0  0.72444  0.25712  0.73558  1.0000
  H   H3843     1.0  0.86400  0.17890  0.95914  1.0000
  H   H3844     1.0  0.85748  0.01170  0.94986  1.0000
  C   C2164     1.0  0.90740  0.07783  0.73621  1.0000
  H   H3845     1.0  0.88223  0.02195  0.81814  1.0000
  C   C2165     1.0  0.96700  0.17853  0.78392  1.0000
  C   C2166     1.0  0.52392  0.27321  0.76737  1.0000
  C   C2167     1.0  0.58534  0.05218  0.94767  1.0000
  H   H3846     1.0  0.93204  0.25178  0.90452  1.0000
  C   C2168     1.0  0.73806  0.22833  0.76038  1.0000
  H   H3847     1.0  0.85560  0.24442  0.95376  1.0000
  C   C2169     1.0  0.97794  0.25226  0.74533  1.0000
  C   C2170     1.0  0.88314  0.29610  0.94418  1.0000
  C   C2171     1.0  0.94526  0.16176  0.89515  1.0000
  C   C2172     1.0  0.74460  0.25305  0.73591  1.0000
  H   H3848     1.0  0.99009  0.26539  0.94862  1.0000
  H   H3849     1.0  0.57662  0.24978  0.73644  1.0000
  H   H3850     1.0  0.95038  0.23519  0.74033  1.0000
  H   H3851     1.0  0.70275  0.21996  0.75852  1.0000
  H   H3852     1.0  0.66307  0.16280  0.74890  1.0000
  C   C2173     1.0  0.87664  0.27033  0.92825  1.0000
  H   H3853     1.0  0.50888  0.19085  0.79501  1.0000
  C   C2174     1.0  0.60109  0.19477  0.96490  1.0000
  C   C2175     1.0  0.68518  0.24864  0.91202  1.0000
  H   H3854     1.0  0.92335  0.29753  0.78426  1.0000
  C   C2176     1.0  0.53523  0.09575  0.88379  1.0000
  C   C2177     1.0  0.51838  0.11757  0.87993  1.0000
  C   C2178     1.0  0.52395  0.14079  0.87943  1.0000
  C   C2179     1.0  0.54616  0.14231  0.88304  1.0000
  C   C2180     1.0  0.56262  0.12048  0.88733  1.0000
  C   C2181     1.0  0.55722  0.09735  0.88762  1.0000
  C   C2182     1.0  0.68168  0.31503  0.81138  1.0000
  H   H3855     1.0  0.93896  0.18587  0.86001  1.0000
  H   H3856     1.0  0.57979  0.12138  0.89016  1.0000
  H   H3857     1.0  0.57029  0.08058  0.89068  1.0000
  C   C2183     1.0  0.54761  0.22695  0.94412  1.0000
  C   C2184     1.0  0.55777  0.24428  0.93278  1.0000
  C   C2185     1.0  0.55178  0.26945  0.93364  1.0000
  C   C2186     1.0  0.53589  0.27742  0.94590  1.0000
  C   C2187     1.0  0.56757  0.22029  0.78551  1.0000
  H   H3858     1.0  0.91539  0.00351  0.83146  1.0000
  H   H3859     1.0  0.57043  0.23832  0.92342  1.0000
  H   H3860     1.0  0.55941  0.28276  0.92473  1.0000
  C   C2188     1.0  0.89104  0.98917  0.87998  1.0000
  C   C2189     1.0  0.64592  0.28632  0.97474  1.0000
  H   H3861     1.0  0.79946  0.04598  0.88965  1.0000
  C   C2190     1.0  0.65254  0.28005  0.87250  1.0000
  C   C2191     1.0  0.64720  0.25663  0.87976  1.0000
  C   C2192     1.0  0.66623  0.23567  0.87991  1.0000
  C   C2193     1.0  0.69040  0.23819  0.87271  1.0000
  C   C2194     1.0  0.69571  0.26149  0.86561  1.0000
  S   S492      1.0  0.73333  0.21638  0.94793  1.0000
  H   H3862     1.0  0.62850  0.25483  0.88527  1.0000
  H   H3863     1.0  0.70520  0.22206  0.87273  1.0000
  Fe  Fe245     1.0  0.77054  0.19400  0.95181  1.0000
  H   H3864     1.0  0.61491  0.26341  0.85939  1.0000
  H   H3865     1.0  0.54339  0.24538  0.87792  1.0000
  H   H3866     1.0  0.78410  0.18921  0.76138  1.0000
  H   H3867     1.0  0.52906  0.24138  0.84966  1.0000
  C   C2195     1.0  0.69573  0.07507  0.94716  1.0000
  C   C2196     1.0  0.67640  0.09544  0.94914  1.0000
  C   C2197     1.0  0.66060  0.10493  0.93899  1.0000
  C   C2198     1.0  0.66371  0.09355  0.92714  1.0000
  C   C2199     1.0  0.68365  0.07388  0.92489  1.0000
  C   C2200     1.0  0.69996  0.06503  0.93470  1.0000
  H   H3868     1.0  0.67346  0.10367  0.95859  1.0000
  H   H3869     1.0  0.64545  0.12032  0.94069  1.0000
  H   H3870     1.0  0.68609  0.06503  0.91573  1.0000
  H   H3871     1.0  0.71489  0.04935  0.93311  1.0000
  C   C2201     1.0  0.87685  0.30504  0.95890  1.0000
  H   H3872     1.0  0.98080  0.18429  0.84651  1.0000
  C   C2202     1.0  0.58334  0.22657  0.77038  1.0000
  C   C2203     1.0  0.88958  0.22174  0.97172  1.0000
  C   C2204     1.0  0.67696  0.28266  0.86568  1.0000
  S   S493      1.0  0.79047  0.22590  0.94400  1.0000
  H   H3873     1.0  0.60243  0.24991  0.74370  1.0000
  H   H3874     1.0  0.98649  0.30249  0.95915  1.0000
  C   C2205     1.0  0.54420  0.10014  0.84407  1.0000
  C   C2206     1.0  0.63484  0.25823  0.96125  1.0000
  H   H3875     1.0  0.73960  0.18045  0.75853  1.0000
  C   C2207     1.0  0.82064  0.13960  0.90157  1.0000
  C   C2208     1.0  0.80941  0.16391  0.90334  1.0000
  C   C2209     1.0  0.79902  0.16919  0.91731  1.0000
  C   C2210     1.0  0.79939  0.15006  0.92950  1.0000
  C   C2211     1.0  0.81043  0.12580  0.92770  1.0000
  C   C2212     1.0  0.82126  0.12062  0.91382  1.0000
  H   H3876     1.0  0.80885  0.17866  0.89388  1.0000
  H   H3877     1.0  0.79043  0.18795  0.91864  1.0000
  H   H3878     1.0  0.81052  0.11091  0.93710  1.0000
  H   H3879     1.0  0.82947  0.10184  0.91258  1.0000
  H   H3880     1.0  0.87059  0.25269  0.92890  1.0000
  C   C2213     1.0  0.95192  0.26106  0.76912  1.0000
  H   H3881     1.0  0.90977  0.19554  0.84272  1.0000
  N   N122      1.0  0.75207  0.22779  0.74500  1.0000
  H   H3882     1.0  0.95645  0.02265  0.79489  1.0000
  H   H3883     1.0  0.87889  0.01822  0.86283  1.0000
  Fe  Fe246     1.0  0.96597  0.11558  0.74166  1.0000
  C   C2214     1.0  0.93536  0.10965  0.82596  1.0000
  C   C2215     1.0  0.91106  0.12294  0.82616  1.0000
  C   C2216     1.0  0.90381  0.13651  0.81312  1.0000
  C   C2217     1.0  0.92071  0.13660  0.79985  1.0000
  C   C2218     1.0  0.94504  0.12334  0.79971  1.0000
  C   C2219     1.0  0.95241  0.11014  0.81277  1.0000
  H   H3884     1.0  0.89785  0.12276  0.83632  1.0000
  H   H3885     1.0  0.88497  0.14680  0.81328  1.0000
  H   H3886     1.0  0.95820  0.12333  0.78957  1.0000
  H   H3887     1.0  0.97126  0.09989  0.81259  1.0000
  H   H3888     1.0  0.87926  0.98934  0.84689  1.0000
  C   C2220     1.0  0.62382  0.05241  0.95651  1.0000
  H   H3889     1.0  0.89159  0.06937  0.73616  1.0000
  C   C2221     1.0  0.69752  0.23149  0.77879  1.0000
  H   H3890     1.0  0.74324  0.24271  0.76461  1.0000
  H   H3891     1.0  0.74345  0.21060  0.76780  1.0000
  H   H3892     1.0  0.78342  0.21727  0.76721  1.0000
  C   C2222     1.0  0.53116  0.23494  0.95622  1.0000
  H   H3893     1.0  0.70294  0.24509  0.78347  1.0000
  H   H3894     1.0  0.64196  0.24179  0.96918  1.0000
  C   C2223     1.0  0.58614  0.24282  0.85954  1.0000
  C   C2224     1.0  0.54085  0.25393  0.86658  1.0000
  C   C2225     1.0  0.56899  0.28007  0.87962  1.0000
  H   H3895     1.0  0.60168  0.18865  0.95470  1.0000
  C   C2226     1.0  0.53335  0.23409  0.86070  1.0000
  S   S494      1.0  0.49577  0.06425  0.82237  1.0000
  C   C2227     1.0  0.63282  0.22747  0.85488  1.0000
  H   H3896     1.0  0.58565  0.23366  0.87111  1.0000
  H   H3897     1.0  0.58514  0.26509  0.88167  1.0000
  H   H3898     1.0  0.55211  0.27459  0.88706  1.0000
  H   H3899     1.0  0.53537  0.09280  0.76494  1.0000
  H   H3900     1.0  0.66793  0.99744  0.95424  1.0000
  H   H3901     1.0  0.51547  0.16757  0.78413  1.0000
  H   H3902     1.0  0.81142  0.06575  0.91385  1.0000
  H   H3903     1.0  0.85478  0.02179  0.91723  1.0000
  C   C2228     1.0  0.95558  0.25352  0.73825  1.0000
  H   H3904     1.0  0.63201  0.21458  0.84802  1.0000
  H   H3905     1.0  0.65110  0.23334  0.85129  1.0000
  H   H3906     1.0  0.77720  0.06089  0.90324  1.0000
  H   H3907     1.0  0.71934  0.17175  0.74049  1.0000
  H   H3908     1.0  0.61554  0.26541  0.96658  1.0000
  C   C2229     1.0  0.83691  0.02096  0.92511  1.0000
  S   S495      1.0  0.97695  0.13156  0.75804  1.0000
  N   N123      1.0  0.87045  0.16255  0.94016  1.0000
  C   C2230     1.0  0.86661  0.14001  0.93587  1.0000
  C   C2231     1.0  0.85432  0.18507  0.93279  1.0000
  C   C2232     1.0  0.89763  0.16395  0.93557  1.0000
  C   C2233     1.0  0.86303  0.16121  0.95638  1.0000
  C   C2234     1.0  0.83638  0.15664  0.96333  1.0000
  C   C2235     1.0  0.87968  0.11461  0.94351  1.0000
  C   C2236     1.0  0.90474  0.18683  0.93854  1.0000
  C   C2237     1.0  0.86233  0.19259  0.91607  1.0000
  C   C2238     1.0  0.84449  0.21550  0.90999  1.0000
  C   C2239     1.0  0.77991  0.22317  0.74434  1.0000
  C   C2240     1.0  0.87243  0.09337  0.93926  1.0000
  C   C2241     1.0  0.93164  0.18869  0.93155  1.0000
  H   H3909     1.0  0.87341  0.14071  0.92400  1.0000
  H   H3910     1.0  0.84647  0.13981  0.93768  1.0000
  H   H3911     1.0  0.83490  0.18205  0.93474  1.0000
  H   H3912     1.0  0.85272  0.20146  0.93767  1.0000
  H   H3913     1.0  0.90436  0.16286  0.92388  1.0000
  H   H3914     1.0  0.90910  0.14757  0.94143  1.0000
  H   H3915     1.0  0.52457  0.18257  0.91936  1.0000
  C   C2242     1.0  0.76369  0.00753  0.94997  1.0000
  H   H3916     1.0  0.65911  0.17893  0.76365  1.0000
  H   H3917     1.0  0.82236  0.17168  0.95855  1.0000
  H   H3918     1.0  0.90018  0.11253  0.94023  1.0000
  H   H3919     1.0  0.87460  0.11226  0.95550  1.0000
  H   H3920     1.0  0.90291  0.18532  0.95042  1.0000
  H   H3921     1.0  0.89277  0.20429  0.93426  1.0000
  H   H3922     1.0  0.88115  0.19718  0.91307  1.0000
  H   H3923     1.0  0.86233  0.17745  0.91059  1.0000
  H   H3924     1.0  0.82533  0.21182  0.91229  1.0000
  H   H3925     1.0  0.84431  0.23150  0.91482  1.0000
  H   H3926     1.0  0.85047  0.22045  0.89801  1.0000
  H   H3927     1.0  0.68107  0.26896  0.90811  1.0000
  H   H3928     1.0  0.87558  0.21059  0.97213  1.0000
  H   H3929     1.0  0.85238  0.09316  0.94344  1.0000
  N   N124      1.0  0.81587  0.02582  0.91697  1.0000
  H   H3930     1.0  0.88344  0.07547  0.94393  1.0000
  H   H3931     1.0  0.92442  0.06321  0.73669  1.0000
  H   H3932     1.0  0.93686  0.20398  0.93483  1.0000
  H   H3933     1.0  0.94451  0.17120  0.93501  1.0000
  N   N125      1.0  0.92620  0.03854  0.82091  1.0000
  C   C2243     1.0  0.93451  0.05305  0.80593  1.0000
  C   C2244     1.0  0.90363  0.05380  0.82895  1.0000
  C   C2245     1.0  0.94710  0.03350  0.82920  1.0000
  H   H3934     1.0  0.52741  0.10299  0.85260  1.0000
  H   H3935     1.0  0.77595  0.02868  0.92090  1.0000
  C   C2246     1.0  0.83463  0.03861  0.93565  1.0000
  C   C2247     1.0  0.94090  0.02251  0.84576  1.0000
  C   C2248     1.0  0.88495  0.07167  0.81982  1.0000
  C   C2249     1.0  0.86162  0.08304  0.82959  1.0000
  H   H3936     1.0  0.98373  0.20645  0.75923  1.0000
  H   H3937     1.0  0.51410  0.14310  0.85248  1.0000
  H   H3938     1.0  0.85424  0.04346  0.95128  1.0000
  H   H3939     1.0  0.93756  0.07124  0.80689  1.0000
  H   H3940     1.0  0.91983  0.05766  0.79932  1.0000
  H   H3941     1.0  0.89320  0.04148  0.83784  1.0000
  H   H3942     1.0  0.90952  0.06613  0.83441  1.0000
  H   H3943     1.0  0.95402  0.05085  0.82803  1.0000
  C   C2250     1.0  0.81560  0.05112  0.90729  1.0000
  H   H3944     1.0  0.63419  0.19813  0.73726  1.0000
  H   H3945     1.0  0.60307  0.22115  0.77153  1.0000
  H   H3946     1.0  0.55860  0.22370  0.75747  1.0000
  C   C2251     1.0  0.79095  0.02619  0.92709  1.0000
  H   H3947     1.0  0.54889  0.30011  0.86276  1.0000
  H   H3948     1.0  0.66520  0.31105  0.80872  1.0000
  C   C2252     1.0  0.97281  0.29078  0.96333  1.0000
  H   H3949     1.0  0.92534  0.03479  0.85156  1.0000
  H   H3950     1.0  0.89357  0.08721  0.81280  1.0000
  H   H3951     1.0  0.87912  0.06237  0.81270  1.0000
  H   H3952     1.0  0.85202  0.06838  0.83687  1.0000
  H   H3953     1.0  0.86650  0.09404  0.83625  1.0000
  H   H3954     1.0  0.84865  0.09565  0.82277  1.0000
  H   H3955     1.0  0.51070  0.17354  0.84232  1.0000
  H   H3956     1.0  0.96968  0.10501  0.92303  1.0000
  H   H3957     1.0  0.62997  0.21396  0.75153  1.0000
  H   H3958     1.0  0.54363  0.07560  0.75034  1.0000
  H   H3959     1.0  0.79987  0.31225  0.92900  1.0000
  H   H3960     1.0  0.78512  0.09015  0.88014  1.0000
  S   S496      1.0  0.52046  0.12484  0.73463  1.0000
  H   H3961     1.0  0.59071  0.30835  0.87724  1.0000
  H   H3962     1.0  0.57907  0.01646  0.97237  1.0000
  C   C2253     1.0  0.65104  0.27728  0.96042  1.0000
  H   H3963     1.0  0.50112  0.11651  0.87729  1.0000
  S   S497      1.0  0.74412  0.25726  0.96445  1.0000
  N   N126      1.0  0.72277  0.14900  0.91144  1.0000
  C   C2254     1.0  0.74077  0.16634  0.90845  1.0000
  C   C2255     1.0  0.73566  0.12304  0.91700  1.0000
  C   C2256     1.0  0.71626  0.14900  0.89710  1.0000
  C   C2257     1.0  0.69912  0.15663  0.92190  1.0000
  C   C2258     1.0  0.70129  0.16907  0.93415  1.0000
  C   C2259     1.0  0.73175  0.19299  0.90036  1.0000
  C   C2260     1.0  0.69859  0.13147  0.89755  1.0000
  C   C2261     1.0  0.74376  0.11834  0.93183  1.0000
  C   C2262     1.0  0.76025  0.09281  0.93483  1.0000
  C   C2263     1.0  0.67810  0.16911  0.94609  1.0000
  C   C2264     1.0  0.74643  0.21133  0.90192  1.0000
  C   C2265     1.0  0.69073  0.13568  0.88291  1.0000
  H   H3964     1.0  0.75873  0.15877  0.90175  1.0000
  H   H3965     1.0  0.74585  0.16777  0.91859  1.0000
  H   H3966     1.0  0.72333  0.10960  0.91860  1.0000
  H   H3967     1.0  0.75232  0.11731  0.90877  1.0000
  H   H3968     1.0  0.73347  0.14439  0.88897  1.0000
  H   H3969     1.0  0.70677  0.16782  0.89247  1.0000
  H   H3970     1.0  0.68512  0.17000  0.91599  1.0000
  H   H3971     1.0  0.69025  0.14031  0.92707  1.0000
  H   H3972     1.0  0.70337  0.18856  0.92967  1.0000
  H   H3973     1.0  0.71742  0.15983  0.93935  1.0000
  H   H3974     1.0  0.73425  0.19317  0.88856  1.0000
  H   H3975     1.0  0.71177  0.19964  0.90442  1.0000
  H   H3976     1.0  0.68144  0.13470  0.90585  1.0000
  H   H3977     1.0  0.70782  0.11175  0.89994  1.0000
  H   H3978     1.0  0.75444  0.13204  0.93231  1.0000
  H   H3979     1.0  0.72712  0.11876  0.94071  1.0000
  H   H3980     1.0  0.75062  0.07817  0.93432  1.0000
  H   H3981     1.0  0.77793  0.09191  0.92678  1.0000
  H   H3982     1.0  0.76458  0.08930  0.94588  1.0000
  H   H3983     1.0  0.67934  0.17983  0.95404  1.0000
  H   H3984     1.0  0.66109  0.17763  0.94148  1.0000
  H   H3985     1.0  0.67674  0.14991  0.95192  1.0000
  H   H3986     1.0  0.76640  0.20591  0.89721  1.0000
  H   H3987     1.0  0.73936  0.23012  0.89600  1.0000
  H   H3988     1.0  0.74437  0.21224  0.91354  1.0000
  H   H3989     1.0  0.70720  0.13191  0.87423  1.0000
  H   H3990     1.0  0.67802  0.12299  0.88361  1.0000
  H   H3991     1.0  0.68069  0.15502  0.87999  1.0000
  H   H3992     1.0  0.78392  0.28702  0.93758  1.0000
  H   H3993     1.0  0.90185  0.26544  0.90002  1.0000
  H   H3994     1.0  0.95830  0.01109  0.86468  1.0000
  H   H3995     1.0  0.57414  0.29917  0.89539  1.0000
  H   H3996     1.0  0.71455  0.26319  0.86027  1.0000
  S   S498      1.0  0.61586  0.30024  0.81373  1.0000
  S   S499      1.0  0.76306  0.19757  0.97522  1.0000
  C   C2266     1.0  0.82226  0.27979  0.94035  1.0000
  H   H3997     1.0  0.88191  0.31276  0.93530  1.0000
  H   H3998     1.0  0.85740  0.31511  0.96123  1.0000
  C   C2267     1.0  0.91170  0.25409  0.90880  1.0000
  S   S500      1.0  0.74591  0.27634  0.92157  1.0000
  C   C2268     1.0  0.56580  0.28539  0.86356  1.0000
  H   H3999     1.0  0.98315  0.27071  0.74155  1.0000
  Fe  Fe247     1.0  0.75239  0.24890  0.94201  1.0000
  H   H4000     1.0  0.65853  0.29916  0.97393  1.0000
  H   H4001     1.0  0.91064  0.28511  0.91819  1.0000
  H   H4002     1.0  0.93386  0.19271  0.91954  1.0000
  H   H4003     1.0  0.67108  0.26861  0.95816  1.0000
  C   C2269     1.0  0.96528  0.16222  0.90126  1.0000
  H   H4004     1.0  0.90314  0.28741  0.94282  1.0000
  S   S501      1.0  0.50677  0.03024  0.86133  1.0000
  H   H4005     1.0  0.72603  0.21445  0.73700  1.0000
  H   H4006     1.0  0.96668  0.07545  0.78261  1.0000
  H   H4007     1.0  0.93829  0.17765  0.88745  1.0000
  H   H4008     1.0  0.52200  0.28523  0.84412  1.0000
  H   H4009     1.0  0.57283  0.20033  0.79020  1.0000
  H   H4010     1.0  0.81776  0.08417  0.88063  1.0000
  H   H4011     1.0  0.78638  0.24101  0.74242  1.0000
  H   H4012     1.0  0.54004  0.30898  0.84060  1.0000
  H   H4013     1.0  0.94925  0.21454  0.78837  1.0000
  H   H4014     1.0  0.71872  0.29640  0.89861  1.0000
  H   H4015     1.0  0.51340  0.21800  0.88182  1.0000
  H   H4016     1.0  0.69699  0.31505  0.80176  1.0000
  H   H4017     1.0  0.65539  0.29794  0.73286  1.0000
  H   H4018     1.0  0.56427  0.25508  0.83704  1.0000
  H   H4019     1.0  0.89382  0.19016  0.86140  1.0000
  H   H4020     1.0  0.55752  0.13977  0.84840  1.0000
  H   H4021     1.0  0.78967  0.30597  0.94854  1.0000
  H   H4022     1.0  0.52083  0.04346  0.76559  1.0000
  C   C2270     1.0  0.88468  0.99849  0.86628  1.0000
  C   C2271     1.0  0.60061  0.30656  0.92194  1.0000
  C   C2272     1.0  0.71640  0.29584  0.92128  1.0000
  H   H4023     1.0  0.62328  0.01218  0.95975  1.0000
  H   H4024     1.0  0.51408  0.05894  0.78072  1.0000
  H   H4025     1.0  0.70325  0.21250  0.78493  1.0000
  C   C2273     1.0  0.50138  0.24791  0.76009  1.0000
  C   C2274     1.0  0.58807  0.19841  0.73659  1.0000
  H   H4026     1.0  0.83849  0.15136  0.73493  1.0000
  H   H4027     1.0  0.97303  0.02830  0.73466  1.0000
  H   H4028     1.0  0.67694  0.23555  0.78008  1.0000
  S   S502      1.0  0.50342  0.18149  0.75451  1.0000
  C   C2275     1.0  0.90736  0.18133  0.85283  1.0000
  H   H4029     1.0  0.58286  0.19290  0.97213  1.0000
  N   N127      1.0  0.59570  0.21328  0.74529  1.0000
  H   H4030     1.0  0.80330  0.99719  0.94524  1.0000
  H   H4031     1.0  0.54750  0.22487  0.78501  1.0000
  H   H4032     1.0  0.83321  0.29911  0.95358  1.0000
  H   H4033     1.0  0.58824  0.23332  0.95693  1.0000
  H   H4034     1.0  0.58393  0.19728  0.84138  1.0000
  C   C2276     1.0  0.57736  0.21366  0.75946  1.0000
  C   C2277     1.0  0.58272  0.05423  0.97324  1.0000
  C   C2278     1.0  0.79748  0.29741  0.93879  1.0000
  H   H4035     1.0  0.50587  0.21064  0.86645  1.0000
  C   C2279     1.0  0.99246  0.13490  0.83706  1.0000
  H   H4036     1.0  0.83249  0.01321  0.89661  1.0000
  H   H4037     1.0  0.64757  0.29360  0.95180  1.0000
  C   C2280     1.0  0.61473  0.26779  0.93962  1.0000
  H   H4038     1.0  0.64423  0.21168  0.95608  1.0000
  H   H4039     1.0  0.78485  0.28467  0.97430  1.0000
  H   H4040     1.0  0.49464  0.20966  0.94321  1.0000
  H   H4041     1.0  0.86786  0.28395  0.91959  1.0000
  H   H4042     1.0  0.90375  0.02556  0.80089  1.0000
  H   H4043     1.0  0.57916  0.24698  0.76666  1.0000
  H   H4044     1.0  0.67828  0.21910  0.73771  1.0000
  H   H4045     1.0  0.92813  0.15755  0.86825  1.0000
  H   H4046     1.0  0.52611  0.11554  0.82580  1.0000
  C   C2281     1.0  0.96696  0.20607  0.78195  1.0000
  H   H4047     1.0  0.57900  0.27965  0.83598  1.0000
  H   H4048     1.0  0.63407  0.30402  0.83796  1.0000
  H   H4049     1.0  0.56702  0.04829  0.92384  1.0000
  H   H4050     1.0  0.61402  0.25888  0.84174  1.0000
  C   C2282     1.0  0.60426  0.22171  0.96169  1.0000
  H   H4051     1.0  0.58200  0.30900  0.92904  1.0000
  C   C2283     1.0  0.65165  0.16586  0.75964  1.0000
  H   H4052     1.0  0.93442  0.25866  0.76667  1.0000
  S   S503      1.0  0.93171  0.09256  0.91231  1.0000
  C   C2284     1.0  0.50780  0.25636  0.77100  1.0000
  H   H4053     1.0  0.52464  0.26948  0.86767  1.0000
  H   H4054     1.0  0.63135  0.21758  0.86636  1.0000
  H   H4055     1.0  0.59667  0.02709  0.92426  1.0000
  H   H4056     1.0  0.56270  0.06329  0.97431  1.0000
  C   C2285     1.0  0.58748  0.04686  0.92187  1.0000
  H   H4057     1.0  0.58928  0.03169  0.94956  1.0000
  C   C2286     1.0  0.94339  0.12004  0.90870  1.0000
  H   H4058     1.0  0.69523  0.27594  0.81906  1.0000
  H   H4059     1.0  0.61458  0.06064  0.92849  1.0000
  C   C2287     1.0  0.96266  0.12095  0.91535  1.0000
  H   H4060     1.0  0.56491  0.06979  0.83309  1.0000
  H   H4061     1.0  0.96217  0.17046  0.79564  1.0000
  S   S504      1.0  0.92533  0.13191  0.74705  1.0000
  H   H4062     1.0  0.59704  0.27154  0.94754  1.0000
  H   H4063     1.0  0.93920  0.26700  0.74238  1.0000
  S   S505      1.0  0.59786  0.27366  0.78542  1.0000
  C   C2288     1.0  0.86691  0.25703  0.95512  1.0000
  C   C2289     1.0  0.56270  0.27139  0.84199  1.0000
  N   N128      1.0  0.86755  0.27886  0.94268  1.0000
  H   H4064     1.0  0.59393  0.05438  0.91020  1.0000
  H   H4065     1.0  0.91637  0.25559  0.92997  1.0000
  H   H4066     1.0  0.60212  0.13648  0.94694  1.0000
  H   H4067     1.0  0.63544  0.02596  0.94166  1.0000
  C   C2290     1.0  0.57305  0.30307  0.88370  1.0000
  C   C2291     1.0  0.53689  0.16284  0.81611  1.0000
  C   C2292     1.0  0.84127  0.29342  0.94293  1.0000
  S   S506      1.0  0.94216  0.18408  0.74516  1.0000
  H   H4068     1.0  0.66619  0.26750  0.93488  1.0000
  H   H4069     1.0  0.58532  0.16642  0.85211  1.0000
  H   H4070     1.0  0.91349  0.31404  0.95609  1.0000
  S   S507      1.0  0.64764  0.25389  0.75467  1.0000
  C   C2293     1.0  0.59420  0.06172  0.93120  1.0000
  H   H4071     1.0  0.54851  0.21763  0.86021  1.0000
  C   C2294     1.0  0.97361  0.12547  0.86292  1.0000
  C   C2295     1.0  0.63456  0.02591  0.95328  1.0000
  H   H4072     1.0  0.90021  0.23036  0.94862  1.0000
  N   N129      1.0  0.59609  0.06152  0.95780  1.0000
  C   C2296     1.0  0.62442  0.17610  0.75845  1.0000
  C   C2297     1.0  0.61196  0.25020  0.85342  1.0000
  H   H4073     1.0  0.55527  0.06263  0.76692  1.0000
  H   H4074     1.0  0.58511  0.08136  0.92798  1.0000
  H   H4075     1.0  0.56466  0.05751  0.94995  1.0000
  H   H4076     1.0  0.90312  0.08599  0.74611  1.0000
  H   H4077     1.0  0.62858  0.21845  0.94114  1.0000
  H   H4078     1.0  0.89956  0.16647  0.85080  1.0000
  H   H4079     1.0  0.93582  0.00410  0.84768  1.0000
  N   N130      1.0  0.56383  0.26342  0.85792  1.0000
  H   H4080     1.0  0.76957  0.17435  0.74670  1.0000
  H   H4081     1.0  0.51094  0.15758  0.87634  1.0000
  H   H4082     1.0  0.70220  0.24348  0.91681  1.0000
  H   H4083     1.0  0.60093  0.09597  0.94274  1.0000
  H   H4084     1.0  0.64644  0.24813  0.91800  1.0000
  C   C2298     1.0  0.59076  0.08954  0.95389  1.0000
  N   N131      1.0  0.97682  0.14608  0.84981  1.0000
  C   C2299     1.0  0.96903  0.21864  0.76565  1.0000
  H   H4085     1.0  0.82898  0.27178  0.93038  1.0000
  H   H4086     1.0  0.63410  0.06486  0.94769  1.0000
  H   H4087     1.0  0.61601  0.18243  0.97039  1.0000
  H   H4088     1.0  0.57061  0.09663  0.95365  1.0000
  C   C2300     1.0  0.79653  0.05926  0.89697  1.0000
  H   H4089     1.0  0.52326  0.22156  0.96502  1.0000
  H   H4090     1.0  0.58566  0.22789  0.85402  1.0000
  S   S508      1.0  0.97975  0.18810  0.89535  1.0000
  N   N132      1.0  0.97402  0.24469  0.76170  1.0000
  H   H4091     1.0  0.58630  0.17967  0.74313  1.0000
  S   S509      1.0  0.53153  0.28346  0.78134  1.0000
  C   C2301     1.0  0.69070  0.29357  0.82310  1.0000
  H   H4092     1.0  0.68853  0.23985  0.90247  1.0000
  H   H4093     1.0  0.93852  0.00183  0.81577  1.0000
  H   H4094     1.0  0.55030  0.06038  0.85171  1.0000
  H   H4095     1.0  0.61827  0.09772  0.96391  1.0000
  C   C2302     1.0  0.66090  0.01657  0.95633  1.0000
  S   S510      1.0  0.68487  0.31175  0.85692  1.0000
  H   H4096     1.0  0.53738  0.27809  0.81890  1.0000
  C   C2303     1.0  0.95745  0.25435  0.96300  1.0000
  H   H4097     1.0  0.61967  0.30546  0.93871  1.0000
  C   C2304     1.0  0.52649  0.15410  0.80505  1.0000
  H   H4098     1.0  0.85730  0.26341  0.96538  1.0000
  C   C2305     1.0  0.53949  0.29517  0.82186  1.0000
  C   C2306     1.0  0.73961  0.16535  0.74024  1.0000
  H   H4099     1.0  0.79517  0.09887  0.89427  1.0000
  H   H4100     1.0  0.67355  0.02863  0.94919  1.0000
  H   H4101     1.0  0.83384  0.13868  0.96177  1.0000
  C   C2307     1.0  0.93213  0.17051  0.85788  1.0000
  H   H4102     1.0  0.59972  0.17114  0.83305  1.0000
  C   C2308     1.0  0.51260  0.17195  0.92832  1.0000
  C   C2309     1.0  0.95302  0.29666  0.97467  1.0000
  H   H4103     1.0  0.54571  0.29483  0.74986  1.0000
  H   H4104     1.0  0.60990  0.25856  0.93196  1.0000
  C   C2310     1.0  0.74946  0.18189  0.74708  1.0000
  C   C2311     1.0  0.89227  0.24072  0.95752  1.0000
  C   C2312     1.0  0.66022  0.24935  0.93760  1.0000
  H   H4105     1.0  0.66590  0.22007  0.92509  1.0000
  C   C2313     1.0  0.66302  0.24057  0.92310  1.0000
  H   H4106     1.0  0.70760  0.29637  0.82602  1.0000
  H   H4107     1.0  0.66113  0.01630  0.96784  1.0000
  H   H4108     1.0  0.94875  0.06003  0.77559  1.0000
  C   C2314     1.0  0.81846  0.20241  0.75512  1.0000
  N   N133      1.0  0.53685  0.14644  0.83102  1.0000
  H   H4109     1.0  0.90673  0.23547  0.91191  1.0000
  H   H4110     1.0  0.79019  0.21445  0.73486  1.0000
  H   H4111     1.0  0.82536  0.22008  0.75229  1.0000
  C   C2315     1.0  0.90500  0.26676  0.92193  1.0000
  C   C2316     1.0  0.58356  0.17789  0.84119  1.0000
  H   H4112     1.0  0.52028  0.16795  0.93841  1.0000
  H   H4113     1.0  0.74747  0.01300  0.94444  1.0000
  H   H4114     1.0  0.83472  0.05795  0.92976  1.0000
  C   C2317     1.0  0.52532  0.26015  0.95713  1.0000
  H   H4115     1.0  0.54050  0.18030  0.78607  1.0000
  C   C2318     1.0  0.62023  0.29339  0.93110  1.0000
  H   H4116     1.0  0.55623  0.16482  0.81057  1.0000
  C   C2319     1.0  0.62914  0.22493  0.95107  1.0000
  H   H4117     1.0  0.97751  0.09263  0.88909  1.0000
  C   C2320     1.0  0.97489  0.26978  0.95738  1.0000
  C   C2321     1.0  0.95129  0.15743  0.84628  1.0000
  Fe  Fe248     1.0  0.72758  0.22288  0.97058  1.0000
  H   H4118     1.0  0.57619  0.14154  0.83060  1.0000
  H   H4119     1.0  0.67442  0.23660  0.94360  1.0000
  N   N134      1.0  0.63478  0.25071  0.94721  1.0000
  H   H4120     1.0  0.55844  0.11511  0.82169  1.0000
  H   H4121     1.0  0.94983  0.25522  0.78113  1.0000
  C   C2322     1.0  0.55814  0.14981  0.83692  1.0000
  S   S511      1.0  0.58955  0.30955  0.75398  1.0000
  Fe  Fe249     1.0  0.56634  0.29934  0.77609  1.0000
  H   H4122     1.0  0.55797  0.18940  0.82658  1.0000
  C   C2323     1.0  0.53899  0.07403  0.76232  1.0000
  C   C2324     1.0  0.53353  0.28165  0.75273  1.0000
  C   C2325     1.0  0.55920  0.17685  0.83723  1.0000
  H   H4123     1.0  0.54381  0.18424  0.84556  1.0000
  H   H4124     1.0  0.61391  0.17801  0.76953  1.0000
  S   S512      1.0  0.96013  0.22701  0.95665  1.0000
  C   C2326     1.0  0.70776  0.30332  0.90816  1.0000
  H   H4125     1.0  0.87429  0.03229  0.93568  1.0000
  H   H4126     1.0  0.96704  0.29225  0.77073  1.0000
  H   H4127     1.0  0.87640  0.09525  0.92726  1.0000
  Fe  Fe250     1.0  0.60382  0.30652  0.79220  1.0000
  H   H4128     1.0  0.57066  0.23125  0.79282  1.0000
  C   C2327     1.0  0.51637  0.06184  0.76876  1.0000
  H   H4129     1.0  0.98254  0.20761  0.78664  1.0000
  C   C2328     1.0  0.59813  0.10347  0.96379  1.0000
  H   H4130     1.0  0.78724  0.98737  0.93408  1.0000
  H   H4131     1.0  0.95127  0.21806  0.76277  1.0000
  C   C2329     1.0  0.90067  0.01441  0.81203  1.0000
  C   C2330     1.0  0.52663  0.27367  0.74179  1.0000
  C   C2331     1.0  0.79885  0.08465  0.88744  1.0000
  C   C2332     1.0  0.93419  0.14083  0.89898  1.0000
  H   H4132     1.0  0.53973  0.13802  0.80115  1.0000
  H   H4133     1.0  0.82526  0.19104  0.76501  1.0000
  C   C2333     1.0  0.51055  0.25676  0.74545  1.0000
  H   H4134     1.0  0.91858  0.14074  0.89438  1.0000
  C   C2334     1.0  0.93772  0.26032  0.97426  1.0000
  H   H4135     1.0  0.76363  0.02241  0.95569  1.0000
  C   C2335     1.0  0.51021  0.22557  0.87053  1.0000
  H   H4136     1.0  0.98033  0.16782  0.86461  1.0000
  C   C2336     1.0  0.82045  0.00712  0.90724  1.0000
  H   H4137     1.0  0.53165  0.07131  0.83786  1.0000
  H   H4138     1.0  0.90558  0.25185  0.95798  1.0000
  H   H4139     1.0  0.51303  0.15407  0.92533  1.0000
  H   H4140     1.0  0.88168  0.15597  0.73353  1.0000
  H   H4141     1.0  0.96392  0.11214  0.86072  1.0000
  C   C2337     1.0  0.74556  0.20890  0.73858  1.0000
  H   H4142     1.0  0.96326  0.02023  0.82457  1.0000
  S   S513      1.0  0.53083  0.30879  0.94716  1.0000
  C   C2338     1.0  0.92116  0.01385  0.82033  1.0000
  H   H4143     1.0  0.94296  0.14315  0.84396  1.0000
  C   C2339     1.0  0.62168  0.20132  0.74773  1.0000
  H   H4144     1.0  0.67612  0.29180  0.83304  1.0000
  H   H4145     1.0  0.83945  0.00193  0.93167  1.0000
  C   C2340     1.0  0.67909  0.23745  0.73129  1.0000
  H   H4146     1.0  0.60088  0.29584  0.91363  1.0000
  H   H4147     1.0  0.52657  0.18194  0.81713  1.0000
  C   C2341     1.0  0.96408  0.05714  0.78160  1.0000
  C   C2342     1.0  0.66517  0.25827  0.73691  1.0000
  S   S514      1.0  0.98562  0.23538  0.91532  1.0000
  H   H4148     1.0  0.65324  0.14788  0.76742  1.0000
  H   H4149     1.0  0.50939  0.09153  0.79352  1.0000
  H   H4150     1.0  0.51309  0.26612  0.96663  1.0000
  H   H4151     1.0  0.88456  0.98902  0.80507  1.0000
  C   C2343     1.0  0.51311  0.15390  0.84139  1.0000
  Fe  Fe251     1.0  0.78046  0.23137  0.96721  1.0000
  H   H4152     1.0  0.83439  0.05211  0.90042  1.0000
  C   C2344     1.0  0.95254  0.28901  0.76577  1.0000
  C   C2345     1.0  0.52270  0.17456  0.79179  1.0000
  H   H4153     1.0  0.97479  0.03786  0.80174  1.0000
  H   H4154     1.0  0.80266  0.00605  0.90452  1.0000
  H   H4155     1.0  0.61762  0.16225  0.75476  1.0000
  H   H4156     1.0  0.91251  0.30200  0.76740  1.0000
  H   H4157     1.0  0.78607  0.04253  0.93243  1.0000
  C   C2346     1.0  0.59254  0.13147  0.95835  1.0000
  H   H4158     1.0  0.62959  0.05346  0.96656  1.0000
  H   H4159     1.0  0.95311  0.17574  0.77835  1.0000
  H   H4160     1.0  0.54747  0.21127  0.74070  1.0000
  C   C2347     1.0  0.53966  0.29095  0.83809  1.0000
  H   H4161     1.0  0.98140  0.04817  0.77508  1.0000
  H   H4162     1.0  0.98561  0.16853  0.77938  1.0000
  C   C2348     1.0  0.96325  0.01899  0.85291  1.0000
  H   H4163     1.0  0.50023  0.24983  0.78229  1.0000
  H   H4164     1.0  0.81738  0.03821  0.94402  1.0000
  H   H4165     1.0  0.95252  0.17197  0.83627  1.0000
  C   C2349     1.0  0.70184  0.30471  0.93360  1.0000
  C   C2350     1.0  0.95846  0.04071  0.79658  1.0000
  H   H4166     1.0  0.76155  0.99040  0.95822  1.0000
  H   H4167     1.0  0.49626  0.26001  0.92706  1.0000
  S   S515      1.0  0.97501  0.07449  0.74145  1.0000
  H   H4168     1.0  0.96149  0.13272  0.87240  1.0000
  H   H4169     1.0  0.60356  0.22682  0.97220  1.0000
  H   H4170     1.0  0.84124  0.31094  0.93467  1.0000
  C   C2351     1.0  0.56307  0.20947  0.73134  1.0000
  H   H4171     1.0  0.90776  0.20909  0.97258  1.0000
  H   H4172     1.0  0.82625  0.19214  0.74610  1.0000
  H   H4173     1.0  0.96870  0.03704  0.85181  1.0000
  S   S516      1.0  0.63051  0.31650  0.77143  1.0000
  C   C2352     1.0  0.78801  0.00287  0.93904  1.0000
  H   H4174     1.0  0.59909  0.14086  0.96520  1.0000
  H   H4175     1.0  0.58755  0.10008  0.97508  1.0000
  H   H4176     1.0  0.52374  0.31022  0.81906  1.0000
  C   C2353     1.0  0.68473  0.31928  0.90732  1.0000
  Fe  Fe252     1.0  0.49862  0.06001  0.87469  1.0000
  H   H4177     1.0  0.49751  0.07991  0.75122  1.0000
  C   C2354     1.0  0.61707  0.31756  0.83747  1.0000
  H   H4178     1.0  0.98892  0.14233  0.91650  1.0000
  Fe  Fe253     1.0  0.93437  0.16433  0.72971  1.0000
  H   H4179     1.0  0.97927  0.00605  0.84793  1.0000
  H   H4180     1.0  0.97609  0.15445  0.81807  1.0000
  C   C2355     1.0  0.92776  0.30390  0.77229  1.0000
  H   H4181     1.0  0.55593  0.17417  0.72951  1.0000
  S   S517      1.0  0.50238  0.24662  0.73164  1.0000
  H   H4182     1.0  0.98536  0.11865  0.83620  1.0000
  C   C2356     1.0  0.98746  0.16585  0.85304  1.0000
  H   H4183     1.0  0.53369  0.28061  0.73047  1.0000
  H   H4184     1.0  0.62641  0.29638  0.97712  1.0000
  C   C2357     1.0  0.99206  0.08747  0.87978  1.0000
  H   H4185     1.0  0.70443  0.17583  0.97715  1.0000
  Fe  Fe254     1.0  0.99108  0.21821  0.93799  1.0000
  H   H4186     1.0  0.97251  0.17958  0.97716  1.0000
  H   H4187     1.0  0.50254  0.00034  0.75766  1.0000
  H   H4188     1.0  0.99270  0.24639  0.77861  1.0000
  Fe  Fe255     1.0  0.49400  0.15857  0.74132  1.0000
  H   H4189     1.0  0.55749  0.31892  0.88173  1.0000
  C   C2358     1.0  0.99358  0.15248  0.82198  1.0000
  H   H4190     1.0  0.49579  0.04492  0.74608  1.0000
  C   C2359     1.0  0.49448  0.10332  0.79942  1.0000
  H   H4191     1.0  0.49405  0.24122  0.87065  1.0000
  H   H4192     1.0  0.74943  0.16545  0.72879  1.0000
  H   H4193     1.0  0.94518  0.40067  0.21378  1.0000
  Fe  Fe256     1.0  0.88016  0.37807  0.00913  1.0000
  S   S518      1.0  0.85363  0.35396  0.02294  1.0000
  S   S519      1.0  0.86703  0.41836  0.01167  1.0000
  Fe  Fe257     1.0  0.93283  0.59261  0.99248  1.0000
  C   C2360     1.0  0.91430  0.61687  0.05066  1.0000
  H   H4194     1.0  0.77458  0.32684  0.14962  1.0000
  H   H4195     1.0  0.92635  0.40912  0.08889  1.0000
  S   S520      1.0  0.91394  0.35267  0.01637  1.0000
  H   H4196     1.0  0.85986  0.62348  0.13495  1.0000
  H   H4197     1.0  0.96370  0.42736  0.15118  1.0000
  S   S521      1.0  0.82847  0.32960  0.99478  1.0000
  Fe  Fe258     1.0  0.91837  0.54134  0.00394  1.0000
  S   S522      1.0  0.89056  0.55399  0.02293  1.0000
  S   S523      1.0  0.93048  0.50271  0.99842  1.0000
  S   S524      1.0  0.90677  0.60883  0.01074  1.0000
  Fe  Fe259     1.0  0.91997  0.57302  0.02504  1.0000
  S   S525      1.0  0.93139  0.56837  0.04661  1.0000
  Fe  Fe260     1.0  0.87971  0.58895  0.00690  1.0000
  S   S526      1.0  0.84109  0.61187  0.00640  1.0000
  S   S527      1.0  0.94868  0.55823  0.00701  1.0000
  C   C2361     1.0  0.94072  0.58986  0.06674  1.0000
  H   H4198     1.0  0.91126  0.58726  0.20358  1.0000
  Fe  Fe261     1.0  0.55287  0.41860  0.17202  1.0000
  S   S528      1.0  0.59166  0.40091  0.16254  1.0000
  S   S529      1.0  0.54187  0.46037  0.16888  1.0000
  Fe  Fe262     1.0  0.95687  0.32636  0.10980  1.0000
  H   H4199     1.0  0.74352  0.58679  0.98480  1.0000
  S   S530      1.0  0.53387  0.39430  0.16478  1.0000
  S   S531      1.0  0.55326  0.39525  0.19448  1.0000
  S   S532      1.0  0.51084  0.34509  0.19952  1.0000
  H   H4200     1.0  0.55303  0.64555  0.99447  1.0000
  S   S533      1.0  0.54666  0.63131  0.09355  1.0000
  H   H4201     1.0  0.60938  0.32895  0.11167  1.0000
  C   C2362     1.0  0.97557  0.41112  0.15609  1.0000
  C   C2363     1.0  0.96369  0.38196  0.02207  1.0000
  H   H4202     1.0  0.71145  0.34572  0.17303  1.0000
  H   H4203     1.0  0.93657  0.51688  0.15061  1.0000
  S   S534      1.0  0.93037  0.64348  0.15000  1.0000
  Fe  Fe263     1.0  0.53776  0.36933  0.18631  1.0000
  H   H4204     1.0  0.88298  0.38974  0.21679  1.0000
  C   C2364     1.0  0.81046  0.64002  0.98782  1.0000
  H   H4205     1.0  0.73622  0.38901  0.19987  1.0000
  C   C2365     1.0  0.85372  0.39138  0.16001  1.0000
  H   H4206     1.0  0.96998  0.35027  0.19213  1.0000
  H   H4207     1.0  0.81593  0.54566  0.00485  1.0000
  C   C2366     1.0  0.92843  0.59352  0.05513  1.0000
  H   H4208     1.0  0.83737  0.39842  0.21795  1.0000
  H   H4209     1.0  0.79363  0.35468  0.15844  1.0000
  C   C2367     1.0  0.63896  0.40049  0.19708  1.0000
  C   C2368     1.0  0.93639  0.61189  0.19270  1.0000
  H   H4210     1.0  0.52633  0.55232  0.15274  1.0000
  H   H4211     1.0  0.97237  0.46266  0.21206  1.0000
  H   H4212     1.0  0.75481  0.55849  0.20786  1.0000
  C   C2369     1.0  0.65411  0.41289  0.20135  1.0000
  C   C2370     1.0  0.74696  0.56282  0.21888  1.0000
  C   C2371     1.0  0.63924  0.37533  0.20277  1.0000
  C   C2372     1.0  0.90186  0.48001  0.05017  1.0000
  S   S535      1.0  0.62201  0.35841  0.19701  1.0000
  H   H4213     1.0  0.95518  0.42972  0.19367  1.0000
  H   H4214     1.0  0.83113  0.34070  0.19352  1.0000
  H   H4215     1.0  0.98240  0.38637  0.01723  1.0000
  C   C2373     1.0  0.98973  0.41330  0.16573  1.0000
  C   C2374     1.0  0.50334  0.32636  0.03346  1.0000
  H   H4216     1.0  0.53120  0.61660  0.00250  1.0000
  S   S536      1.0  0.88399  0.36120  0.98965  1.0000
  H   H4217     1.0  0.65388  0.43234  0.19688  1.0000
  H   H4218     1.0  0.89772  0.40682  0.07315  1.0000
  H   H4219     1.0  0.49961  0.60269  0.98765  1.0000
  C   C2375     1.0  0.91247  0.63636  0.05785  1.0000
  H   H4220     1.0  0.96793  0.48741  0.12908  1.0000
  S   S537      1.0  0.94297  0.61535  0.11441  1.0000
  C   C2376     1.0  0.50509  0.62080  0.98242  1.0000
  H   H4221     1.0  0.86715  0.48470  0.98410  1.0000
  S   S538      1.0  0.50945  0.32194  0.06144  1.0000
  S   S539      1.0  0.51455  0.51787  0.10826  1.0000
  H   H4222     1.0  0.82307  0.42567  0.20675  1.0000
  S   S540      1.0  0.77207  0.64057  0.20423  1.0000
  C   C2377     1.0  0.53396  0.47632  0.15210  1.0000
  C   C2378     1.0  0.54046  0.49948  0.14593  1.0000
  C   C2379     1.0  0.53370  0.51288  0.13273  1.0000
  C   C2380     1.0  0.52067  0.50297  0.12558  1.0000
  C   C2381     1.0  0.51401  0.47990  0.13180  1.0000
  C   C2382     1.0  0.52049  0.46666  0.14509  1.0000
  H   H4223     1.0  0.55087  0.50702  0.15134  1.0000
  H   H4224     1.0  0.92989  0.62326  0.20128  1.0000
  H   H4225     1.0  0.72112  0.39544  0.18458  1.0000
  H   H4226     1.0  0.51513  0.44896  0.14990  1.0000
  H   H4227     1.0  0.88060  0.49244  0.20743  1.0000
  H   H4228     1.0  0.85479  0.39773  0.16985  1.0000
  H   H4229     1.0  0.96842  0.51525  0.15175  1.0000
  H   H4230     1.0  0.74852  0.51845  0.21630  1.0000
  C   C2383     1.0  0.93793  0.39332  0.08394  1.0000
  C   C2384     1.0  0.92983  0.39443  0.21106  1.0000
  H   H4231     1.0  0.59421  0.52276  0.08238  1.0000
  C   C2385     1.0  0.91452  0.43447  0.19552  1.0000
  H   H4232     1.0  0.93987  0.53777  0.21647  1.0000
  C   C2386     1.0  0.79871  0.62424  0.21098  1.0000
  H   H4233     1.0  0.53596  0.58861  0.02504  1.0000
  C   C2387     1.0  0.66972  0.37513  0.21709  1.0000
  Fe  Fe264     1.0  0.91545  0.33331  0.99816  1.0000
  C   C2388     1.0  0.80208  0.33960  0.16658  1.0000
  H   H4234     1.0  0.89105  0.65171  0.17451  1.0000
  C   C2389     1.0  0.52333  0.41439  0.12143  1.0000
  H   H4235     1.0  0.99073  0.56245  0.17381  1.0000
  H   H4236     1.0  0.85563  0.35335  0.17045  1.0000
  H   H4237     1.0  0.77028  0.34167  0.19383  1.0000
  H   H4238     1.0  0.83406  0.39551  0.06210  1.0000
  C   C2390     1.0  0.87302  0.38415  0.05238  1.0000
  H   H4239     1.0  0.77918  0.59965  0.22780  1.0000
  C   C2391     1.0  0.88572  0.44071  0.00874  1.0000
  C   C2392     1.0  0.91015  0.43744  0.00099  1.0000
  C   C2393     1.0  0.92376  0.45649  0.99811  1.0000
  C   C2394     1.0  0.91324  0.47872  0.00318  1.0000
  C   C2395     1.0  0.88921  0.48150  0.01148  1.0000
  C   C2396     1.0  0.87536  0.46275  0.01403  1.0000
  C   C2397     1.0  0.79699  0.60460  0.22286  1.0000
  H   H4240     1.0  0.89907  0.45084  0.19487  1.0000
  H   H4241     1.0  0.88121  0.49822  0.01579  1.0000
  H   H4242     1.0  0.56628  0.51264  0.08228  1.0000
  C   C2398     1.0  0.85259  0.52855  0.99433  1.0000
  C   C2399     1.0  0.83112  0.62085  0.98960  1.0000
  C   C2400     1.0  0.81595  0.37238  0.17319  1.0000
  C   C2401     1.0  0.84092  0.59944  0.22265  1.0000
  C   C2402     1.0  0.84528  0.38666  0.05292  1.0000
  H   H4243     1.0  0.84024  0.54036  0.01510  1.0000
  H   H4244     1.0  0.79554  0.54364  0.20539  1.0000
  C   C2403     1.0  0.89448  0.45458  0.05509  1.0000
  C   C2404     1.0  0.89007  0.52670  0.19386  1.0000
  H   H4245     1.0  0.53921  0.53051  0.12789  1.0000
  H   H4246     1.0  0.50320  0.64419  0.14153  1.0000
  C   C2405     1.0  0.82507  0.52041  0.21556  1.0000
  H   H4247     1.0  0.95168  0.57185  0.07025  1.0000
  S   S541      1.0  0.97523  0.51229  0.19568  1.0000
  S   S542      1.0  0.90495  0.57474  0.98776  1.0000
  H   H4248     1.0  0.84892  0.50980  0.99952  1.0000
  C   C2406     1.0  0.89237  0.50578  0.20709  1.0000
  H   H4249     1.0  0.89702  0.55442  0.20337  1.0000
  Fe  Fe265     1.0  0.51476  0.61110  0.09830  1.0000
  H   H4250     1.0  0.92486  0.37487  0.04336  1.0000
  H   H4251     1.0  0.52915  0.37436  0.99430  1.0000
  H   H4252     1.0  0.52682  0.40093  0.97970  1.0000
  C   C2407     1.0  0.84052  0.41171  0.20748  1.0000
  H   H4253     1.0  0.87211  0.52927  0.99421  1.0000
  H   H4254     1.0  0.92141  0.47863  0.05111  1.0000
  H   H4255     1.0  0.72710  0.36431  0.19471  1.0000
  H   H4256     1.0  0.94875  0.60615  0.08271  1.0000
  H   H4257     1.0  0.87014  0.53533  0.19459  1.0000
  C   C2408     1.0  0.82158  0.63124  0.20482  1.0000
  C   C2409     1.0  0.84272  0.61875  0.21059  1.0000
  C   C2410     1.0  0.71460  0.59691  0.20812  1.0000
  S   S543      1.0  0.98744  0.32741  0.12089  1.0000
  H   H4258     1.0  0.89958  0.61259  0.19015  1.0000
  C   C2411     1.0  0.91224  0.39825  0.06481  1.0000
  H   H4259     1.0  0.69436  0.60367  0.20840  1.0000
  H   H4260     1.0  0.91630  0.42689  0.18560  1.0000
  C   C2412     1.0  0.73463  0.38160  0.19054  1.0000
  S   S544      1.0  0.57517  0.34792  0.17805  1.0000
  H   H4261     1.0  0.92433  0.37997  0.22055  1.0000
  H   H4262     1.0  0.84464  0.40168  0.19834  1.0000
  Fe  Fe266     1.0  0.95022  0.64070  0.12701  1.0000
  C   C2413     1.0  0.91054  0.43642  0.04521  1.0000
  S   S545      1.0  0.50761  0.58337  0.11899  1.0000
  H   H4263     1.0  0.85619  0.43496  0.21588  1.0000
  H   H4264     1.0  0.53269  0.39508  0.12520  1.0000
  H   H4265     1.0  0.80484  0.38634  0.16579  1.0000
  H   H4266     1.0  0.65474  0.34339  0.21739  1.0000
  H   H4267     1.0  0.56167  0.60531  0.04484  1.0000
  S   S546      1.0  0.99166  0.62731  0.12306  1.0000
  H   H4268     1.0  0.83623  0.31987  0.18158  1.0000
  H   H4269     1.0  0.91832  0.42053  0.99689  1.0000
  H   H4270     1.0  0.88622  0.51327  0.21727  1.0000
  H   H4271     1.0  0.87730  0.37210  0.06271  1.0000
  C   C2414     1.0  0.75989  0.37698  0.18042  1.0000
  H   H4272     1.0  0.99048  0.59512  0.16767  1.0000
  C   C2415     1.0  0.87032  0.64862  0.11464  1.0000
  H   H4273     1.0  0.86355  0.43821  0.19644  1.0000
  N   N135      1.0  0.90693  0.40991  0.04979  1.0000
  H   H4274     1.0  0.92429  0.53636  0.19512  1.0000
  H   H4275     1.0  0.72362  0.59392  0.19695  1.0000
  H   H4276     1.0  0.95891  0.47185  0.17998  1.0000
  N   N136      1.0  0.58382  0.44229  0.10850  1.0000
  C   C2416     1.0  0.59581  0.42915  0.09597  1.0000
  C   C2417     1.0  0.57351  0.46889  0.10250  1.0000
  C   C2418     1.0  0.60312  0.44040  0.11742  1.0000
  C   C2419     1.0  0.56284  0.43064  0.11821  1.0000
  N   N137      1.0  0.51059  0.64093  0.01750  1.0000
  C   C2420     1.0  0.60320  0.40051  0.10002  1.0000
  C   C2421     1.0  0.59496  0.45553  0.12981  1.0000
  H   H4277     1.0  0.85319  0.63591  0.15854  1.0000
  H   H4278     1.0  0.88980  0.61308  0.12450  1.0000
  H   H4279     1.0  0.71052  0.55926  0.21633  1.0000
  C   C2422     1.0  0.61629  0.38940  0.08660  1.0000
  C   C2423     1.0  0.61668  0.45415  0.13708  1.0000
  H   H4280     1.0  0.61303  0.43603  0.08998  1.0000
  H   H4281     1.0  0.58353  0.43363  0.08783  1.0000
  H   H4282     1.0  0.56061  0.46994  0.09515  1.0000
  H   H4283     1.0  0.56184  0.47826  0.11135  1.0000
  H   H4284     1.0  0.62041  0.44573  0.11032  1.0000
  H   H4285     1.0  0.60892  0.42082  0.12277  1.0000
  H   H4286     1.0  0.57008  0.41193  0.12402  1.0000
  H   H4287     1.0  0.55372  0.44106  0.12701  1.0000
  H   H4288     1.0  0.93044  0.37632  0.08945  1.0000
  H   H4289     1.0  0.50388  0.47222  0.12630  1.0000
  H   H4290     1.0  0.61595  0.39484  0.10789  1.0000
  H   H4291     1.0  0.58658  0.39204  0.10489  1.0000
  H   H4292     1.0  0.58019  0.44805  0.13834  1.0000
  H   H4293     1.0  0.58788  0.47539  0.12580  1.0000
  H   H4294     1.0  0.89100  0.39770  0.19768  1.0000
  H   H4295     1.0  0.53933  0.58498  0.05066  1.0000
  C   C2424     1.0  0.93025  0.32462  0.05429  1.0000
  H   H4296     1.0  0.50495  0.55615  0.03849  1.0000
  S   S547      1.0  0.95122  0.32236  0.98247  1.0000
  H   H4297     1.0  0.50269  0.60889  0.01240  1.0000
  S   S548      1.0  0.96496  0.33025  0.08531  1.0000
  H   H4298     1.0  0.94402  0.41646  0.06303  1.0000
  H   H4299     1.0  0.62111  0.36892  0.08982  1.0000
  H   H4300     1.0  0.60391  0.39394  0.07854  1.0000
  H   H4301     1.0  0.96599  0.36293  0.02872  1.0000
  H   H4302     1.0  0.63132  0.46312  0.12926  1.0000
  H   H4303     1.0  0.60995  0.46397  0.14638  1.0000
  H   H4304     1.0  0.62480  0.43460  0.14128  1.0000
  C   C2425     1.0  0.87683  0.62960  0.12799  1.0000
  H   H4305     1.0  0.63370  0.39648  0.08149  1.0000
  H   H4306     1.0  0.56182  0.35431  0.11216  1.0000
  H   H4307     1.0  0.86032  0.62442  0.20588  1.0000
  H   H4308     1.0  0.98224  0.64356  0.15291  1.0000
  C   C2426     1.0  0.69128  0.34881  0.17295  1.0000
  H   H4309     1.0  0.56116  0.32570  0.15763  1.0000
  H   H4310     1.0  0.75698  0.37050  0.17109  1.0000
  C   C2427     1.0  0.91607  0.59835  0.19254  1.0000
  C   C2428     1.0  0.94749  0.32853  0.06150  1.0000
  H   H4311     1.0  0.51486  0.42323  0.13102  1.0000
  H   H4312     1.0  0.95718  0.39055  0.08578  1.0000
  C   C2429     1.0  0.71888  0.57282  0.21924  1.0000
  H   H4313     1.0  0.90461  0.61980  0.04179  1.0000
  H   H4314     1.0  0.60319  0.47769  0.08383  1.0000
  C   C2430     1.0  0.94248  0.32590  0.07668  1.0000
  H   H4315     1.0  0.91296  0.39786  0.02933  1.0000
  H   H4316     1.0  0.72219  0.61149  0.21063  1.0000
  C   C2431     1.0  0.99326  0.60605  0.02482  1.0000
  Fe  Fe267     1.0  0.57259  0.37462  0.15707  1.0000
  H   H4317     1.0  0.98453  0.64110  0.17153  1.0000
  C   C2432     1.0  0.54187  0.42902  0.11078  1.0000
  C   C2433     1.0  0.87996  0.40996  0.05019  1.0000
  H   H4318     1.0  0.88930  0.44642  0.21995  1.0000
  H   H4319     1.0  0.88966  0.49293  0.05711  1.0000
  H   H4320     1.0  0.76590  0.39507  0.17644  1.0000
  S   S549      1.0  0.98812  0.63481  0.08865  1.0000
  H   H4321     1.0  0.82288  0.64636  0.19562  1.0000
  H   H4322     1.0  0.84217  0.40631  0.15332  1.0000
  H   H4323     1.0  0.55818  0.60858  0.01894  1.0000
  S   S550      1.0  0.92785  0.35166  0.12261  1.0000
  Fe  Fe268     1.0  0.86018  0.33474  0.00409  1.0000
  C   C2434     1.0  0.94169  0.51807  0.22068  1.0000
  C   C2435     1.0  0.83580  0.54605  0.00401  1.0000
  H   H4324     1.0  0.87453  0.45735  0.05459  1.0000
  C   C2436     1.0  0.79753  0.52799  0.21474  1.0000
  H   H4325     1.0  0.79198  0.51200  0.21246  1.0000
  N   N138      1.0  0.80428  0.34973  0.17925  1.0000
  H   H4326     1.0  0.95209  0.38366  0.06294  1.0000
  H   H4327     1.0  0.81605  0.38157  0.18220  1.0000
  C   C2437     1.0  0.94095  0.38095  0.19803  1.0000
  H   H4328     1.0  0.95420  0.38263  0.01308  1.0000
  H   H4329     1.0  0.88597  0.63755  0.13434  1.0000
  H   H4330     1.0  0.91075  0.37838  0.06750  1.0000
  H   H4331     1.0  0.94088  0.62434  0.18205  1.0000
  C   C2438     1.0  0.94880  0.40081  0.03143  1.0000
  H   H4332     1.0  0.98102  0.57737  0.04284  1.0000
  C   C2439     1.0  0.66951  0.40028  0.21138  1.0000
  C   C2440     1.0  0.96307  0.36037  0.20129  1.0000
  H   H4333     1.0  0.87583  0.64520  0.98715  1.0000
  C   C2441     1.0  0.93804  0.39852  0.06762  1.0000
  H   H4334     1.0  0.62727  0.41033  0.18929  1.0000
  H   H4335     1.0  0.49647  0.37537  0.04211  1.0000
  C   C2442     1.0  0.58016  0.51172  0.08896  1.0000
  C   C2443     1.0  0.54297  0.60326  0.02787  1.0000
  Fe  Fe269     1.0  0.95755  0.35011  0.13500  1.0000
  H   H4336     1.0  0.84320  0.36185  0.15405  1.0000
  Fe  Fe270     1.0  0.98442  0.60511  0.10860  1.0000
  C   C2444     1.0  0.98628  0.62613  0.03437  1.0000
  H   H4337     1.0  0.86766  0.41896  0.05909  1.0000
  H   H4338     1.0  0.68075  0.35988  0.18131  1.0000
  C   C2445     1.0  0.88651  0.40558  0.20771  1.0000
  H   H4339     1.0  0.58303  0.64962  0.10228  1.0000
  C   C2446     1.0  0.93909  0.60932  0.07381  1.0000
  H   H4340     1.0  0.84092  0.36798  0.05446  1.0000
  H   H4341     1.0  0.90667  0.44400  0.03406  1.0000
  H   H4342     1.0  0.93015  0.43776  0.04422  1.0000
  C   C2447     1.0  0.56297  0.34224  0.13500  1.0000
  N   N139      1.0  0.90706  0.56637  0.18005  1.0000
  C   C2448     1.0  0.91671  0.55574  0.16640  1.0000
  C   C2449     1.0  0.88140  0.58169  0.17944  1.0000
  H   H4343     1.0  0.78162  0.36546  0.19753  1.0000
  C   C2450     1.0  0.94167  0.53688  0.16607  1.0000
  C   C2451     1.0  0.87962  0.60354  0.16634  1.0000
  C   C2452     1.0  0.85442  0.62099  0.16831  1.0000
  C   C2453     1.0  0.94990  0.52755  0.15178  1.0000
  H   H4344     1.0  0.91980  0.57086  0.15679  1.0000
  H   H4345     1.0  0.90263  0.54701  0.16419  1.0000
  H   H4346     1.0  0.87314  0.58864  0.18974  1.0000
  H   H4347     1.0  0.93053  0.59370  0.17026  1.0000
  H   H4348     1.0  0.93452  0.32622  0.04262  1.0000
  H   H4349     1.0  0.89632  0.51820  0.18408  1.0000
  H   H4350     1.0  0.98046  0.64842  0.00574  1.0000
  H   H4351     1.0  0.94011  0.52052  0.17495  1.0000
  H   H4352     1.0  0.89406  0.61450  0.16485  1.0000
  H   H4353     1.0  0.88201  0.59643  0.15622  1.0000
  H   H4354     1.0  0.60641  0.48528  0.10031  1.0000
  H   H4355     1.0  0.94244  0.45412  0.99178  1.0000
  C   C2454     1.0  0.52140  0.62552  0.03050  1.0000
  H   H4356     1.0  0.95156  0.54320  0.14237  1.0000
  H   H4357     1.0  0.85238  0.62994  0.17766  1.0000
  C   C2455     1.0  0.98515  0.47997  0.13363  1.0000
  H   H4358     1.0  0.94266  0.63668  0.02412  1.0000
  C   C2456     1.0  0.92480  0.63257  0.06948  1.0000
  H   H4359     1.0  0.68154  0.36520  0.22478  1.0000
  C   C2457     1.0  0.92499  0.58170  0.18096  1.0000
  C   C2458     1.0  0.93836  0.44461  0.19419  1.0000
  S   S551      1.0  0.96002  0.38671  0.13975  1.0000
  H   H4360     1.0  0.96490  0.33335  0.05531  1.0000
  H   H4361     1.0  0.52747  0.63750  0.03609  1.0000
  H   H4362     1.0  0.98851  0.43106  0.16834  1.0000
  H   H4363     1.0  0.79855  0.32311  0.21032  1.0000
  H   H4364     1.0  0.95969  0.40080  0.03955  1.0000
  H   H4365     1.0  0.50828  0.41376  0.11598  1.0000
  H   H4366     1.0  0.91881  0.43229  0.22414  1.0000
  C   C2459     1.0  0.90542  0.54627  0.19347  1.0000
  H   H4367     1.0  0.86857  0.57012  0.17867  1.0000
  H   H4368     1.0  0.95668  0.54550  0.16715  1.0000
  H   H4369     1.0  0.93700  0.45324  0.20357  1.0000
  H   H4370     1.0  0.96773  0.62442  0.04131  1.0000
  S   S552      1.0  0.51392  0.58561  0.08378  1.0000
  C   C2460     1.0  0.52313  0.39481  0.99170  1.0000
  C   C2461     1.0  0.84292  0.36778  0.16427  1.0000
  H   H4371     1.0  0.53146  0.44782  0.10698  1.0000
  H   H4372     1.0  0.94482  0.45646  0.17060  1.0000
  H   H4373     1.0  0.92594  0.47995  0.18050  1.0000
  C   C2462     1.0  0.94216  0.46441  0.18045  1.0000
  H   H4374     1.0  0.88314  0.37450  0.04334  1.0000
  H   H4375     1.0  0.94265  0.56942  0.18346  1.0000
  S   S553      1.0  0.75124  0.38075  0.22850  1.0000
  C   C2463     1.0  0.49537  0.40230  0.99758  1.0000
  H   H4376     1.0  0.57058  0.52016  0.09860  1.0000
  S   S554      1.0  0.58165  0.36286  0.13530  1.0000
  C   C2464     1.0  0.59288  0.48491  0.09374  1.0000
  H   H4377     1.0  0.83883  0.56522  0.99965  1.0000
  H   H4378     1.0  0.91191  0.49571  0.20650  1.0000
  H   H4379     1.0  0.87281  0.38757  0.15350  1.0000
  H   H4380     1.0  0.85652  0.46531  0.02016  1.0000
  H   H4381     1.0  0.97846  0.36828  0.20261  1.0000
  C   C2465     1.0  0.95825  0.50123  0.21275  1.0000
  Fe  Fe271     1.0  0.59075  0.37582  0.18450  1.0000
  H   H4382     1.0  0.89988  0.48790  0.03872  1.0000
  C   C2466     1.0  0.55595  0.34171  0.12205  1.0000
  H   H4383     1.0  0.87424  0.42124  0.03996  1.0000
  N   N140      1.0  0.90814  0.41565  0.20908  1.0000
  H   H4384     1.0  0.87788  0.44142  0.97964  1.0000
  C   C2467     1.0  0.92263  0.39499  0.03861  1.0000
  S   S555      1.0  0.68849  0.41636  0.21638  1.0000
  H   H4385     1.0  0.84006  0.39784  0.04256  1.0000
  C   C2468     1.0  0.99171  0.61844  0.98392  1.0000
  H   H4386     1.0  0.89681  0.44764  0.06654  1.0000
  H   H4387     1.0  0.95760  0.34688  0.21131  1.0000
  H   H4388     1.0  0.83209  0.53623  0.21704  1.0000
  H   H4389     1.0  0.49515  0.37396  0.01695  1.0000
  H   H4390     1.0  0.50930  0.39615  0.22800  1.0000
  H   H4391     1.0  0.95347  0.59843  0.19509  1.0000
  C   C2469     1.0  0.49928  0.63771  0.99347  1.0000
  H   H4392     1.0  0.83900  0.61089  0.17014  1.0000
  C   C2470     1.0  0.86176  0.42461  0.20684  1.0000
  H   H4393     1.0  0.79304  0.32204  0.98019  1.0000
  H   H4394     1.0  0.94705  0.41933  0.02414  1.0000
  H   H4395     1.0  0.54926  0.41970  0.10134  1.0000
  C   C2471     1.0  0.77923  0.35772  0.18845  1.0000
  H   H4396     1.0  0.56898  0.57559  0.03949  1.0000
  C   C2472     1.0  0.51135  0.56506  0.15861  1.0000
  C   C2473     1.0  0.65461  0.36276  0.21282  1.0000
  H   H4397     1.0  0.53413  0.40373  0.99637  1.0000
  C   C2474     1.0  0.55387  0.59166  0.04158  1.0000
  C   C2475     1.0  0.82124  0.33106  0.18849  1.0000
  H   H4398     1.0  0.99316  0.34926  0.15657  1.0000
  H   H4399     1.0  0.97822  0.60751  0.01887  1.0000
  H   H4400     1.0  0.92703  0.37220  0.19576  1.0000
  H   H4401     1.0  0.52067  0.33299  0.03015  1.0000
  H   H4402     1.0  0.86296  0.63909  0.10823  1.0000
  H   H4403     1.0  0.83570  0.51447  0.20533  1.0000
  C   C2476     1.0  0.54080  0.32523  0.12198  1.0000
  H   H4404     1.0  0.94761  0.39379  0.18801  1.0000
  C   C2477     1.0  0.99212  0.36712  0.15912  1.0000
  C   C2478     1.0  0.97687  0.38809  0.15265  1.0000
  H   H4405     1.0  0.75556  0.57839  0.21921  1.0000
  H   H4406     1.0  0.93972  0.65167  0.99816  1.0000
  Fe  Fe272     1.0  0.94703  0.64645  0.09523  1.0000
  H   H4407     1.0  0.82814  0.50462  0.22473  1.0000
  H   H4408     1.0  0.80124  0.64966  0.99665  1.0000
  H   H4409     1.0  0.73537  0.33405  0.22282  1.0000
  H   H4410     1.0  0.56248  0.64684  0.01094  1.0000
  H   H4411     1.0  0.97990  0.47249  0.14543  1.0000
  C   C2479     1.0  0.96050  0.47581  0.21835  1.0000
  H   H4412     1.0  0.71478  0.49505  0.21953  1.0000
  H   H4413     1.0  0.68784  0.35964  0.16217  1.0000
  H   H4414     1.0  0.82083  0.33244  0.16059  1.0000
  H   H4415     1.0  0.53490  0.32522  0.11210  1.0000
  C   C2480     1.0  0.90180  0.42806  0.22209  1.0000
  H   H4416     1.0  0.50070  0.52034  0.16281  1.0000
  Fe  Fe273     1.0  0.88765  0.32785  0.02938  1.0000
  H   H4417     1.0  0.66275  0.32799  0.17540  1.0000
  H   H4418     1.0  0.82691  0.53720  0.97960  1.0000
  H   H4419     1.0  0.99040  0.44529  0.12709  1.0000
  Fe  Fe274     1.0  0.50310  0.55951  0.10470  1.0000
  H   H4420     1.0  0.51438  0.56282  0.16985  1.0000
  H   H4421     1.0  0.49871  0.32921  0.01144  1.0000
  H   H4422     1.0  0.51250  0.58432  0.15284  1.0000
  H   H4423     1.0  0.50176  0.40183  0.01871  1.0000
  C   C2481     1.0  0.51177  0.62494  0.00676  1.0000
  C   C2482     1.0  0.55546  0.32582  0.14769  1.0000
  H   H4424     1.0  0.71044  0.59128  0.98607  1.0000
  H   H4425     1.0  0.98780  0.60190  0.99163  1.0000
  H   H4426     1.0  0.50685  0.61699  0.03877  1.0000
  H   H4427     1.0  0.85882  0.59381  0.97934  1.0000
  H   H4428     1.0  0.76831  0.32366  0.17629  1.0000
  H   H4429     1.0  0.99214  0.64971  0.05594  1.0000
  H   H4430     1.0  0.67928  0.32095  0.19873  1.0000
  C   C2483     1.0  0.68281  0.32406  0.17587  1.0000
  H   H4431     1.0  0.88933  0.65046  0.20673  1.0000
  C   C2484     1.0  0.74713  0.51772  0.22810  1.0000
  H   H4432     1.0  0.50775  0.36647  0.22475  1.0000
  H   H4433     1.0  0.83677  0.49375  0.98000  1.0000
  H   H4434     1.0  0.84471  0.44695  0.98044  1.0000
  C   C2485     1.0  0.98824  0.65219  0.16037  1.0000
  S   S556      1.0  0.49463  0.34511  0.97912  1.0000
  H   H4435     1.0  0.73081  0.56432  0.97984  1.0000
  C   C2486     1.0  0.72884  0.58438  0.97963  1.0000
  C   C2487     1.0  0.91998  0.31955  0.08464  1.0000
  N   N141      1.0  0.98650  0.65244  0.02631  1.0000
  C   C2488     1.0  0.81810  0.59217  0.22873  1.0000
  N   N142      1.0  0.74869  0.41569  0.30628  1.0000
  H   H4436     1.0  0.97590  0.48695  0.40715  1.0000
  H   H4437     1.0  0.80125  0.33878  0.46126  1.0000
  C   C2489     1.0  0.71045  0.40045  0.46227  1.0000
  Fe  Fe275     1.0  0.82527  0.51944  0.26691  1.0000
  S   S557      1.0  0.85096  0.50131  0.28258  1.0000
  S   S558      1.0  0.78870  0.50793  0.26909  1.0000
  Fe  Fe276     1.0  0.85861  0.55594  0.24995  1.0000
  S   S559      1.0  0.88683  0.54124  0.26430  1.0000
  H   H4438     1.0  0.70894  0.57691  0.23002  1.0000
  Fe  Fe277     1.0  0.88112  0.50421  0.26271  1.0000
  C   C2490     1.0  0.73362  0.33721  0.43113  1.0000
  Fe  Fe278     1.0  0.85414  0.54015  0.28269  1.0000
  S   S560      1.0  0.85024  0.55502  0.30303  1.0000
  S   S561      1.0  0.85518  0.51903  0.24700  1.0000
  S   S562      1.0  0.82599  0.55825  0.26843  1.0000
  S   S563      1.0  0.65470  0.35204  0.37140  1.0000
  S   S564      1.0  0.66674  0.37167  0.40550  1.0000
  Fe  Fe279     1.0  0.81055  0.46376  0.40876  1.0000
  S   S565      1.0  0.79485  0.47575  0.43015  1.0000
  S   S566      1.0  0.84392  0.47259  0.39197  1.0000
  Fe  Fe280     1.0  0.77306  0.43070  0.41291  1.0000
  S   S567      1.0  0.75372  0.43958  0.43484  1.0000
  S   S568      1.0  0.76910  0.40288  0.40061  1.0000
  Fe  Fe281     1.0  0.75775  0.47885  0.42448  1.0000
  S   S569      1.0  0.72818  0.51310  0.42687  1.0000
  Fe  Fe282     1.0  0.79225  0.43586  0.43893  1.0000
  C   C2491     1.0  0.80351  0.54446  0.43564  1.0000
  S   S570      1.0  0.77375  0.47030  0.40215  1.0000
  S   S571      1.0  0.81117  0.42359  0.41799  1.0000
  Fe  Fe283     1.0  0.94724  0.56163  0.34726  1.0000
  S   S572      1.0  0.96017  0.53534  0.36666  1.0000
  S   S573      1.0  0.94757  0.54648  0.32745  1.0000
  Fe  Fe284     1.0  0.94149  0.60667  0.36088  1.0000
  S   S574      1.0  0.95491  0.58388  0.38095  1.0000
  C   C2492     1.0  0.88566  0.42682  0.24911  1.0000
  Fe  Fe285     1.0  0.62999  0.32393  0.38093  1.0000
  Fe  Fe286     1.0  0.93012  0.55902  0.38001  1.0000
  S   S575      1.0  0.90312  0.54765  0.40051  1.0000
  S   S576      1.0  0.97274  0.58774  0.34550  1.0000
  S   S577      1.0  0.91505  0.58281  0.36071  1.0000
  H   H4439     1.0  0.94866  0.44761  0.23637  1.0000
  C   C2493     1.0  0.74821  0.40775  0.32244  1.0000
  Fe  Fe287     1.0  0.71065  0.38580  0.26655  1.0000
  H   H4440     1.0  0.72107  0.50603  0.24806  1.0000
  C   C2494     1.0  0.72099  0.52105  0.44414  1.0000
  C   C2495     1.0  0.72741  0.50362  0.45625  1.0000
  H   H4441     1.0  0.98414  0.40197  0.45016  1.0000
  H   H4442     1.0  0.84102  0.48575  0.43927  1.0000
  H   H4443     1.0  0.96951  0.48192  0.25458  1.0000
  C   C2496     1.0  0.97161  0.49929  0.25713  1.0000
  H   H4444     1.0  0.75397  0.37093  0.34749  1.0000
  H   H4445     1.0  0.50868  0.37354  0.37606  1.0000
  C   C2497     1.0  0.65074  0.51317  0.46056  1.0000
  H   H4446     1.0  0.72532  0.34998  0.42208  1.0000
  C   C2498     1.0  0.85955  0.49407  0.39443  1.0000
  C   C2499     1.0  0.85073  0.50685  0.40594  1.0000
  C   C2500     1.0  0.86421  0.52338  0.40779  1.0000
  C   C2501     1.0  0.88614  0.52746  0.39797  1.0000
  C   C2502     1.0  0.89467  0.51501  0.38635  1.0000
  C   C2503     1.0  0.88155  0.49810  0.38470  1.0000
  H   H4447     1.0  0.83370  0.50387  0.41344  1.0000
  H   H4448     1.0  0.85779  0.53293  0.41683  1.0000
  H   H4449     1.0  0.91160  0.51808  0.37875  1.0000
  H   H4450     1.0  0.88861  0.48801  0.37590  1.0000
  H   H4451     1.0  0.59613  0.38753  0.35047  1.0000
  H   H4452     1.0  0.79478  0.53245  0.43158  1.0000
  H   H4453     1.0  0.83702  0.57400  0.43169  1.0000
  C   C2504     1.0  0.69466  0.38226  0.40281  1.0000
  C   C2505     1.0  0.71604  0.37253  0.39365  1.0000
  C   C2506     1.0  0.73862  0.37971  0.39270  1.0000
  C   C2507     1.0  0.73992  0.39666  0.40086  1.0000
  C   C2508     1.0  0.71836  0.40716  0.40957  1.0000
  C   C2509     1.0  0.69577  0.39987  0.41059  1.0000
  H   H4454     1.0  0.71526  0.35923  0.38747  1.0000
  H   H4455     1.0  0.75524  0.37186  0.38578  1.0000
  H   H4456     1.0  0.71921  0.42045  0.41576  1.0000
  H   H4457     1.0  0.67919  0.40762  0.41759  1.0000
  H   H4458     1.0  0.51881  0.34320  0.39625  1.0000
  H   H4459     1.0  0.87926  0.45161  0.41293  1.0000
  S   S578      1.0  0.79043  0.41760  0.24045  1.0000
  H   H4460     1.0  0.82073  0.44911  0.30242  1.0000
  C   C2510     1.0  0.87758  0.55415  0.30914  1.0000
  C   C2511     1.0  0.90078  0.54281  0.30232  1.0000
  C   C2512     1.0  0.92209  0.54094  0.30796  1.0000
  C   C2513     1.0  0.92036  0.55015  0.32052  1.0000
  C   C2514     1.0  0.89715  0.56153  0.32734  1.0000
  C   C2515     1.0  0.87583  0.56359  0.32163  1.0000
  H   H4461     1.0  0.90230  0.53514  0.29285  1.0000
  H   H4462     1.0  0.93998  0.53201  0.30269  1.0000
  H   H4463     1.0  0.89563  0.56865  0.33702  1.0000
  H   H4464     1.0  0.85791  0.57226  0.32700  1.0000
  H   H4465     1.0  0.88267  0.42449  0.39571  1.0000
  H   H4466     1.0  0.76709  0.39963  0.32476  1.0000
  H   H4467     1.0  0.88059  0.62787  0.44134  1.0000
  H   H4468     1.0  0.97605  0.63846  0.45291  1.0000
  C   C2516     1.0  0.50053  0.34975  0.40294  1.0000
  H   H4469     1.0  0.85051  0.33285  0.43914  1.0000
  H   H4470     1.0  0.58808  0.60731  0.47584  1.0000
  S   S579      1.0  0.75107  0.36849  0.26359  1.0000
  S   S580      1.0  0.70146  0.36518  0.25191  1.0000
  H   H4471     1.0  0.71512  0.38130  0.43719  1.0000
  H   H4472     1.0  0.94774  0.63419  0.38429  1.0000
  H   H4473     1.0  0.54592  0.42074  0.39297  1.0000
  C   C2517     1.0  0.78967  0.44240  0.24872  1.0000
  C   C2518     1.0  0.76734  0.45488  0.25581  1.0000
  C   C2519     1.0  0.76731  0.47493  0.26206  1.0000
  C   C2520     1.0  0.78957  0.48238  0.26142  1.0000
  C   C2521     1.0  0.81191  0.46988  0.25436  1.0000
  C   C2522     1.0  0.81192  0.45004  0.24795  1.0000
  H   H4474     1.0  0.75009  0.44925  0.25632  1.0000
  H   H4475     1.0  0.74998  0.48478  0.26735  1.0000
  H   H4476     1.0  0.82918  0.47547  0.25383  1.0000
  C   C2523     1.0  0.93245  0.46665  0.41730  1.0000
  C   C2524     1.0  0.59890  0.35350  0.33304  1.0000
  C   C2525     1.0  0.96491  0.41261  0.45269  1.0000
  C   C2526     1.0  0.86754  0.38669  0.47412  1.0000
  H   H4477     1.0  0.59196  0.34863  0.34493  1.0000
  H   H4478     1.0  0.68841  0.46986  0.29352  1.0000
  H   H4479     1.0  0.90155  0.39476  0.23957  1.0000
  C   C2527     1.0  0.52905  0.32824  0.36615  1.0000
  C   C2528     1.0  0.51225  0.37589  0.23236  1.0000
  C   C2529     1.0  0.68619  0.35753  0.33043  1.0000
  H   H4480     1.0  0.73769  0.48529  0.45497  1.0000
  C   C2530     1.0  0.55339  0.40056  0.39576  1.0000
  H   H4481     1.0  0.87555  0.41661  0.25919  1.0000
  H   H4482     1.0  0.78166  0.43813  0.31730  1.0000
  C   C2531     1.0  0.94039  0.48714  0.42233  1.0000
  H   H4483     1.0  0.86138  0.63787  0.23117  1.0000
  H   H4484     1.0  0.58224  0.36291  0.32819  1.0000
  H   H4485     1.0  0.81649  0.65200  0.22918  1.0000
  C   C2532     1.0  0.75685  0.39403  0.29855  1.0000
  H   H4486     1.0  0.58271  0.40336  0.33462  1.0000
  H   H4487     1.0  0.61890  0.38185  0.31891  1.0000
  H   H4488     1.0  0.88016  0.40755  0.41412  1.0000
  H   H4489     1.0  0.61186  0.40892  0.33650  1.0000
  S   S581      1.0  0.91489  0.36709  0.46129  1.0000
  C   C2533     1.0  0.77601  0.62893  0.42582  1.0000
  H   H4490     1.0  0.54602  0.36585  0.39469  1.0000
  C   C2534     1.0  0.71900  0.43951  0.28848  1.0000
  H   H4491     1.0  0.63821  0.47738  0.46822  1.0000
  H   H4492     1.0  0.82923  0.44046  0.24247  1.0000
  C   C2535     1.0  0.71970  0.36744  0.44695  1.0000
  H   H4493     1.0  0.83328  0.46303  0.45530  1.0000
  C   C2536     1.0  0.68074  0.37394  0.31770  1.0000
  C   C2537     1.0  0.78798  0.43277  0.30646  1.0000
  H   H4494     1.0  0.81268  0.44508  0.28625  1.0000
  H   H4495     1.0  0.75839  0.40060  0.28659  1.0000
  C   C2538     1.0  0.73169  0.38857  0.33077  1.0000
  C   C2539     1.0  0.76099  0.34030  0.42851  1.0000
  C   C2540     1.0  0.89199  0.46772  0.43376  1.0000
  H   H4496     1.0  0.93034  0.42002  0.41780  1.0000
  C   C2541     1.0  0.81273  0.33893  0.45021  1.0000
  H   H4497     1.0  0.57251  0.39655  0.38932  1.0000
  H   H4498     1.0  0.67881  0.44161  0.29346  1.0000
  N   N143      1.0  0.71796  0.34190  0.44557  1.0000
  H   H4499     1.0  0.72188  0.54803  0.24751  1.0000
  H   H4500     1.0  0.96519  0.42716  0.45857  1.0000
  H   H4501     1.0  0.74176  0.42428  0.32770  1.0000
  H   H4502     1.0  0.69056  0.56939  0.46104  1.0000
  H   H4503     1.0  0.66258  0.35359  0.28123  1.0000
  H   H4504     1.0  0.55633  0.33588  0.33567  1.0000
  C   C2542     1.0  0.60035  0.39460  0.33855  1.0000
  H   H4505     1.0  0.72913  0.39626  0.35229  1.0000
  H   H4506     1.0  0.81413  0.36470  0.42934  1.0000
  C   C2543     1.0  0.69246  0.45379  0.28804  1.0000
  C   C2544     1.0  0.64365  0.35015  0.28654  1.0000
  S   S582      1.0  0.68683  0.39088  0.28843  1.0000
  H   H4507     1.0  0.73675  0.64532  0.42839  1.0000
  H   H4508     1.0  0.77189  0.43478  0.28776  1.0000
  C   C2545     1.0  0.63049  0.55471  0.46459  1.0000
  H   H4509     1.0  0.68487  0.35731  0.43635  1.0000
  H   H4510     1.0  0.70446  0.36320  0.47056  1.0000
  C   C2546     1.0  0.95514  0.42421  0.43861  1.0000
  H   H4511     1.0  0.96798  0.43628  0.43168  1.0000
  S   S583      1.0  0.59188  0.33920  0.37490  1.0000
  C   C2547     1.0  0.69414  0.36956  0.30405  1.0000
  S   S584      1.0  0.71632  0.41941  0.24912  1.0000
  H   H4512     1.0  0.74072  0.32962  0.46219  1.0000
  H   H4513     1.0  0.79924  0.41382  0.30793  1.0000
  C   C2548     1.0  0.95836  0.50011  0.41010  1.0000
  C   C2549     1.0  0.87110  0.45442  0.44356  1.0000
  C   C2550     1.0  0.72656  0.32328  0.45836  1.0000
  C   C2551     1.0  0.70641  0.53330  0.47194  1.0000
  H   H4514     1.0  0.87588  0.63366  0.37442  1.0000
  H   H4515     1.0  0.50522  0.40458  0.35314  1.0000
  H   H4516     1.0  0.83960  0.61447  0.28478  1.0000
  H   H4517     1.0  0.80783  0.58881  0.44015  1.0000
  C   C2552     1.0  0.64234  0.34182  0.30293  1.0000
  C   C2553     1.0  0.73505  0.57054  0.26516  1.0000
  H   H4518     1.0  0.76187  0.36028  0.42526  1.0000
  H   H4519     1.0  0.74818  0.52848  0.25366  1.0000
  H   H4520     1.0  0.71459  0.57399  0.26598  1.0000
  H   H4521     1.0  0.87548  0.62937  0.25627  1.0000
  H   H4522     1.0  0.62555  0.59853  0.43241  1.0000
  C   C2554     1.0  0.72576  0.64389  0.46240  1.0000
  C   C2555     1.0  0.95462  0.50239  0.27175  1.0000
  H   H4523     1.0  0.63198  0.36604  0.33491  1.0000
  H   H4524     1.0  0.87303  0.60733  0.28164  1.0000
  H   H4525     1.0  0.91425  0.52268  0.23992  1.0000
  C   C2556     1.0  0.56721  0.32214  0.32891  1.0000
  H   H4526     1.0  0.63013  0.36765  0.28410  1.0000
  H   H4527     1.0  0.83482  0.62288  0.25257  1.0000
  C   C2557     1.0  0.84076  0.33374  0.45050  1.0000
  H   H4528     1.0  0.64719  0.51706  0.44930  1.0000
  S   S585      1.0  0.64839  0.60262  0.47813  1.0000
  H   H4529     1.0  0.71176  0.39666  0.33078  1.0000
  H   H4530     1.0  0.60630  0.51624  0.45904  1.0000
  C   C2558     1.0  0.72243  0.42777  0.30432  1.0000
  H   H4531     1.0  0.95595  0.40887  0.43310  1.0000
  H   H4532     1.0  0.66529  0.47626  0.44364  1.0000
  H   H4533     1.0  0.88843  0.60827  0.38754  1.0000
  C   C2559     1.0  0.70774  0.54482  0.44590  1.0000
  H   H4534     1.0  0.74082  0.55364  0.27315  1.0000
  H   H4535     1.0  0.73988  0.58652  0.26795  1.0000
  C   C2560     1.0  0.71892  0.33251  0.31597  1.0000
  H   H4536     1.0  0.69020  0.46071  0.27656  1.0000
  C   C2561     1.0  0.91223  0.43105  0.42226  1.0000
  H   H4537     1.0  0.72286  0.42500  0.28185  1.0000
  H   H4538     1.0  0.70916  0.41509  0.45236  1.0000
  H   H4539     1.0  0.66616  0.39018  0.31841  1.0000
  C   C2562     1.0  0.75103  0.64463  0.46018  1.0000
  H   H4540     1.0  0.79389  0.61263  0.40665  1.0000
  H   H4541     1.0  0.72978  0.39616  0.46426  1.0000
  H   H4542     1.0  0.50384  0.34525  0.41428  1.0000
  H   H4543     1.0  0.75426  0.45382  0.30021  1.0000
  H   H4544     1.0  0.70284  0.55838  0.43653  1.0000
  H   H4545     1.0  0.54820  0.35833  0.36311  1.0000
  C   C2563     1.0  0.83017  0.62540  0.42682  1.0000
  H   H4546     1.0  0.67590  0.36125  0.34088  1.0000
  C   C2564     1.0  0.69115  0.34238  0.44536  1.0000
  H   H4547     1.0  0.78262  0.36986  0.31244  1.0000
  H   H4548     1.0  0.79459  0.46964  0.29558  1.0000
  H   H4549     1.0  0.55450  0.39537  0.40748  1.0000
  H   H4550     1.0  0.64651  0.35674  0.30695  1.0000
  H   H4551     1.0  0.65742  0.32542  0.30462  1.0000
  C   C2565     1.0  0.76512  0.43474  0.29960  1.0000
  C   C2566     1.0  0.88966  0.41311  0.23664  1.0000
  H   H4552     1.0  0.63823  0.60033  0.44753  1.0000
  H   H4553     1.0  0.78446  0.36846  0.44158  1.0000
  H   H4554     1.0  0.94983  0.50805  0.40032  1.0000
  C   C2567     1.0  0.97257  0.64168  0.44168  1.0000
  H   H4555     1.0  0.64922  0.55797  0.44172  1.0000
  H   H4556     1.0  0.88068  0.32800  0.46147  1.0000
  H   H4557     1.0  0.77962  0.32994  0.37867  1.0000
  H   H4558     1.0  0.60556  0.59964  0.44991  1.0000
  C   C2568     1.0  0.78205  0.37699  0.30077  1.0000
  C   C2569     1.0  0.84983  0.39859  0.44807  1.0000
  H   H4559     1.0  0.53221  0.36908  0.23294  1.0000
  S   S586      1.0  0.86712  0.58533  0.23034  1.0000
  H   H4560     1.0  0.90288  0.41762  0.43082  1.0000
  N   N144      1.0  0.61138  0.33016  0.32722  1.0000
  H   H4561     1.0  0.95311  0.39964  0.45989  1.0000
  H   H4562     1.0  0.60210  0.35080  0.30657  1.0000
  C   C2570     1.0  0.80499  0.45022  0.29707  1.0000
  C   C2571     1.0  0.87455  0.38666  0.44843  1.0000
  H   H4563     1.0  0.79741  0.38713  0.29559  1.0000
  H   H4564     1.0  0.96013  0.48666  0.28048  1.0000
  C   C2572     1.0  0.61461  0.37357  0.33062  1.0000
  H   H4565     1.0  0.96484  0.51504  0.24880  1.0000
  C   C2573     1.0  0.93113  0.64806  0.38617  1.0000
  Fe  Fe288     1.0  0.75628  0.40037  0.24499  1.0000
  H   H4566     1.0  0.72219  0.36680  0.35235  1.0000
  C   C2574     1.0  0.70303  0.37727  0.46045  1.0000
  S   S587      1.0  0.91248  0.47350  0.25681  1.0000
  H   H4567     1.0  0.93579  0.64925  0.40750  1.0000
  C   C2575     1.0  0.54865  0.33874  0.36713  1.0000
  H   H4568     1.0  0.73686  0.37182  0.32586  1.0000
  C   C2576     1.0  0.80485  0.36424  0.44090  1.0000
  H   H4569     1.0  0.73148  0.45273  0.28325  1.0000
  H   H4570     1.0  0.50058  0.42015  0.37593  1.0000
  H   H4571     1.0  0.71484  0.44243  0.31100  1.0000
  C   C2577     1.0  0.73452  0.38022  0.34668  1.0000
  C   C2578     1.0  0.84815  0.47306  0.44870  1.0000
  C   C2579     1.0  0.71310  0.34866  0.30319  1.0000
  C   C2580     1.0  0.85664  0.61123  0.27637  1.0000
  N   N145      1.0  0.84003  0.49997  0.34544  1.0000
  C   C2581     1.0  0.82151  0.51276  0.33573  1.0000
  C   C2582     1.0  0.84043  0.51703  0.35524  1.0000
  C   C2583     1.0  0.86553  0.49596  0.33588  1.0000
  C   C2584     1.0  0.83500  0.47505  0.35408  1.0000
  C   C2585     1.0  0.80744  0.47212  0.35923  1.0000
  C   C2586     1.0  0.82242  0.50010  0.32296  1.0000
  C   C2587     1.0  0.88792  0.48724  0.34383  1.0000
  C   C2588     1.0  0.81578  0.52558  0.36545  1.0000
  C   C2589     1.0  0.81825  0.54583  0.37276  1.0000
  C   C2590     1.0  0.80541  0.44712  0.36935  1.0000
  C   C2591     1.0  0.79999  0.51148  0.31563  1.0000
  C   C2592     1.0  0.91189  0.47834  0.33363  1.0000
  H   H4572     1.0  0.82436  0.53205  0.33087  1.0000
  H   H4573     1.0  0.80222  0.51495  0.34202  1.0000
  H   H4574     1.0  0.85377  0.50804  0.36261  1.0000
  H   H4575     1.0  0.84728  0.53391  0.34854  1.0000
  H   H4576     1.0  0.86860  0.51329  0.32804  1.0000
  H   H4577     1.0  0.86698  0.48209  0.32911  1.0000
  H   H4578     1.0  0.84407  0.46019  0.34771  1.0000
  H   H4579     1.0  0.84387  0.46978  0.36377  1.0000
  H   H4580     1.0  0.79899  0.47286  0.34982  1.0000
  H   H4581     1.0  0.79601  0.48679  0.36505  1.0000
  H   H4582     1.0  0.83931  0.50274  0.31457  1.0000
  H   H4583     1.0  0.82297  0.47992  0.32668  1.0000
  H   H4584     1.0  0.88471  0.47187  0.35320  1.0000
  H   H4585     1.0  0.89104  0.50290  0.34783  1.0000
  H   H4586     1.0  0.80010  0.53324  0.35961  1.0000
  H   H4587     1.0  0.81114  0.50989  0.37427  1.0000
  H   H4588     1.0  0.82161  0.56270  0.36452  1.0000
  H   H4589     1.0  0.80085  0.55074  0.38060  1.0000
  H   H4590     1.0  0.83384  0.53933  0.37879  1.0000
  H   H4591     1.0  0.78557  0.44545  0.37299  1.0000
  H   H4592     1.0  0.81542  0.43165  0.36368  1.0000
  H   H4593     1.0  0.81330  0.44539  0.37914  1.0000
  H   H4594     1.0  0.79930  0.53166  0.31152  1.0000
  H   H4595     1.0  0.80155  0.50271  0.30624  1.0000
  H   H4596     1.0  0.78247  0.50854  0.32337  1.0000
  H   H4597     1.0  0.92772  0.47352  0.33943  1.0000
  H   H4598     1.0  0.91054  0.46168  0.32992  1.0000
  H   H4599     1.0  0.91571  0.49317  0.32403  1.0000
  S   S588      1.0  0.50889  0.59405  0.46910  1.0000
  H   H4600     1.0  0.79039  0.63616  0.25027  1.0000
  Fe  Fe289     1.0  0.66568  0.34274  0.39320  1.0000
  H   H4601     1.0  0.88669  0.38159  0.43867  1.0000
  H   H4602     1.0  0.78755  0.52123  0.23825  1.0000
  H   H4603     1.0  0.76424  0.62770  0.46275  1.0000
  H   H4604     1.0  0.73910  0.36805  0.44731  1.0000
  H   H4605     1.0  0.84323  0.40308  0.43799  1.0000
  H   H4606     1.0  0.71079  0.32213  0.46780  1.0000
  Fe  Fe290     1.0  0.74257  0.35044  0.24747  1.0000
  H   H4607     1.0  0.53735  0.39102  0.38038  1.0000
  H   H4608     1.0  0.78818  0.55254  0.22978  1.0000
  C   C2593     1.0  0.89745  0.43977  0.40970  1.0000
  H   H4609     1.0  0.55891  0.60258  0.46131  1.0000
  H   H4610     1.0  0.85681  0.59462  0.27211  1.0000
  H   H4611     1.0  0.51359  0.33973  0.36145  1.0000
  H   H4612     1.0  0.82195  0.53394  0.43784  1.0000
  H   H4613     1.0  0.70989  0.41413  0.30825  1.0000
  H   H4614     1.0  0.74242  0.38240  0.30162  1.0000
  N   N146      1.0  0.82249  0.60918  0.41900  1.0000
  C   C2594     1.0  0.84219  0.60321  0.40605  1.0000
  C   C2595     1.0  0.81880  0.58520  0.42939  1.0000
  C   C2596     1.0  0.71992  0.50968  0.47013  1.0000
  C   C2597     1.0  0.79885  0.62285  0.41375  1.0000
  C   C2598     1.0  0.85642  0.61649  0.43072  1.0000
  C   C2599     1.0  0.85012  0.62585  0.39475  1.0000
  C   C2600     1.0  0.94665  0.46727  0.23198  1.0000
  C   C2601     1.0  0.80617  0.56809  0.42426  1.0000
  C   C2602     1.0  0.86146  0.63402  0.43905  1.0000
  N   N147      1.0  0.62987  0.52757  0.47012  1.0000
  C   C2603     1.0  0.92990  0.48414  0.23982  1.0000
  H   H4615     1.0  0.83576  0.59229  0.39999  1.0000
  H   H4616     1.0  0.85915  0.59088  0.40959  1.0000
  H   H4617     1.0  0.79144  0.54899  0.44593  1.0000
  H   H4618     1.0  0.93516  0.50275  0.27110  1.0000
  C   C2604     1.0  0.78186  0.53583  0.22904  1.0000
  C   C2605     1.0  0.92723  0.50952  0.23405  1.0000
  H   H4619     1.0  0.67884  0.34703  0.45555  1.0000
  H   H4620     1.0  0.87116  0.61599  0.42082  1.0000
  H   H4621     1.0  0.85819  0.59772  0.43764  1.0000
  C   C2606     1.0  0.85788  0.63381  0.26403  1.0000
  H   H4622     1.0  0.81843  0.64182  0.26529  1.0000
  C   C2607     1.0  0.87151  0.61742  0.38291  1.0000
  H   H4623     1.0  0.78721  0.57737  0.42243  1.0000
  H   H4624     1.0  0.81719  0.56253  0.41400  1.0000
  C   C2608     1.0  0.78692  0.35452  0.29361  1.0000
  C   C2609     1.0  0.55834  0.53016  0.47448  1.0000
  C   C2610     1.0  0.51023  0.39033  0.40123  1.0000
  H   H4625     1.0  0.72340  0.34502  0.29269  1.0000
  H   H4626     1.0  0.89065  0.31975  0.43621  1.0000
  H   H4627     1.0  0.87124  0.41014  0.23603  1.0000
  C   C2611     1.0  0.63050  0.56414  0.44811  1.0000
  C   C2612     1.0  0.53708  0.38565  0.39223  1.0000
  H   H4628     1.0  0.68331  0.38256  0.45915  1.0000
  H   H4629     1.0  0.69150  0.47819  0.45078  1.0000
  C   C2613     1.0  0.74242  0.54523  0.24557  1.0000
  H   H4630     1.0  0.91000  0.40495  0.40178  1.0000
  C   C2614     1.0  0.55301  0.60180  0.47289  1.0000
  H   H4631     1.0  0.96546  0.62568  0.44057  1.0000
  C   C2615     1.0  0.70070  0.55104  0.45976  1.0000
  H   H4632     1.0  0.80159  0.64102  0.40673  1.0000
  H   H4633     1.0  0.92810  0.45299  0.44826  1.0000
  H   H4634     1.0  0.66464  0.47915  0.47519  1.0000
  H   H4635     1.0  0.87727  0.44204  0.45336  1.0000
  H   H4636     1.0  0.64883  0.33009  0.32946  1.0000
  H   H4637     1.0  0.99032  0.64276  0.43378  1.0000
  C   C2616     1.0  0.61661  0.33543  0.31075  1.0000
  H   H4638     1.0  0.61681  0.55684  0.44456  1.0000
  H   H4639     1.0  0.92393  0.50145  0.42541  1.0000
  H   H4640     1.0  0.92260  0.47643  0.40819  1.0000
  C   C2617     1.0  0.83369  0.40410  0.46081  1.0000
  H   H4641     1.0  0.95527  0.52005  0.27464  1.0000
  H   H4642     1.0  0.89505  0.48064  0.43994  1.0000
  H   H4643     1.0  0.90383  0.42807  0.25115  1.0000
  H   H4644     1.0  0.61483  0.56649  0.47064  1.0000
  C   C2618     1.0  0.88354  0.38096  0.46139  1.0000
  H   H4645     1.0  0.64493  0.32826  0.45170  1.0000
  H   H4646     1.0  0.86516  0.44322  0.43752  1.0000
  H   H4647     1.0  0.84521  0.35030  0.45280  1.0000
  H   H4648     1.0  0.56820  0.33109  0.31729  1.0000
  H   H4649     1.0  0.94941  0.45470  0.41225  1.0000
  C   C2619     1.0  0.89236  0.41774  0.40509  1.0000
  S   S589      1.0  0.80219  0.41756  0.46081  1.0000
  H   H4650     1.0  0.90808  0.45035  0.40003  1.0000
  H   H4651     1.0  0.71974  0.62638  0.46627  1.0000
  H   H4652     1.0  0.78871  0.36047  0.28165  1.0000
  N   N148      1.0  0.91624  0.45115  0.42877  1.0000
  H   H4653     1.0  0.91710  0.42578  0.44942  1.0000
  H   H4654     1.0  0.81689  0.62717  0.43724  1.0000
  H   H4655     1.0  0.80873  0.32496  0.44522  1.0000
  H   H4656     1.0  0.76067  0.50080  0.23179  1.0000
  C   C2620     1.0  0.62458  0.59241  0.44432  1.0000
  H   H4657     1.0  0.94981  0.47951  0.43175  1.0000
  H   H4658     1.0  0.86641  0.60434  0.37769  1.0000
  H   H4659     1.0  0.50303  0.41068  0.39970  1.0000
  H   H4660     1.0  0.54154  0.54493  0.47585  1.0000
  H   H4661     1.0  0.66851  0.51923  0.45962  1.0000
  C   C2621     1.0  0.92820  0.43906  0.44182  1.0000
  H   H4662     1.0  0.51207  0.38454  0.41284  1.0000
  C   C2622     1.0  0.74853  0.56758  0.24977  1.0000
  Fe  Fe291     1.0  0.98387  0.56268  0.36570  1.0000
  H   H4663     1.0  0.85260  0.48406  0.45553  1.0000
  C   C2623     1.0  0.70540  0.33687  0.32962  1.0000
  H   H4664     1.0  0.80458  0.34208  0.29588  1.0000
  S   S590      1.0  0.92568  0.64768  0.35865  1.0000
  C   C2624     1.0  0.84259  0.39804  0.47385  1.0000
  H   H4665     1.0  0.74786  0.62766  0.41408  1.0000
  H   H4666     1.0  0.88453  0.47989  0.42428  1.0000
  C   C2625     1.0  0.83507  0.63978  0.25655  1.0000
  H   H4667     1.0  0.76867  0.56500  0.24968  1.0000
  H   H4668     1.0  0.69780  0.40767  0.47169  1.0000
  H   H4669     1.0  0.77213  0.61222  0.43400  1.0000
  H   H4670     1.0  0.74261  0.58505  0.24228  1.0000
  H   H4671     1.0  0.80955  0.37896  0.44490  1.0000
  H   H4672     1.0  0.77932  0.64241  0.43144  1.0000
  H   H4673     1.0  0.84805  0.63429  0.44953  1.0000
  H   H4674     1.0  0.81661  0.57727  0.23807  1.0000
  Fe  Fe292     1.0  0.71058  0.39716  0.23409  1.0000
  H   H4675     1.0  0.85639  0.63842  0.39975  1.0000
  C   C2626     1.0  0.67341  0.47199  0.45359  1.0000
  C   C2627     1.0  0.77744  0.32747  0.41638  1.0000
  H   H4676     1.0  0.65457  0.33560  0.43216  1.0000
  H   H4677     1.0  0.96285  0.51552  0.41367  1.0000
  H   H4678     1.0  0.77166  0.34390  0.29792  1.0000
  H   H4679     1.0  0.82903  0.64469  0.42047  1.0000
  H   H4680     1.0  0.58127  0.55611  0.46229  1.0000
  H   H4681     1.0  0.64748  0.55889  0.46669  1.0000
  H   H4682     1.0  0.69804  0.48536  0.23759  1.0000
  N   N149      1.0  0.75397  0.54066  0.23040  1.0000
  H   H4683     1.0  0.50254  0.37885  0.25468  1.0000
  H   H4684     1.0  0.83454  0.63662  0.38933  1.0000
  H   H4685     1.0  0.55830  0.52224  0.46500  1.0000
  H   H4686     1.0  0.87453  0.44580  0.24660  1.0000
  C   C2628     1.0  0.58164  0.54106  0.47204  1.0000
  H   H4687     1.0  0.60262  0.50389  0.47787  1.0000
  H   H4688     1.0  0.79669  0.33063  0.41467  1.0000
  Fe  Fe293     1.0  0.68455  0.31978  0.36606  1.0000
  H   H4689     1.0  0.63985  0.33563  0.28185  1.0000
  C   C2629     1.0  0.75258  0.64071  0.41949  1.0000
  C   C2630     1.0  0.72137  0.51166  0.23618  1.0000
  C   C2631     1.0  0.60560  0.52102  0.46971  1.0000
  H   H4690     1.0  0.49980  0.34972  0.25109  1.0000
  H   H4691     1.0  0.75453  0.32848  0.37050  1.0000
  H   H4692     1.0  0.73084  0.47337  0.23297  1.0000
  H   H4693     1.0  0.70605  0.52769  0.23440  1.0000
  H   H4694     1.0  0.76889  0.33272  0.43849  1.0000
  C   C2632     1.0  0.56883  0.32418  0.37328  1.0000
  H   H4695     1.0  0.77049  0.33531  0.40608  1.0000
  H   H4696     1.0  0.85862  0.64960  0.26876  1.0000
  H   H4697     1.0  0.67681  0.45164  0.45746  1.0000
  C   C2633     1.0  0.65570  0.48460  0.46550  1.0000
  C   C2634     1.0  0.71602  0.49006  0.23123  1.0000
  H   H4698     1.0  0.82612  0.35143  0.47620  1.0000
  H   H4699     1.0  0.92455  0.32189  0.44820  1.0000
  C   C2635     1.0  0.65793  0.32181  0.44215  1.0000
  C   C2636     1.0  0.49622  0.37010  0.24743  1.0000
  C   C2637     1.0  0.63396  0.58069  0.67956  1.0000
  H   H4700     1.0  0.94245  0.38445  0.52984  1.0000
  H   H4701     1.0  0.61414  0.53713  0.51937  1.0000
  H   H4702     1.0  0.83861  0.61823  0.65492  1.0000
  H   H4703     1.0  0.62652  0.48706  0.69597  1.0000
  H   H4704     1.0  0.84119  0.54682  0.59975  1.0000
  Fe  Fe294     1.0  0.93044  0.36537  0.63477  1.0000
  S   S591      1.0  0.93405  0.38114  0.61084  1.0000
  S   S592      1.0  0.96215  0.35832  0.64683  1.0000
  Fe  Fe295     1.0  0.87857  0.35559  0.63727  1.0000
  S   S593      1.0  0.87770  0.37101  0.61371  1.0000
  S   S594      1.0  0.84553  0.34173  0.65231  1.0000
  Fe  Fe296     1.0  0.91684  0.34984  0.60977  1.0000
  C   C2638     1.0  0.64488  0.32780  0.67309  1.0000
  Fe  Fe297     1.0  0.89450  0.40097  0.61693  1.0000
  S   S595      1.0  0.88202  0.44116  0.60710  1.0000
  S   S596      1.0  0.91654  0.33222  0.63323  1.0000
  S   S597      1.0  0.89217  0.38740  0.64097  1.0000
  S   S598      1.0  0.72257  0.53274  0.61505  1.0000
  C   C2639     1.0  0.71745  0.62530  0.68833  1.0000
  Fe  Fe298     1.0  0.75728  0.52892  0.62353  1.0000
  S   S599      1.0  0.77419  0.49146  0.63512  1.0000
  H   H4705     1.0  0.79712  0.56160  0.65453  1.0000
  H   H4706     1.0  0.50504  0.57082  0.52403  1.0000
  Fe  Fe299     1.0  0.56635  0.50926  0.67072  1.0000
  S   S600      1.0  0.59795  0.50229  0.65203  1.0000
  S   S601      1.0  0.57431  0.49107  0.69277  1.0000
  H   H4707     1.0  0.60178  0.62683  0.67647  1.0000
  H   H4708     1.0  0.57815  0.34414  0.70076  1.0000
  C   C2640     1.0  0.77875  0.62279  0.63017  1.0000
  S   S602      1.0  0.54701  0.54588  0.67694  1.0000
  H   H4709     1.0  0.74809  0.58067  0.50662  1.0000
  C   C2641     1.0  0.69179  0.60287  0.54376  1.0000
  H   H4710     1.0  0.65457  0.52239  0.48504  1.0000
  H   H4711     1.0  0.77146  0.48936  0.56879  1.0000
  N   N150      1.0  0.80219  0.47434  0.58022  1.0000
  C   C2642     1.0  0.92065  0.33227  0.57724  1.0000
  C   C2643     1.0  0.76107  0.58959  0.49741  1.0000
  S   S603      1.0  0.64758  0.58118  0.51330  1.0000
  S   S604      1.0  0.58175  0.60651  0.50695  1.0000
  S   S605      1.0  0.74118  0.54911  0.57370  1.0000
  H   H4712     1.0  0.53158  0.60009  0.51419  1.0000
  H   H4713     1.0  0.62666  0.50629  0.51576  1.0000
  C   C2644     1.0  0.78952  0.65041  0.64268  1.0000
  C   C2645     1.0  0.59402  0.61116  0.67548  1.0000
  C   C2646     1.0  0.64675  0.35296  0.72371  1.0000
  C   C2647     1.0  0.56032  0.61671  0.72217  1.0000
  C   C2648     1.0  0.81319  0.54579  0.65440  1.0000
  H   H4714     1.0  0.53421  0.45778  0.65235  1.0000
  H   H4715     1.0  0.59529  0.35573  0.72604  1.0000
  C   C2649     1.0  0.61800  0.52343  0.64785  1.0000
  C   C2650     1.0  0.64343  0.51566  0.64280  1.0000
  C   C2651     1.0  0.65970  0.53230  0.63966  1.0000
  H   H4716     1.0  0.92008  0.62530  0.70590  1.0000
  H   H4717     1.0  0.65062  0.49658  0.64168  1.0000
  H   H4718     1.0  0.67938  0.52589  0.63636  1.0000
  H   H4719     1.0  0.80941  0.51720  0.55708  1.0000
  H   H4720     1.0  0.52560  0.43046  0.64982  1.0000
  H   H4721     1.0  0.65972  0.33869  0.71812  1.0000
  H   H4722     1.0  0.73256  0.63532  0.49202  1.0000
  C   C2652     1.0  0.53108  0.43878  0.65762  1.0000
  H   H4723     1.0  0.72343  0.55031  0.68396  1.0000
  C   C2653     1.0  0.90573  0.35537  0.57346  1.0000
  H   H4724     1.0  0.87440  0.38258  0.48416  1.0000
  H   H4725     1.0  0.67768  0.53299  0.70850  1.0000
  H   H4726     1.0  0.64656  0.33340  0.70017  1.0000
  H   H4727     1.0  0.90055  0.36828  0.58079  1.0000
  C   C2654     1.0  0.85250  0.45517  0.61544  1.0000
  C   C2655     1.0  0.83738  0.44131  0.62635  1.0000
  C   C2656     1.0  0.81356  0.45275  0.63256  1.0000
  C   C2657     1.0  0.80469  0.47802  0.62781  1.0000
  C   C2658     1.0  0.81997  0.49194  0.61707  1.0000
  C   C2659     1.0  0.84379  0.48054  0.61086  1.0000
  H   H4728     1.0  0.84395  0.42173  0.62996  1.0000
  H   H4729     1.0  0.80185  0.44187  0.64091  1.0000
  H   H4730     1.0  0.81340  0.51142  0.61346  1.0000
  H   H4731     1.0  0.85549  0.49134  0.60246  1.0000
  H   H4732     1.0  0.72450  0.49594  0.47951  1.0000
  C   C2660     1.0  0.54923  0.61227  0.71168  1.0000
  H   H4733     1.0  0.61469  0.64814  0.69825  1.0000
  C   C2661     1.0  0.57557  0.34921  0.71145  1.0000
  H   H4734     1.0  0.79839  0.36866  0.60983  1.0000
  H   H4735     1.0  0.65900  0.55679  0.72840  1.0000
  H   H4736     1.0  0.95898  0.34004  0.53314  1.0000
  H   H4737     1.0  0.81940  0.57618  0.59907  1.0000
  C   C2662     1.0  0.78258  0.63526  0.65609  1.0000
  H   H4738     1.0  0.62544  0.64343  0.71514  1.0000
  C   C2663     1.0  0.73936  0.63223  0.50233  1.0000
  H   H4739     1.0  0.70293  0.61443  0.68976  1.0000
  H   H4740     1.0  0.66076  0.62636  0.60865  1.0000
  C   C2664     1.0  0.96619  0.38249  0.65417  1.0000
  C   C2665     1.0  0.95117  0.40603  0.65200  1.0000
  C   C2666     1.0  0.95516  0.42505  0.65776  1.0000
  C   C2667     1.0  0.53191  0.60222  0.54922  1.0000
  H   H4741     1.0  0.54884  0.42742  0.66047  1.0000
  H   H4742     1.0  0.93645  0.40960  0.64591  1.0000
  H   H4743     1.0  0.94343  0.44321  0.65609  1.0000
  S   S606      1.0  0.67173  0.62353  0.53290  1.0000
  H   H4744     1.0  0.74500  0.44526  0.61051  1.0000
  H   H4745     1.0  0.70036  0.65233  0.70198  1.0000
  C   C2668     1.0  0.60539  0.58703  0.68463  1.0000
  H   H4746     1.0  0.81070  0.50120  0.58994  1.0000
  S   S607      1.0  0.67034  0.57814  0.63759  1.0000
  C   C2669     1.0  0.67418  0.55323  0.68014  1.0000
  C   C2670     1.0  0.86174  0.51170  0.63491  1.0000
  H   H4747     1.0  0.78381  0.51846  0.67684  1.0000
  H   H4748     1.0  0.87452  0.54160  0.63907  1.0000
  H   H4749     1.0  0.75080  0.48215  0.59149  1.0000
  S   S608      1.0  0.53040  0.44098  0.70825  1.0000
  H   H4750     1.0  0.82694  0.53964  0.57803  1.0000
  C   C2671     1.0  0.85765  0.53315  0.64326  1.0000
  H   H4751     1.0  0.83641  0.46276  0.56549  1.0000
  C   C2672     1.0  0.76728  0.45465  0.55546  1.0000
  H   H4752     1.0  0.84103  0.46785  0.58202  1.0000
  H   H4753     1.0  0.77923  0.57659  0.49608  1.0000
  Fe  Fe300     1.0  0.53782  0.47921  0.69729  1.0000
  S   S609      1.0  0.63765  0.64078  0.50080  1.0000
  C   C2673     1.0  0.78872  0.46340  0.59497  1.0000
  C   C2674     1.0  0.83293  0.32897  0.59888  1.0000
  C   C2675     1.0  0.65276  0.53970  0.72823  1.0000
  H   H4754     1.0  0.85854  0.52478  0.65485  1.0000
  H   H4755     1.0  0.50906  0.42013  0.67645  1.0000
  H   H4756     1.0  0.64105  0.59636  0.68111  1.0000
  H   H4757     1.0  0.80034  0.48134  0.55743  1.0000
  H   H4758     1.0  0.80626  0.32999  0.50024  1.0000
  Fe  Fe301     1.0  0.66450  0.61308  0.51327  1.0000
  H   H4759     1.0  0.74842  0.62030  0.55446  1.0000
  H   H4760     1.0  0.75361  0.59308  0.48727  1.0000
  S   S610      1.0  0.51645  0.51323  0.70578  1.0000
  C   C2676     1.0  0.77129  0.60806  0.64362  1.0000
  H   H4761     1.0  0.78386  0.51213  0.58198  1.0000
  C   C2677     1.0  0.84320  0.57795  0.65913  1.0000
  C   C2678     1.0  0.65737  0.53538  0.71268  1.0000
  H   H4762     1.0  0.81556  0.32707  0.62226  1.0000
  H   H4763     1.0  0.62284  0.55755  0.70818  1.0000
  C   C2679     1.0  0.53761  0.60034  0.50268  1.0000
  C   C2680     1.0  0.96290  0.37774  0.52837  1.0000
  H   H4764     1.0  0.73171  0.54716  0.54603  1.0000
  H   H4765     1.0  0.70454  0.57600  0.52983  1.0000
  C   C2681     1.0  0.63574  0.35005  0.69417  1.0000
  S   S611      1.0  0.89561  0.35485  0.53340  1.0000
  C   C2682     1.0  0.55151  0.58801  0.70960  1.0000
  C   C2683     1.0  0.60878  0.54807  0.64933  1.0000
  H   H4766     1.0  0.66739  0.62484  0.70406  1.0000
  H   H4767     1.0  0.79961  0.46245  0.60339  1.0000
  C   C2684     1.0  0.90521  0.34559  0.55027  1.0000
  S   S612      1.0  0.53153  0.49427  0.67448  1.0000
  C   C2685     1.0  0.64278  0.55719  0.70312  1.0000
  C   C2686     1.0  0.84383  0.56937  0.61457  1.0000
  H   H4768     1.0  0.81568  0.37033  0.62296  1.0000
  H   H4769     1.0  0.73029  0.47303  0.61761  1.0000
  H   H4770     1.0  0.54313  0.58470  0.70142  1.0000
  S   S613      1.0  0.69366  0.60726  0.49355  1.0000
  H   H4771     1.0  0.72018  0.56038  0.66516  1.0000
  H   H4772     1.0  0.87057  0.60201  0.65140  1.0000
  C   C2687     1.0  0.98522  0.37811  0.66210  1.0000
  S   S614      1.0  0.55693  0.64723  0.72472  1.0000
  H   H4773     1.0  0.59883  0.52991  0.49907  1.0000
  H   H4774     1.0  0.74352  0.59339  0.69689  1.0000
  H   H4775     1.0  0.67736  0.37123  0.72241  1.0000
  H   H4776     1.0  0.68168  0.59103  0.67292  1.0000
  H   H4777     1.0  0.61642  0.55463  0.49362  1.0000
  H   H4778     1.0  0.62854  0.54117  0.67485  1.0000
  H   H4779     1.0  0.74875  0.62261  0.69864  1.0000
  C   C2688     1.0  0.71584  0.56603  0.67585  1.0000
  H   H4780     1.0  0.82354  0.54001  0.62550  1.0000
  H   H4781     1.0  0.76856  0.60203  0.66680  1.0000
  H   H4782     1.0  0.88397  0.33678  0.69545  1.0000
  C   C2689     1.0  0.56730  0.43425  0.72382  1.0000
  S   S615      1.0  0.93102  0.32369  0.59388  1.0000
  H   H4783     1.0  0.64658  0.57474  0.70457  1.0000
  H   H4784     1.0  0.82331  0.59239  0.64142  1.0000
  H   H4785     1.0  0.66659  0.51150  0.67363  1.0000
  H   H4786     1.0  0.74207  0.61729  0.53071  1.0000
  H   H4787     1.0  0.62085  0.38740  0.71922  1.0000
  H   H4788     1.0  0.62745  0.49562  0.67653  1.0000
  C   C2690     1.0  0.83903  0.57698  0.64397  1.0000
  H   H4789     1.0  0.61767  0.58401  0.64659  1.0000
  H   H4790     1.0  0.53907  0.62760  0.70503  1.0000
  H   H4791     1.0  0.68494  0.53539  0.68500  1.0000
  C   C2691     1.0  0.60071  0.34928  0.71550  1.0000
  H   H4792     1.0  0.67633  0.55229  0.66847  1.0000
  S   S616      1.0  0.89028  0.33147  0.50005  1.0000
  C   C2692     1.0  0.72247  0.57017  0.56216  1.0000
  H   H4793     1.0  0.67354  0.62135  0.59041  1.0000
  H   H4794     1.0  0.84513  0.50337  0.63702  1.0000
  C   C2693     1.0  0.96843  0.35145  0.53712  1.0000
  H   H4795     1.0  0.90808  0.34276  0.67959  1.0000
  H   H4796     1.0  0.63801  0.58136  0.66762  1.0000
  H   H4797     1.0  0.98723  0.45275  0.63368  1.0000
  H   H4798     1.0  0.51239  0.53063  0.51630  1.0000
  N   N151      1.0  0.64701  0.55629  0.68720  1.0000
  H   H4799     1.0  0.57594  0.51973  0.62299  1.0000
  N   N152      1.0  0.63905  0.56210  0.59309  1.0000
  C   C2694     1.0  0.63243  0.55890  0.57945  1.0000
  C   C2695     1.0  0.61699  0.55993  0.60541  1.0000
  C   C2696     1.0  0.64359  0.58820  0.59051  1.0000
  C   C2697     1.0  0.66212  0.54413  0.59695  1.0000
  C   C2698     1.0  0.66665  0.51783  0.59351  1.0000
  C   C2699     1.0  0.65130  0.56513  0.56520  1.0000
  C   C2700     1.0  0.64951  0.59592  0.60353  1.0000
  C   C2701     1.0  0.60755  0.53514  0.60966  1.0000
  C   C2702     1.0  0.58138  0.53813  0.61895  1.0000
  C   C2703     1.0  0.68891  0.50100  0.59952  1.0000
  C   C2704     1.0  0.64762  0.55425  0.55299  1.0000
  H   H4800     1.0  0.60095  0.58985  0.69599  1.0000
  H   H4801     1.0  0.61411  0.57086  0.57785  1.0000
  H   H4802     1.0  0.62991  0.53978  0.58035  1.0000
  H   H4803     1.0  0.62122  0.56234  0.61562  1.0000
  H   H4804     1.0  0.60109  0.57521  0.60292  1.0000
  H   H4805     1.0  0.62735  0.60192  0.58695  1.0000
  H   H4806     1.0  0.65968  0.59090  0.58151  1.0000
  H   H4807     1.0  0.67916  0.55167  0.59117  1.0000
  H   H4808     1.0  0.66216  0.54197  0.60872  1.0000
  H   H4809     1.0  0.67082  0.51867  0.58159  1.0000
  H   H4810     1.0  0.65038  0.50889  0.59818  1.0000
  H   H4811     1.0  0.64868  0.58555  0.56146  1.0000
  H   H4812     1.0  0.67072  0.55806  0.56685  1.0000
  H   H4813     1.0  0.66528  0.58253  0.60765  1.0000
  H   H4814     1.0  0.63316  0.59710  0.61253  1.0000
  H   H4815     1.0  0.60650  0.52791  0.60019  1.0000
  H   H4816     1.0  0.62002  0.52102  0.61620  1.0000
  H   H4817     1.0  0.75947  0.45574  0.62220  1.0000
  H   H4818     1.0  0.58063  0.54620  0.62850  1.0000
  H   H4819     1.0  0.56772  0.55030  0.61245  1.0000
  H   H4820     1.0  0.69180  0.48233  0.59693  1.0000
  H   H4821     1.0  0.70602  0.50869  0.59450  1.0000
  H   H4822     1.0  0.68567  0.49907  0.61152  1.0000
  H   H4823     1.0  0.66128  0.55940  0.54299  1.0000
  H   H4824     1.0  0.65065  0.53373  0.55594  1.0000
  H   H4825     1.0  0.62863  0.56170  0.55061  1.0000
  S   S617      1.0  0.94392  0.34690  0.49750  1.0000
  H   H4826     1.0  0.72567  0.62271  0.51077  1.0000
  C   C2705     1.0  0.81834  0.54075  0.56861  1.0000
  H   H4827     1.0  0.72881  0.62496  0.67730  1.0000
  H   H4828     1.0  0.94503  0.63538  0.69192  1.0000
  H   H4829     1.0  0.84108  0.58953  0.61443  1.0000
  H   H4830     1.0  0.52314  0.57303  0.54208  1.0000
  H   H4831     1.0  0.85401  0.60231  0.66982  1.0000
  C   C2706     1.0  0.54786  0.42497  0.72172  1.0000
  C   C2707     1.0  0.62832  0.63645  0.70493  1.0000
  C   C2708     1.0  0.85219  0.60157  0.65873  1.0000
  S   S618      1.0  0.97930  0.44526  0.67222  1.0000
  H   H4832     1.0  0.66421  0.50392  0.69301  1.0000
  N   N153      1.0  0.83425  0.55272  0.64228  1.0000
  C   C2709     1.0  0.98942  0.39721  0.66769  1.0000
  H   H4833     1.0  0.54928  0.59039  0.55238  1.0000
  H   H4834     1.0  0.49874  0.52468  0.65346  1.0000
  H   H4835     1.0  0.77288  0.60906  0.51022  1.0000
  C   C2710     1.0  0.97440  0.42077  0.66552  1.0000
  H   H4836     1.0  0.95994  0.35210  0.54866  1.0000
  H   H4837     1.0  0.53683  0.61306  0.53807  1.0000
  C   C2711     1.0  0.77361  0.61401  0.65648  1.0000
  H   H4838     1.0  0.68770  0.63804  0.66997  1.0000
  C   C2712     1.0  0.63584  0.53579  0.68514  1.0000
  H   H4839     1.0  0.61927  0.53282  0.69383  1.0000
  C   C2713     1.0  0.62667  0.52628  0.51137  1.0000
  Fe  Fe302     1.0  0.70878  0.56663  0.62491  1.0000
  H   H4840     1.0  0.65575  0.34153  0.66587  1.0000
  Fe  Fe303     1.0  0.66580  0.63278  0.48091  1.0000
  S   S619      1.0  0.57117  0.53781  0.71465  1.0000
  H   H4841     1.0  0.57360  0.61518  0.67940  1.0000
  C   C2714     1.0  0.78253  0.45053  0.56728  1.0000
  H   H4842     1.0  0.64119  0.63572  0.59519  1.0000
  C   C2715     1.0  0.52116  0.59753  0.49454  1.0000
  H   H4843     1.0  0.76423  0.59178  0.64412  1.0000
  C   C2716     1.0  0.78893  0.47511  0.56820  1.0000
  H   H4844     1.0  0.49513  0.61126  0.53343  1.0000
  C   C2717     1.0  0.88324  0.49097  0.63901  1.0000
  S   S620      1.0  0.69592  0.53959  0.48961  1.0000
  C   C2718     1.0  0.62495  0.56487  0.64574  1.0000
  C   C2719     1.0  0.63882  0.49020  0.68513  1.0000
  C   C2720     1.0  0.83364  0.43204  0.58393  1.0000
  C   C2721     1.0  0.85981  0.41940  0.57777  1.0000
  H   H4845     1.0  0.79980  0.43712  0.56432  1.0000
  H   H4846     1.0  0.83198  0.42918  0.59591  1.0000
  H   H4847     1.0  0.82037  0.42237  0.58184  1.0000
  H   H4848     1.0  0.86231  0.42088  0.56585  1.0000
  H   H4849     1.0  0.87398  0.42784  0.58008  1.0000
  H   H4850     1.0  0.86282  0.39949  0.58294  1.0000
  C   C2722     1.0  0.83729  0.33489  0.48208  1.0000
  Fe  Fe304     1.0  0.92179  0.34146  0.48236  1.0000
  S   S621      1.0  0.77602  0.55157  0.60348  1.0000
  H   H4851     1.0  0.79871  0.52329  0.64370  1.0000
  C   C2723     1.0  0.61762  0.53431  0.49691  1.0000
  H   H4852     1.0  0.80751  0.56959  0.62827  1.0000
  H   H4853     1.0  0.86360  0.56105  0.61500  1.0000
  H   H4854     1.0  0.68290  0.62603  0.55976  1.0000
  H   H4855     1.0  0.78757  0.44392  0.59559  1.0000
  H   H4856     1.0  0.97116  0.39047  0.53212  1.0000
  H   H4857     1.0  0.59621  0.57217  0.68394  1.0000
  H   H4858     1.0  0.74936  0.46763  0.55795  1.0000
  H   H4859     1.0  0.65190  0.47256  0.68361  1.0000
  H   H4860     1.0  0.87912  0.48250  0.65073  1.0000
  H   H4861     1.0  0.77775  0.46229  0.54468  1.0000
  C   C2724     1.0  0.68776  0.57378  0.68057  1.0000
  H   H4862     1.0  0.70991  0.59717  0.57594  1.0000
  H   H4863     1.0  0.85169  0.57539  0.59102  1.0000
  N   N154      1.0  0.61780  0.36494  0.70466  1.0000
  C   C2725     1.0  0.60264  0.38785  0.69694  1.0000
  C   C2726     1.0  0.69354  0.60880  0.55674  1.0000
  C   C2727     1.0  0.63293  0.37341  0.71291  1.0000
  C   C2728     1.0  0.56190  0.60353  0.49604  1.0000
  C   C2729     1.0  0.62444  0.33999  0.68417  1.0000
  C   C2730     1.0  0.61718  0.40721  0.68647  1.0000
  H   H4864     1.0  0.76316  0.43675  0.55484  1.0000
  H   H4865     1.0  0.88596  0.47627  0.63261  1.0000
  Fe  Fe305     1.0  0.51245  0.52924  0.68253  1.0000
  C   C2731     1.0  0.59955  0.42859  0.67889  1.0000
  H   H4866     1.0  0.77137  0.44238  0.57762  1.0000
  H   H4867     1.0  0.58913  0.39769  0.70515  1.0000
  H   H4868     1.0  0.59115  0.38304  0.69055  1.0000
  C   C2732     1.0  0.56539  0.56816  0.71781  1.0000
  H   H4869     1.0  0.82918  0.37598  0.60387  1.0000
  H   H4870     1.0  0.64744  0.38287  0.70525  1.0000
  H   H4871     1.0  0.64985  0.36083  0.68727  1.0000
  C   C2733     1.0  0.70574  0.58069  0.53985  1.0000
  H   H4872     1.0  0.61202  0.35485  0.67805  1.0000
  C   C2734     1.0  0.70874  0.59247  0.56594  1.0000
  H   H4873     1.0  0.62659  0.41542  0.69251  1.0000
  H   H4874     1.0  0.63121  0.39877  0.67796  1.0000
  H   H4875     1.0  0.77375  0.50289  0.66563  1.0000
  C   C2735     1.0  0.82875  0.46023  0.57738  1.0000
  H   H4876     1.0  0.90076  0.49813  0.63661  1.0000
  H   H4877     1.0  0.82935  0.55042  0.55869  1.0000
  H   H4878     1.0  0.83752  0.50498  0.56431  1.0000
  C   C2736     1.0  0.78008  0.51991  0.66584  1.0000
  H   H4879     1.0  0.61006  0.44283  0.67192  1.0000
  H   H4880     1.0  0.59049  0.42189  0.67193  1.0000
  H   H4881     1.0  0.58493  0.43750  0.68703  1.0000
  H   H4882     1.0  0.85864  0.32732  0.57019  1.0000
  Fe  Fe306     1.0  0.62267  0.60828  0.49929  1.0000
  H   H4883     1.0  0.76496  0.53603  0.66361  1.0000
  H   H4884     1.0  0.72514  0.58173  0.67480  1.0000
  C   C2737     1.0  0.52885  0.59809  0.47962  1.0000
  H   H4885     1.0  0.88665  0.38000  0.55704  1.0000
  H   H4886     1.0  0.62464  0.61731  0.70791  1.0000
  H   H4887     1.0  0.84626  0.33380  0.61754  1.0000
  H   H4888     1.0  0.72304  0.60961  0.71049  1.0000
  H   H4889     1.0  0.77793  0.62159  0.49100  1.0000
  H   H4890     1.0  0.65099  0.51804  0.71329  1.0000
  H   H4891     1.0  0.72206  0.64413  0.53687  1.0000
  H   H4892     1.0  0.82612  0.34937  0.50200  1.0000
  C   C2738     1.0  0.74843  0.46183  0.61341  1.0000
  Fe  Fe307     1.0  0.55267  0.52657  0.69949  1.0000
  H   H4893     1.0  0.85716  0.56177  0.66300  1.0000
  C   C2739     1.0  0.65666  0.62142  0.59910  1.0000
  H   H4894     1.0  0.87604  0.35633  0.67884  1.0000
  H   H4895     1.0  0.61066  0.32974  0.71808  1.0000
  H   H4896     1.0  0.51827  0.44677  0.67890  1.0000
  S   S622      1.0  0.77784  0.61455  0.61378  1.0000
  H   H4897     1.0  0.54403  0.33069  0.71911  1.0000
  H   H4898     1.0  0.63483  0.50035  0.48977  1.0000
  H   H4899     1.0  0.89019  0.32135  0.66617  1.0000
  H   H4900     1.0  0.77611  0.62363  0.54096  1.0000
  C   C2740     1.0  0.73421  0.61197  0.69928  1.0000
  C   C2741     1.0  0.89796  0.36198  0.56002  1.0000
  Fe  Fe308     1.0  0.75777  0.58398  0.61449  1.0000
  H   H4901     1.0  0.83021  0.40224  0.48375  1.0000
  C   C2742     1.0  0.65047  0.55695  0.64111  1.0000
  C   C2743     1.0  0.50357  0.53223  0.52770  1.0000
  H   H4902     1.0  0.52384  0.61513  0.55692  1.0000
  H   H4903     1.0  0.81763  0.50559  0.65685  1.0000
  C   C2744     1.0  0.76206  0.47739  0.60009  1.0000
  C   C2745     1.0  0.83864  0.56667  0.60025  1.0000
  C   C2746     1.0  0.81796  0.51484  0.56668  1.0000
  Fe  Fe309     1.0  0.74019  0.55765  0.59563  1.0000
  S   S623      1.0  0.72349  0.59224  0.60475  1.0000
  H   H4904     1.0  0.85625  0.33825  0.48072  1.0000
  C   C2747     1.0  0.76453  0.61378  0.50037  1.0000
  C   C2748     1.0  0.56956  0.60439  0.48108  1.0000
  H   H4905     1.0  0.59759  0.60964  0.66389  1.0000
  Fe  Fe310     1.0  0.91377  0.33337  0.51536  1.0000
  H   H4906     1.0  0.85567  0.58200  0.63597  1.0000
  C   C2749     1.0  0.63531  0.52025  0.48532  1.0000
  C   C2750     1.0  0.75648  0.63249  0.54451  1.0000
  Fe  Fe311     1.0  0.67442  0.57771  0.49229  1.0000
  C   C2751     1.0  0.80293  0.50072  0.58047  1.0000
  H   H4907     1.0  0.58913  0.55431  0.65296  1.0000
  H   H4908     1.0  0.71848  0.62961  0.64831  1.0000
  C   C2752     1.0  0.78788  0.64400  0.62974  1.0000
  H   H4909     1.0  0.56348  0.36786  0.71100  1.0000
  H   H4910     1.0  0.82546  0.57820  0.66716  1.0000
  C   C2753     1.0  0.82850  0.33713  0.61372  1.0000
  H   H4911     1.0  0.64578  0.52965  0.50995  1.0000
  H   H4912     1.0  0.76300  0.49471  0.60323  1.0000
  C   C2754     1.0  0.56108  0.33133  0.72275  1.0000
  H   H4913     1.0  0.68419  0.57785  0.69164  1.0000
  H   H4914     1.0  0.86634  0.51858  0.62301  1.0000
  H   H4915     1.0  0.79914  0.55185  0.57031  1.0000
  C   C2755     1.0  0.65334  0.51024  0.68421  1.0000
  H   H4916     1.0  0.57086  0.45208  0.71776  1.0000
  H   H4917     1.0  0.92628  0.65007  0.72187  1.0000
  H   H4918     1.0  0.81539  0.33560  0.59455  1.0000
  C   C2756     1.0  0.51108  0.43948  0.67140  1.0000
  C   C2757     1.0  0.81725  0.36474  0.61244  1.0000
  H   H4919     1.0  0.51817  0.52610  0.53445  1.0000
  C   C2758     1.0  0.82618  0.55728  0.62787  1.0000
  H   H4920     1.0  0.61408  0.32542  0.69072  1.0000
  C   C2759     1.0  0.72108  0.56439  0.54903  1.0000
  H   H4921     1.0  0.81868  0.54219  0.66516  1.0000
  C   C2760     1.0  0.88871  0.33954  0.68341  1.0000
  C   C2761     1.0  0.80353  0.52250  0.65428  1.0000
  S   S624      1.0  0.74188  0.56066  0.63522  1.0000
  C   C2762     1.0  0.74158  0.63595  0.53261  1.0000
  C   C2763     1.0  0.94176  0.64580  0.71278  1.0000
  C   C2764     1.0  0.51362  0.58595  0.54959  1.0000
  C   C2765     1.0  0.57644  0.57263  0.72827  1.0000
  H   H4922     1.0  0.65734  0.62788  0.68710  1.0000
  H   H4923     1.0  0.97036  0.37800  0.51660  1.0000
  H   H4924     1.0  0.75591  0.65058  0.54729  1.0000
  C   C2766     1.0  0.71367  0.64981  0.64402  1.0000
  H   H4925     1.0  0.55720  0.51558  0.48447  1.0000
  C   C2767     1.0  0.82583  0.33238  0.49825  1.0000
  S   S625      1.0  0.78559  0.64147  0.67257  1.0000
  H   H4926     1.0  0.51013  0.57473  0.56066  1.0000
  H   H4927     1.0  0.50247  0.59512  0.49970  1.0000
  H   H4928     1.0  0.95411  0.62854  0.71692  1.0000
  H   H4929     1.0  0.77261  0.64598  0.51562  1.0000
  H   H4930     1.0  0.84638  0.33985  0.59127  1.0000
  C   C2768     1.0  0.65501  0.63648  0.69661  1.0000
  C   C2769     1.0  0.91983  0.32230  0.55415  1.0000
  H   H4931     1.0  0.58018  0.54968  0.48141  1.0000
  C   C2770     1.0  0.93033  0.64073  0.70116  1.0000
  H   H4932     1.0  0.63642  0.32016  0.66625  1.0000
  H   H4933     1.0  0.72223  0.64225  0.72355  1.0000
  C   C2771     1.0  0.70643  0.65244  0.69016  1.0000
  H   H4934     1.0  0.97781  0.31937  0.56255  1.0000
  H   H4935     1.0  0.52798  0.39478  0.72843  1.0000
  H   H4936     1.0  0.49386  0.61370  0.72556  1.0000
  Fe  Fe312     1.0  0.66154  0.34445  0.86637  1.0000
  S   S626      1.0  0.62828  0.33747  0.88338  1.0000
  H   H4937     1.0  0.73047  0.61072  0.91953  1.0000
  Fe  Fe313     1.0  0.64915  0.40077  0.86644  1.0000
  S   S627      1.0  0.61441  0.39689  0.88322  1.0000
  S   S628      1.0  0.66315  0.43686  0.85680  1.0000
  Fe  Fe314     1.0  0.63878  0.36318  0.89419  1.0000
  S   S629      1.0  0.64256  0.35094  0.91782  1.0000
  Fe  Fe315     1.0  0.60860  0.37116  0.87018  1.0000
  S   S630      1.0  0.57610  0.36916  0.86088  1.0000
  S   S631      1.0  0.67363  0.36837  0.87788  1.0000
  S   S632      1.0  0.64167  0.37735  0.85275  1.0000
  C   C2772     1.0  0.89356  0.32269  0.95882  1.0000
  C   C2773     1.0  0.51272  0.59961  0.91374  1.0000
  H   H4938     1.0  0.59600  0.38906  0.91434  1.0000
  H   H4939     1.0  0.65731  0.53564  0.83845  1.0000
  C   C2774     1.0  0.70139  0.62931  0.89228  1.0000
  H   H4940     1.0  0.54213  0.37521  0.96031  1.0000
  Fe  Fe316     1.0  0.65855  0.60259  0.88353  1.0000
  S   S633      1.0  0.63369  0.57895  0.89968  1.0000
  S   S634      1.0  0.69718  0.60362  0.88634  1.0000
  Fe  Fe317     1.0  0.62002  0.62428  0.86438  1.0000
  S   S635      1.0  0.59160  0.60348  0.87916  1.0000
  C   C2775     1.0  0.55834  0.38795  0.73981  1.0000
  Fe  Fe318     1.0  0.60394  0.61297  0.89725  1.0000
  H   H4941     1.0  0.49448  0.62953  0.97358  1.0000
  Fe  Fe319     1.0  0.62339  0.57074  0.88042  1.0000
  S   S636      1.0  0.61052  0.53511  0.88146  1.0000
  S   S637      1.0  0.65119  0.59116  0.86427  1.0000
  C   C2776     1.0  0.52013  0.45975  0.93655  1.0000
  C   C2777     1.0  0.68569  0.38890  0.81722  1.0000
  C   C2778     1.0  0.54022  0.35930  0.90737  1.0000
  H   H4942     1.0  0.88933  0.55728  0.96412  1.0000
  H   H4943     1.0  0.69368  0.59756  0.96365  1.0000
  C   C2779     1.0  0.60677  0.64147  0.83006  1.0000
  H   H4944     1.0  0.50803  0.63971  0.92815  1.0000
  H   H4945     1.0  0.66859  0.32936  0.94190  1.0000
  H   H4946     1.0  0.99343  0.62453  0.72904  1.0000
  C   C2780     1.0  0.59815  0.55238  0.78876  1.0000
  H   H4947     1.0  0.62064  0.46649  0.84234  1.0000
  H   H4948     1.0  0.85811  0.56627  0.94899  1.0000
  H   H4949     1.0  0.60657  0.54318  0.85045  1.0000
  H   H4950     1.0  0.58451  0.53973  0.81678  1.0000
  H   H4951     1.0  0.66321  0.36354  0.77511  1.0000
  H   H4952     1.0  0.58736  0.57034  0.81551  1.0000
  C   C2781     1.0  0.81245  0.63310  0.96366  1.0000
  H   H4953     1.0  0.55448  0.45021  0.92201  1.0000
  H   H4954     1.0  0.61670  0.45873  0.82614  1.0000
  H   H4955     1.0  0.53349  0.56180  0.91570  1.0000
  C   C2782     1.0  0.54656  0.41645  0.93780  1.0000
  H   H4956     1.0  0.64514  0.46780  0.82639  1.0000
  H   H4957     1.0  0.58342  0.38094  0.94726  1.0000
  H   H4958     1.0  0.57057  0.33843  0.81818  1.0000
  C   C2783     1.0  0.97639  0.62981  0.97375  1.0000
  H   H4959     1.0  0.64501  0.51420  0.82220  1.0000
  C   C2784     1.0  0.64874  0.55544  0.83548  1.0000
  H   H4960     1.0  0.89000  0.32721  0.96979  1.0000
  C   C2785     1.0  0.83334  0.61432  0.96534  1.0000
  H   H4961     1.0  0.56296  0.53686  0.83861  1.0000
  C   C2786     1.0  0.67908  0.64716  0.95288  1.0000
  H   H4962     1.0  0.54193  0.40320  0.91260  1.0000
  C   C2787     1.0  0.92688  0.53815  0.95838  1.0000
  H   H4963     1.0  0.56659  0.54124  0.86913  1.0000
  H   H4964     1.0  0.62961  0.53566  0.79916  1.0000
  H   H4965     1.0  0.52162  0.35781  0.91424  1.0000
  H   H4966     1.0  0.86680  0.51968  0.94526  1.0000
  C   C2788     1.0  0.53829  0.44152  0.92779  1.0000
  H   H4967     1.0  0.62915  0.50901  0.84041  1.0000
  H   H4968     1.0  0.68049  0.63836  0.96431  1.0000
  H   H4969     1.0  0.62373  0.57925  0.82177  1.0000
  H   H4970     1.0  0.61479  0.50116  0.81314  1.0000
  H   H4971     1.0  0.54118  0.53358  0.86396  1.0000
  H   H4972     1.0  0.58133  0.51447  0.85070  1.0000
  C   C2789     1.0  0.67066  0.32920  0.91934  1.0000
  C   C2790     1.0  0.62108  0.42598  0.91281  1.0000
  H   H4973     1.0  0.58223  0.59989  0.73868  1.0000
  C   C2791     1.0  0.54317  0.40195  0.72990  1.0000
  H   H4974     1.0  0.88283  0.47418  0.95800  1.0000
  C   C2792     1.0  0.64910  0.46362  0.86437  1.0000
  C   C2793     1.0  0.66181  0.48334  0.86149  1.0000
  C   C2794     1.0  0.65059  0.50521  0.86695  1.0000
  C   C2795     1.0  0.62635  0.50769  0.87503  1.0000
  C   C2796     1.0  0.61363  0.48806  0.87778  1.0000
  C   C2797     1.0  0.62498  0.46608  0.87259  1.0000
  H   H4975     1.0  0.68047  0.48160  0.85512  1.0000
  H   H4976     1.0  0.66063  0.52013  0.86487  1.0000
  H   H4977     1.0  0.59484  0.48987  0.88398  1.0000
  H   H4978     1.0  0.61487  0.45123  0.87471  1.0000
  C   C2798     1.0  0.58648  0.35017  0.84765  1.0000
  C   C2799     1.0  0.57247  0.35178  0.83708  1.0000
  C   C2800     1.0  0.58121  0.33678  0.82644  1.0000
  H   H4979     1.0  0.67793  0.32377  0.89728  1.0000
  C   C2801     1.0  0.85682  0.49313  0.97503  1.0000
  H   H4980     1.0  0.82656  0.56278  0.95579  1.0000
  H   H4981     1.0  0.55510  0.36494  0.83696  1.0000
  C   C2802     1.0  0.68366  0.36580  0.79150  1.0000
  C   C2803     1.0  0.84422  0.55565  0.94874  1.0000
  H   H4982     1.0  0.58242  0.56848  0.78895  1.0000
  C   C2804     1.0  0.62601  0.51627  0.82906  1.0000
  H   H4983     1.0  0.52928  0.41051  0.94460  1.0000
  C   C2805     1.0  0.55266  0.36240  0.95290  1.0000
  H   H4984     1.0  0.89584  0.51072  0.97662  1.0000
  C   C2806     1.0  0.66231  0.36374  0.73073  1.0000
  C   C2807     1.0  0.59851  0.55133  0.81527  1.0000
  H   H4985     1.0  0.51553  0.47792  0.92928  1.0000
  H   H4986     1.0  0.57740  0.41861  0.90988  1.0000
  H   H4987     1.0  0.59073  0.53504  0.79132  1.0000
  S   S638      1.0  0.57015  0.33157  0.78476  1.0000
  H   H4988     1.0  0.67085  0.34897  0.73894  1.0000
  H   H4989     1.0  0.55265  0.58489  0.91057  1.0000
  H   H4990     1.0  0.55084  0.33040  0.97049  1.0000
  S   S639      1.0  0.61414  0.65221  0.84389  1.0000
  C   C2808     1.0  0.59615  0.54839  0.84140  1.0000
  H   H4991     1.0  0.64593  0.55592  0.81370  1.0000
  S   S640      1.0  0.60000  0.37858  0.75207  1.0000
  C   C2809     1.0  0.60363  0.31961  0.82664  1.0000
  C   C2810     1.0  0.59250  0.62819  0.80731  1.0000
  C   C2811     1.0  0.51483  0.62583  0.90451  1.0000
  C   C2812     1.0  0.60143  0.41567  0.92512  1.0000
  H   H4992     1.0  0.88955  0.34016  0.95088  1.0000
  C   C2813     1.0  0.53547  0.58036  0.90900  1.0000
  C   C2814     1.0  0.61411  0.55188  0.79965  1.0000
  Fe  Fe320     1.0  0.59622  0.33962  0.76342  1.0000
  C   C2815     1.0  0.67247  0.57693  0.92643  1.0000
  H   H4993     1.0  0.49611  0.59366  0.91250  1.0000
  S   S641      1.0  0.57865  0.62134  0.91805  1.0000
  H   H4994     1.0  0.55926  0.34826  0.92518  1.0000
  H   H4995     1.0  0.69960  0.56496  0.94016  1.0000
  N   N155      1.0  0.56224  0.39611  0.93009  1.0000
  H   H4996     1.0  0.92887  0.32381  0.77002  1.0000
  H   H4997     1.0  0.69802  0.41644  0.82466  1.0000
  C   C2816     1.0  0.58974  0.62569  0.83323  1.0000
  H   H4998     1.0  0.70232  0.65022  0.93144  1.0000
  H   H4999     1.0  0.61988  0.33160  0.85571  1.0000
  C   C2817     1.0  0.98190  0.65089  0.96358  1.0000
  H   H5000     1.0  0.68280  0.38577  0.78644  1.0000
  C   C2818     1.0  0.55723  0.36426  0.91610  1.0000
  H   H5001     1.0  0.65637  0.57633  0.93563  1.0000
  H   H5002     1.0  0.63349  0.34378  0.73256  1.0000
  C   C2819     1.0  0.72553  0.63281  0.89157  1.0000
  H   H5003     1.0  0.68109  0.56692  0.83826  1.0000
  H   H5004     1.0  0.93382  0.55523  0.95239  1.0000
  H   H5005     1.0  0.53823  0.37429  0.89767  1.0000
  C   C2820     1.0  0.69511  0.58060  0.93121  1.0000
  H   H5006     1.0  0.70246  0.38634  0.80858  1.0000
  S   S642      1.0  0.62931  0.63714  0.88242  1.0000
  H   H5007     1.0  0.65057  0.37878  0.73629  1.0000
  H   H5008     1.0  0.53276  0.62974  0.90549  1.0000
  H   H5009     1.0  0.52878  0.43905  0.91956  1.0000
  H   H5010     1.0  0.83311  0.58182  0.92994  1.0000
  C   C2821     1.0  0.57233  0.37476  0.94117  1.0000
  C   C2822     1.0  0.57842  0.39684  0.74141  1.0000
  H   H5011     1.0  0.64106  0.34477  0.79956  1.0000
  C   C2823     1.0  0.68979  0.60595  0.93606  1.0000
  S   S643      1.0  0.79930  0.63736  0.94825  1.0000
  H   H5012     1.0  0.51701  0.62412  0.89302  1.0000
  H   H5013     1.0  0.89686  0.54658  0.94703  1.0000
  Fe  Fe321     1.0  0.59121  0.64282  0.77051  1.0000
  H   H5014     1.0  0.55630  0.42001  0.94565  1.0000
  C   C2824     1.0  0.64030  0.36088  0.80442  1.0000
  H   H5015     1.0  0.95741  0.64723  0.73555  1.0000
  C   C2825     1.0  0.66248  0.38520  0.81259  1.0000
  H   H5016     1.0  0.55479  0.37014  0.74602  1.0000
  C   C2826     1.0  0.80133  0.64640  0.97479  1.0000
  C   C2827     1.0  0.62571  0.38445  0.79586  1.0000
  H   H5017     1.0  0.85066  0.47874  0.95708  1.0000
  H   H5018     1.0  0.79328  0.62231  0.91960  1.0000
  H   H5019     1.0  0.61150  0.40109  0.93275  1.0000
  H   H5020     1.0  0.77656  0.61207  0.90908  1.0000
  C   C2828     1.0  0.60493  0.37855  0.79037  1.0000
  H   H5021     1.0  0.66295  0.64240  0.95022  1.0000
  H   H5022     1.0  0.62846  0.35717  0.81538  1.0000
  H   H5023     1.0  0.59794  0.42727  0.73491  1.0000
  H   H5024     1.0  0.67692  0.55923  0.92245  1.0000
  C   C2829     1.0  0.56388  0.65201  0.91879  1.0000
  H   H5025     1.0  0.64727  0.38473  0.82234  1.0000
  H   H5026     1.0  0.65633  0.40243  0.80491  1.0000
  H   H5027     1.0  0.70467  0.37268  0.76193  1.0000
  H   H5028     1.0  0.89054  0.60563  0.94643  1.0000
  H   H5029     1.0  0.55528  0.33765  0.73330  1.0000
  H   H5030     1.0  0.53913  0.35730  0.94806  1.0000
  H   H5031     1.0  0.61703  0.39805  0.80310  1.0000
  H   H5032     1.0  0.63800  0.39361  0.78641  1.0000
  H   H5033     1.0  0.62222  0.56891  0.79605  1.0000
  H   H5034     1.0  0.58573  0.36031  0.93569  1.0000
  S   S644      1.0  0.95046  0.61816  0.97313  1.0000
  C   C2830     1.0  0.60890  0.33313  0.84766  1.0000
  H   H5035     1.0  0.75066  0.59172  0.95832  1.0000
  H   H5036     1.0  0.61835  0.64987  0.79314  1.0000
  H   H5037     1.0  0.57562  0.36507  0.90890  1.0000
  C   C2831     1.0  0.85251  0.52731  0.95406  1.0000
  C   C2832     1.0  0.67999  0.35336  0.77959  1.0000
  C   C2833     1.0  0.61678  0.65036  0.81555  1.0000
  H   H5038     1.0  0.59484  0.39576  0.78437  1.0000
  H   H5039     1.0  0.61269  0.36532  0.78286  1.0000
  H   H5040     1.0  0.59149  0.37048  0.79960  1.0000
  N   N156      1.0  0.86164  0.51900  0.96833  1.0000
  H   H5041     1.0  0.93040  0.53429  0.96962  1.0000
  H   H5042     1.0  0.69867  0.34495  0.75846  1.0000
  H   H5043     1.0  0.66723  0.59220  0.91741  1.0000
  H   H5044     1.0  0.66327  0.52378  0.73494  1.0000
  C   C2834     1.0  0.90933  0.60944  0.94553  1.0000
  H   H5045     1.0  0.60449  0.32506  0.91624  1.0000
  H   H5046     1.0  0.59295  0.50061  0.82992  1.0000
  H   H5047     1.0  0.70313  0.35896  0.79327  1.0000
  H   H5048     1.0  0.50378  0.62240  0.73971  1.0000
  H   H5049     1.0  0.67254  0.60619  0.94451  1.0000
  S   S645      1.0  0.58297  0.61998  0.79324  1.0000
  H   H5050     1.0  0.66264  0.33853  0.82711  1.0000
  H   H5051     1.0  0.60958  0.55415  0.77762  1.0000
  H   H5052     1.0  0.78606  0.59182  0.92526  1.0000
  H   H5053     1.0  0.66496  0.41820  0.82902  1.0000
  C   C2835     1.0  0.54617  0.38845  0.92208  1.0000
  H   H5054     1.0  0.57838  0.34321  0.96755  1.0000
  H   H5055     1.0  0.71078  0.57944  0.92179  1.0000
  H   H5056     1.0  0.63317  0.43391  0.91728  1.0000
  H   H5057     1.0  0.59111  0.43092  0.93086  1.0000
  H   H5058     1.0  0.67989  0.42919  0.81058  1.0000
  H   H5059     1.0  0.61222  0.44084  0.90476  1.0000
  H   H5060     1.0  0.74138  0.62007  0.88703  1.0000
  H   H5061     1.0  0.73016  0.61860  0.96447  1.0000
  H   H5062     1.0  0.75828  0.62216  0.94016  1.0000
  C   C2836     1.0  0.70362  0.63892  0.94244  1.0000
  C   C2837     1.0  0.58392  0.40477  0.91918  1.0000
  H   H5063     1.0  0.89965  0.50366  0.95940  1.0000
  H   H5064     1.0  0.51156  0.59904  0.92546  1.0000
  C   C2838     1.0  0.83952  0.56152  0.93322  1.0000
  C   C2839     1.0  0.71210  0.59542  0.95622  1.0000
  C   C2840     1.0  0.57418  0.53449  0.84700  1.0000
  C   C2841     1.0  0.56514  0.33889  0.96207  1.0000
  H   H5065     1.0  0.68491  0.62046  0.92658  1.0000
  C   C2842     1.0  0.57386  0.59678  0.73047  1.0000
  H   H5066     1.0  0.68918  0.37547  0.82733  1.0000
  H   H5067     1.0  0.85051  0.55512  0.97455  1.0000
  C   C2843     1.0  0.73171  0.59893  0.96400  1.0000
  H   H5068     1.0  0.54868  0.64303  0.94165  1.0000
  H   H5069     1.0  0.52772  0.38638  0.92909  1.0000
  H   H5070     1.0  0.82490  0.55199  0.93249  1.0000
  H   H5071     1.0  0.85687  0.55572  0.92555  1.0000
  S   S646      1.0  0.60805  0.62610  0.75062  1.0000
  H   H5072     1.0  0.58701  0.55730  0.73472  1.0000
  H   H5073     1.0  0.57522  0.32514  0.95513  1.0000
  C   C2844     1.0  0.58257  0.42019  0.73360  1.0000
  H   H5074     1.0  0.54840  0.34154  0.90360  1.0000
  H   H5075     1.0  0.91706  0.59883  0.95526  1.0000
  H   H5076     1.0  0.52835  0.46255  0.94528  1.0000
  C   C2845     1.0  0.62468  0.47119  0.83029  1.0000
  C   C2846     1.0  0.58236  0.61937  0.82186  1.0000
  C   C2847     1.0  0.63260  0.55925  0.82387  1.0000
  H   H5077     1.0  0.63748  0.56200  0.84542  1.0000
  C   C2848     1.0  0.68183  0.41479  0.82052  1.0000
  H   H5078     1.0  0.63301  0.41100  0.90724  1.0000
  H   H5079     1.0  0.58857  0.56865  0.84043  1.0000
  N   N157      1.0  0.71035  0.61180  0.94154  1.0000
  N   N158      1.0  0.61321  0.54322  0.82737  1.0000
  C   C2849     1.0  0.73432  0.60666  0.93073  1.0000
  H   H5080     1.0  0.86609  0.43513  0.96544  1.0000
  H   H5081     1.0  0.54862  0.56399  0.85703  1.0000
  H   H5082     1.0  0.68193  0.56433  0.81992  1.0000
  H   H5083     1.0  0.71676  0.57560  0.95528  1.0000
  N   N159      1.0  0.66577  0.36275  0.80592  1.0000
  C   C2850     1.0  0.75458  0.62181  0.92949  1.0000
  C   C2851     1.0  0.77907  0.61128  0.92027  1.0000
  C   C2852     1.0  0.61299  0.49816  0.82510  1.0000
  C   C2853     1.0  0.55662  0.54399  0.86006  1.0000
  H   H5084     1.0  0.56853  0.60790  0.82436  1.0000
  H   H5085     1.0  0.58172  0.61900  0.84442  1.0000
  C   C2854     1.0  0.86391  0.47426  0.96463  1.0000
  H   H5086     1.0  0.74281  0.58658  0.93284  1.0000
  C   C2855     1.0  0.67574  0.34015  0.81641  1.0000
  H   H5087     1.0  0.53739  0.57949  0.89740  1.0000
  H   H5088     1.0  0.92166  0.60307  0.93578  1.0000
  C   C2856     1.0  0.66964  0.57020  0.82982  1.0000
  H   H5089     1.0  0.84209  0.60427  0.95668  1.0000
  H   H5090     1.0  0.66181  0.59035  0.82731  1.0000
  H   H5091     1.0  0.93756  0.52258  0.95295  1.0000
  C   C2857     1.0  0.89909  0.54169  0.95855  1.0000
  C   C2858     1.0  0.86302  0.44790  0.97309  1.0000
  H   H5092     1.0  0.83564  0.51971  0.95485  1.0000
  H   H5093     1.0  0.50263  0.45273  0.94145  1.0000
  C   C2859     1.0  0.60998  0.64342  0.80423  1.0000
  C   C2860     1.0  0.88931  0.51765  0.96610  1.0000
  H   H5094     1.0  0.63269  0.54141  0.73319  1.0000
  C   C2861     1.0  0.84288  0.60846  0.97816  1.0000
  Fe  Fe322     1.0  0.49569  0.32506  0.96138  1.0000
  H   H5095     1.0  0.74855  0.64131  0.92415  1.0000
  S   S647      1.0  0.66999  0.64610  0.73354  1.0000
  C   C2862     1.0  0.89097  0.64645  0.95773  1.0000
  H   H5096     1.0  0.66242  0.64302  0.89915  1.0000
  H   H5097     1.0  0.89932  0.63542  0.96718  1.0000
  H   H5098     1.0  0.69355  0.34186  0.81874  1.0000
  C   C2863     1.0  0.70209  0.35342  0.76689  1.0000
  C   C2864     1.0  0.67924  0.32173  0.93254  1.0000
  H   H5099     1.0  0.53373  0.64303  0.81116  1.0000
  H   H5100     1.0  0.67751  0.33399  0.78375  1.0000
  H   H5101     1.0  0.92739  0.63970  0.94314  1.0000
  C   C2865     1.0  0.68104  0.64584  0.89819  1.0000
  C   C2866     1.0  0.90813  0.63710  0.94419  1.0000
  H   H5102     1.0  0.52523  0.61763  0.97758  1.0000
  H   H5103     1.0  0.52182  0.64949  0.79465  1.0000
  H   H5104     1.0  0.71934  0.34246  0.77062  1.0000
  H   H5105     1.0  0.90135  0.64686  0.93404  1.0000
  H   H5106     1.0  0.71839  0.64496  0.94576  1.0000
  H   H5107     1.0  0.87273  0.64098  0.95912  1.0000
  C   C2867     1.0  0.84723  0.53594  0.97870  1.0000
  C   C2868     1.0  0.57139  0.72984  0.08864  1.0000
  C   C2869     1.0  0.55182  0.75211  0.09270  1.0000
  Fe  Fe323     1.0  0.64006  0.88213  0.99840  1.0000
  S   S648      1.0  0.64976  0.85407  0.01805  1.0000
  S   S649      1.0  0.64651  0.85374  0.98435  1.0000
  Fe  Fe324     1.0  0.60623  0.85198  0.99275  1.0000
  S   S650      1.0  0.61345  0.82196  0.01189  1.0000
  H   H5108     1.0  0.62282  0.86654  0.09865  1.0000
  Fe  Fe325     1.0  0.60909  0.85286  0.02348  1.0000
  S   S651      1.0  0.58419  0.85256  0.04545  1.0000
  Fe  Fe326     1.0  0.65332  0.82572  0.00446  1.0000
  S   S652      1.0  0.68108  0.78948  0.00539  1.0000
  S   S653      1.0  0.59903  0.88303  0.00489  1.0000
  H   H5109     1.0  0.81552  0.69829  0.13539  1.0000
  H   H5110     1.0  0.70519  0.74312  0.99631  1.0000
  C   C2870     1.0  0.70020  0.78067  0.20909  1.0000
  H   H5111     1.0  0.50569  0.65519  0.98783  1.0000
  Fe  Fe327     1.0  0.61838  0.72067  0.14253  1.0000
  S   S654      1.0  0.57860  0.72799  0.15390  1.0000
  S   S655      1.0  0.64945  0.69507  0.15287  1.0000
  Fe  Fe328     1.0  0.60755  0.75505  0.11450  1.0000
  S   S656      1.0  0.56695  0.76632  0.12357  1.0000
  S   S657      1.0  0.62873  0.76457  0.09167  1.0000
  Fe  Fe329     1.0  0.57974  0.76769  0.14364  1.0000
  S   S658      1.0  0.56201  0.79456  0.15869  1.0000
  Fe  Fe330     1.0  0.56884  0.72578  0.13304  1.0000
  C   C2871     1.0  0.84590  0.69282  0.06615  1.0000
  S   S659      1.0  0.62026  0.76058  0.13362  1.0000
  S   S660      1.0  0.60862  0.71436  0.12263  1.0000
  Fe  Fe331     1.0  0.60869  0.95548  0.17214  1.0000
  S   S661      1.0  0.63836  0.92657  0.16254  1.0000
  H   H5112     1.0  0.74607  0.79247  0.20564  1.0000
  Fe  Fe332     1.0  0.58123  0.91762  0.19342  1.0000
  S   S662      1.0  0.60866  0.88518  0.18597  1.0000
  S   S663      1.0  0.54687  0.91740  0.21100  1.0000
  Fe  Fe333     1.0  0.63782  0.90628  0.18559  1.0000
  S   S664      1.0  0.67428  0.88495  0.19176  1.0000
  Fe  Fe334     1.0  0.60717  0.90760  0.16354  1.0000
  S   S665      1.0  0.60711  0.89152  0.14431  1.0000
  S   S666      1.0  0.61054  0.93679  0.19520  1.0000
  S   S667      1.0  0.57739  0.93843  0.17099  1.0000
  Fe  Fe335     1.0  0.77663  0.72705  0.20634  1.0000
  H   H5113     1.0  0.62280  0.67332  0.10479  1.0000
  H   H5114     1.0  0.58206  0.76242  0.99636  1.0000
  S   S668      1.0  0.77469  0.75103  0.18434  1.0000
  C   C2872     1.0  0.66596  0.71045  0.16013  1.0000
  C   C2873     1.0  0.68910  0.69848  0.16376  1.0000
  C   C2874     1.0  0.70267  0.71094  0.16919  1.0000
  H   H5115     1.0  0.83663  0.67691  0.06761  1.0000
  H   H5116     1.0  0.85221  0.68319  0.17719  1.0000
  H   H5117     1.0  0.90145  0.65431  0.05440  1.0000
  H   H5118     1.0  0.54635  0.86535  0.00374  1.0000
  H   H5119     1.0  0.72048  0.70160  0.17192  1.0000
  C   C2875     1.0  0.64414  0.89034  0.08157  1.0000
  H   H5120     1.0  0.55041  0.90974  0.99339  1.0000
  C   C2876     1.0  0.57462  0.82140  0.15459  1.0000
  C   C2877     1.0  0.58536  0.83076  0.14033  1.0000
  C   C2878     1.0  0.59487  0.85260  0.13722  1.0000
  C   C2879     1.0  0.59417  0.86479  0.14840  1.0000
  C   C2880     1.0  0.58354  0.85530  0.16266  1.0000
  C   C2881     1.0  0.57348  0.83385  0.16572  1.0000
  H   H5121     1.0  0.58598  0.82134  0.13168  1.0000
  H   H5122     1.0  0.60296  0.85990  0.12616  1.0000
  H   H5123     1.0  0.58271  0.86464  0.17132  1.0000
  H   H5124     1.0  0.56504  0.82671  0.17676  1.0000
  Fe  Fe336     1.0  0.74564  0.73041  0.18381  1.0000
  H   H5125     1.0  0.92147  0.94761  0.21683  1.0000
  S   S669      1.0  0.74527  0.70901  0.20652  1.0000
  H   H5126     1.0  0.52231  0.95014  0.16997  1.0000
  C   C2882     1.0  0.65624  0.73468  0.16229  1.0000
  H   H5127     1.0  0.49884  0.76183  0.22710  1.0000
  C   C2883     1.0  0.53869  0.87577  0.20447  1.0000
  C   C2884     1.0  0.54718  0.82540  0.03025  1.0000
  H   H5128     1.0  0.60397  0.76099  0.04585  1.0000
  H   H5129     1.0  0.56078  0.76786  0.09214  1.0000
  H   H5130     1.0  0.83502  0.66926  0.09502  1.0000
  H   H5131     1.0  0.53934  0.67422  0.06419  1.0000
  H   H5132     1.0  0.50476  0.87250  0.03978  1.0000
  N   N160      1.0  0.51351  0.85072  0.01493  1.0000
  H   H5133     1.0  0.63462  0.93922  0.05418  1.0000
  C   C2885     1.0  0.75318  0.82385  0.17931  1.0000
  H   H5134     1.0  0.74341  0.97941  0.22482  1.0000
  H   H5135     1.0  0.63001  0.90023  0.03389  1.0000
  C   C2886     1.0  0.64454  0.84744  0.22474  1.0000
  C   C2887     1.0  0.53389  0.91521  0.00170  1.0000
  C   C2888     1.0  0.53922  0.68827  0.12171  1.0000
  H   H5136     1.0  0.51260  0.67610  0.00266  1.0000
  H   H5137     1.0  0.77167  0.70519  0.13258  1.0000
  H   H5138     1.0  0.65358  0.86047  0.22769  1.0000
  C   C2889     1.0  0.89961  0.75684  0.15181  1.0000
  H   H5139     1.0  0.81158  0.81174  0.20022  1.0000
  C   C2890     1.0  0.52955  0.89474  0.21242  1.0000
  C   C2891     1.0  0.92760  0.75436  0.14613  1.0000
  C   C2892     1.0  0.51118  0.93576  0.17587  1.0000
  H   H5140     1.0  0.68017  0.91829  0.03240  1.0000
  C   C2893     1.0  0.94402  0.65619  0.01922  1.0000
  H   H5141     1.0  0.55643  0.87517  0.19710  1.0000
  H   H5142     1.0  0.79838  0.77214  0.20222  1.0000
  H   H5143     1.0  0.60951  0.73771  0.03488  1.0000
  C   C2894     1.0  0.86044  0.70371  0.15537  1.0000
  H   H5144     1.0  0.58365  0.72403  0.09678  1.0000
  C   C2895     1.0  0.74061  0.79453  0.14523  1.0000
  C   C2896     1.0  0.80075  0.81206  0.22314  1.0000
  H   H5145     1.0  0.96330  0.73766  0.09350  1.0000
  C   C2897     1.0  0.74307  0.97181  0.21528  1.0000
  Fe  Fe337     1.0  0.80185  0.71931  0.17570  1.0000
  H   H5146     1.0  0.51637  0.81250  0.02632  1.0000
  C   C2898     1.0  0.59573  0.82762  0.05834  1.0000
  C   C2899     1.0  0.58369  0.82476  0.07295  1.0000
  C   C2900     1.0  0.59348  0.80530  0.08337  1.0000
  C   C2901     1.0  0.61540  0.78888  0.07914  1.0000
  C   C2902     1.0  0.62722  0.79167  0.06453  1.0000
  C   C2903     1.0  0.61732  0.81086  0.05412  1.0000
  H   H5147     1.0  0.56694  0.83770  0.07623  1.0000
  H   H5148     1.0  0.58432  0.80321  0.09466  1.0000
  H   H5149     1.0  0.64425  0.77904  0.06128  1.0000
  H   H5150     1.0  0.62675  0.81294  0.04288  1.0000
  H   H5151     1.0  0.59283  0.80247  0.99575  1.0000
  C   C2904     1.0  0.64824  0.94362  0.99569  1.0000
  H   H5152     1.0  0.54881  0.92143  0.15264  1.0000
  H   H5153     1.0  0.73454  0.88720  0.22035  1.0000
  H   H5154     1.0  0.68189  0.95707  0.98498  1.0000
  C   C2905     1.0  0.61686  0.97194  0.00901  1.0000
  C   C2906     1.0  0.62465  0.94918  0.00423  1.0000
  C   C2907     1.0  0.52885  0.87062  0.01149  1.0000
  H   H5155     1.0  0.61252  0.93594  0.00711  1.0000
  H   H5156     1.0  0.52216  0.92313  0.18388  1.0000
  S   S670      1.0  0.80613  0.69699  0.19783  1.0000
  H   H5157     1.0  0.63804  0.74375  0.16007  1.0000
  N   N161      1.0  0.67238  0.83260  0.15152  1.0000
  C   C2908     1.0  0.67663  0.85774  0.14293  1.0000
  C   C2909     1.0  0.65872  0.82112  0.14383  1.0000
  C   C2910     1.0  0.65608  0.83646  0.16600  1.0000
  C   C2911     1.0  0.69634  0.81535  0.15435  1.0000
  C   C2912     1.0  0.71698  0.81145  0.14087  1.0000
  C   C2913     1.0  0.68980  0.87204  0.14973  1.0000
  C   C2914     1.0  0.64762  0.81307  0.17619  1.0000
  C   C2915     1.0  0.66333  0.82783  0.12695  1.0000
  C   C2916     1.0  0.65313  0.81097  0.12057  1.0000
  C   C2917     1.0  0.69580  0.89552  0.13909  1.0000
  C   C2918     1.0  0.63002  0.81935  0.19005  1.0000
  H   H5158     1.0  0.65853  0.86984  0.14108  1.0000
  H   H5159     1.0  0.68773  0.85650  0.13192  1.0000
  H   H5160     1.0  0.66254  0.80054  0.14713  1.0000
  H   H5161     1.0  0.63824  0.82667  0.14728  1.0000
  H   H5162     1.0  0.63904  0.85067  0.16424  1.0000
  H   H5163     1.0  0.66576  0.84381  0.17237  1.0000
  H   H5164     1.0  0.70416  0.82137  0.16219  1.0000
  H   H5165     1.0  0.69270  0.79663  0.15976  1.0000
  H   H5166     1.0  0.72208  0.82922  0.13461  1.0000
  H   H5167     1.0  0.71083  0.80222  0.13380  1.0000
  H   H5168     1.0  0.67768  0.87788  0.15967  1.0000
  H   H5169     1.0  0.70751  0.86063  0.15255  1.0000
  H   H5170     1.0  0.66387  0.79937  0.17956  1.0000
  H   H5171     1.0  0.63757  0.80433  0.17082  1.0000
  H   H5172     1.0  0.65372  0.84716  0.12352  1.0000
  H   H5173     1.0  0.68325  0.82644  0.12199  1.0000
  H   H5174     1.0  0.66296  0.79146  0.12321  1.0000
  H   H5175     1.0  0.63297  0.81203  0.12491  1.0000
  H   H5176     1.0  0.65586  0.81681  0.10856  1.0000
  H   H5177     1.0  0.70853  0.89084  0.12901  1.0000
  H   H5178     1.0  0.67849  0.90800  0.13624  1.0000
  H   H5179     1.0  0.70509  0.90555  0.14414  1.0000
  H   H5180     1.0  0.62580  0.80201  0.19751  1.0000
  H   H5181     1.0  0.63857  0.82916  0.19568  1.0000
  H   H5182     1.0  0.61225  0.83108  0.18743  1.0000
  H   H5183     1.0  0.68984  0.78874  0.20002  1.0000
  C   C2919     1.0  0.68550  0.76237  0.22056  1.0000
  C   C2920     1.0  0.97397  0.67879  0.16016  1.0000
  H   H5184     1.0  0.93163  0.68339  0.00084  1.0000
  H   H5185     1.0  0.55047  0.70824  0.07126  1.0000
  H   H5186     1.0  0.69262  0.83318  0.05807  1.0000
  H   H5187     1.0  0.67272  0.81427  0.05590  1.0000
  H   H5188     1.0  0.64043  0.73355  0.99752  1.0000
  H   H5189     1.0  0.62215  0.67754  0.07139  1.0000
  C   C2921     1.0  0.98803  0.93406  0.20531  1.0000
  H   H5190     1.0  0.50686  0.73998  0.18241  1.0000
  H   H5191     1.0  0.97567  0.75313  0.15021  1.0000
  C   C2922     1.0  0.85841  0.71252  0.10515  1.0000
  C   C2923     1.0  0.88648  0.70585  0.09890  1.0000
  H   H5192     1.0  0.97101  0.68907  0.03129  1.0000
  C   C2924     1.0  0.80924  0.71295  0.12640  1.0000
  S   S671      1.0  0.81155  0.83953  0.22133  1.0000
  H   H5193     1.0  0.85476  0.69421  0.99798  1.0000
  C   C2925     1.0  0.89931  0.72760  0.09715  1.0000
  H   H5194     1.0  0.86048  0.66340  0.00876  1.0000
  C   C2926     1.0  0.78111  0.72111  0.13069  1.0000
  H   H5195     1.0  0.59166  0.92950  0.05566  1.0000
  C   C2927     1.0  0.52323  0.66271  0.01057  1.0000
  C   C2928     1.0  0.66102  0.87895  0.05127  1.0000
  C   C2929     1.0  0.60017  0.92535  0.04472  1.0000
  H   H5196     1.0  0.65063  0.93209  0.02732  1.0000
  H   H5197     1.0  0.81041  0.72041  0.10344  1.0000
  H   H5198     1.0  0.85044  0.72992  0.09823  1.0000
  H   H5199     1.0  0.85698  0.71773  0.11572  1.0000
  H   H5200     1.0  0.88971  0.70108  0.08803  1.0000
  H   H5201     1.0  0.76916  0.80817  0.18049  1.0000
  H   H5202     1.0  0.65327  0.68046  0.10162  1.0000
  H   H5203     1.0  0.84869  0.71944  0.07783  1.0000
  H   H5204     1.0  0.81765  0.72917  0.12562  1.0000
  H   H5205     1.0  0.65142  0.80996  0.22205  1.0000
  C   C2930     1.0  0.56585  0.69409  0.06688  1.0000
  H   H5206     1.0  0.62477  0.76515  0.99773  1.0000
  H   H5207     1.0  0.64806  0.84808  0.06809  1.0000
  H   H5208     1.0  0.83989  0.70715  0.05693  1.0000
  H   H5209     1.0  0.66838  0.88124  0.03934  1.0000
  C   C2931     1.0  0.84634  0.68379  0.09314  1.0000
  H   H5210     1.0  0.91935  0.72233  0.09247  1.0000
  H   H5211     1.0  0.89104  0.74398  0.08967  1.0000
  H   H5212     1.0  0.61261  0.91193  0.07269  1.0000
  H   H5213     1.0  0.49933  0.91015  0.22805  1.0000
  H   H5214     1.0  0.55877  0.69251  0.00309  1.0000
  C   C2932     1.0  0.50664  0.84942  0.00091  1.0000
  H   H5215     1.0  0.50813  0.72189  0.16171  1.0000
  C   C2933     1.0  0.56031  0.68050  0.99521  1.0000
  H   H5216     1.0  0.63523  0.76861  0.02334  1.0000
  S   S672      1.0  0.78088  0.90475  0.22613  1.0000
  H   H5217     1.0  0.96851  0.68698  0.13819  1.0000
  H   H5218     1.0  0.64033  0.85103  0.05067  1.0000
  H   H5219     1.0  0.98042  0.68624  0.16793  1.0000
  C   C2934     1.0  0.51619  0.89707  0.00499  1.0000
  H   H5220     1.0  0.85687  0.67761  0.12744  1.0000
  C   C2935     1.0  0.85552  0.67433  0.99830  1.0000
  H   H5221     1.0  0.68078  0.95762  0.04003  1.0000
  C   C2936     1.0  0.69874  0.94746  0.17858  1.0000
  H   H5222     1.0  0.56249  0.83476  0.02371  1.0000
  H   H5223     1.0  0.69057  0.73444  0.20745  1.0000
  H   H5224     1.0  0.69660  0.67963  0.16226  1.0000
  H   H5225     1.0  0.54961  0.69102  0.98665  1.0000
  C   C2937     1.0  0.70258  0.93735  0.16472  1.0000
  C   C2938     1.0  0.96415  0.72811  0.11654  1.0000
  H   H5226     1.0  0.93134  0.87266  0.21878  1.0000
  C   C2939     1.0  0.56270  0.67644  0.11554  1.0000
  C   C2940     1.0  0.55539  0.68242  0.05746  1.0000
  H   H5227     1.0  0.51746  0.97284  0.21180  1.0000
  H   H5228     1.0  0.52400  0.74766  0.15559  1.0000
  H   H5229     1.0  0.71642  0.95453  0.20078  1.0000
  S   S673      1.0  0.55292  0.74858  0.98034  1.0000
  H   H5230     1.0  0.97213  0.75509  0.12665  1.0000
  C   C2941     1.0  0.94092  0.72680  0.14840  1.0000
  H   H5231     1.0  0.51086  0.77622  0.19560  1.0000
  H   H5232     1.0  0.71293  0.93572  0.18480  1.0000
  H   H5233     1.0  0.68001  0.94517  0.18493  1.0000
  C   C2942     1.0  0.93361  0.96125  0.21135  1.0000
  H   H5234     1.0  0.69301  0.83998  0.21481  1.0000
  N   N162      1.0  0.63971  0.89997  0.05447  1.0000
  H   H5235     1.0  0.74297  0.95171  0.21893  1.0000
  C   C2943     1.0  0.83898  0.70371  0.07996  1.0000
  H   H5236     1.0  0.60796  0.94158  0.03805  1.0000
  H   H5237     1.0  0.51892  0.74082  0.21579  1.0000
  N   N163      1.0  0.70665  0.80101  0.21443  1.0000
  C   C2944     1.0  0.52534  0.85688  0.20656  1.0000
  H   H5238     1.0  0.65456  0.73909  0.02857  1.0000
  H   H5239     1.0  0.68826  0.94762  0.15819  1.0000
  H   H5240     1.0  0.72132  0.93879  0.15805  1.0000
  H   H5241     1.0  0.70103  0.91754  0.16764  1.0000
  C   C2945     1.0  0.80354  0.80208  0.21073  1.0000
  H   H5242     1.0  0.71745  0.76863  0.20431  1.0000
  H   H5243     1.0  0.59848  0.68698  0.08566  1.0000
  H   H5244     1.0  0.62610  0.71526  0.08882  1.0000
  H   H5245     1.0  0.64902  0.76305  0.03908  1.0000
  H   H5246     1.0  0.91111  0.66214  0.00997  1.0000
  C   C2946     1.0  0.50559  0.74234  0.16016  1.0000
  C   C2947     1.0  0.70792  0.75792  0.98701  1.0000
  C   C2948     1.0  0.51066  0.92101  0.16429  1.0000
  H   H5247     1.0  0.54436  0.78881  0.04353  1.0000
  C   C2949     1.0  0.71993  0.98512  0.20894  1.0000
  H   H5248     1.0  0.66323  0.75848  0.20579  1.0000
  C   C2950     1.0  0.49449  0.75047  0.17470  1.0000
  H   H5249     1.0  0.49975  0.69176  0.12389  1.0000
  H   H5250     1.0  0.53295  0.84166  0.20083  1.0000
  S   S674      1.0  0.77680  0.73864  0.22717  1.0000
  C   C2951     1.0  0.69940  0.91107  0.22629  1.0000
  C   C2952     1.0  0.97795  0.69458  0.14457  1.0000
  H   H5251     1.0  0.62783  0.97125  0.20784  1.0000
  C   C2953     1.0  0.89912  0.68670  0.14052  1.0000
  H   H5252     1.0  0.91203  0.68790  0.13031  1.0000
  H   H5253     1.0  0.95983  0.68558  0.06349  1.0000
  H   H5254     1.0  0.96326  0.97498  0.21587  1.0000
  H   H5255     1.0  0.97112  0.70840  0.11575  1.0000
  H   H5256     1.0  0.56905  0.78886  0.02757  1.0000
  H   H5257     1.0  0.63746  0.70886  0.05086  1.0000
  C   C2954     1.0  0.81639  0.70394  0.11164  1.0000
  H   H5258     1.0  0.97826  0.70669  0.05106  1.0000
  C   C2955     1.0  0.95411  0.95859  0.22012  1.0000
  H   H5259     1.0  0.65195  0.90687  0.08090  1.0000
  C   C2956     1.0  0.87490  0.66539  0.98569  1.0000
  C   C2957     1.0  0.57410  0.77905  0.98950  1.0000
  C   C2958     1.0  0.78625  0.76682  0.22544  1.0000
  C   C2959     1.0  0.66983  0.74711  0.16761  1.0000
  C   C2960     1.0  0.55884  0.79890  0.03648  1.0000
  C   C2961     1.0  0.69313  0.73544  0.17096  1.0000
  H   H5260     1.0  0.93467  0.76495  0.15205  1.0000
  C   C2962     1.0  0.68381  0.89525  0.20501  1.0000
  H   H5261     1.0  0.93612  0.71914  0.16024  1.0000
  C   C2963     1.0  0.66163  0.82201  0.22493  1.0000
  H   H5262     1.0  0.97631  0.93170  0.19820  1.0000
  H   H5263     1.0  0.66379  0.92190  0.05770  1.0000
  H   H5264     1.0  0.53850  0.83502  0.03941  1.0000
  C   C2964     1.0  0.90386  0.66713  0.15204  1.0000
  H   H5265     1.0  0.93034  0.76315  0.13444  1.0000
  H   H5266     1.0  0.95695  0.66536  0.04329  1.0000
  C   C2965     1.0  0.70805  0.88636  0.20765  1.0000
  H   H5267     1.0  0.49955  0.94281  0.20352  1.0000
  H   H5268     1.0  0.53825  0.75792  0.08529  1.0000
  C   C2966     1.0  0.62953  0.88410  0.09703  1.0000
  N   N164      1.0  0.96875  0.72211  0.14335  1.0000
  H   H5269     1.0  0.94359  0.73150  0.11949  1.0000
  H   H5270     1.0  0.87468  0.72082  0.13359  1.0000
  C   C2967     1.0  0.87779  0.70521  0.14231  1.0000
  C   C2968     1.0  0.53678  0.90783  0.15847  1.0000
  H   H5271     1.0  0.89743  0.67503  0.21269  1.0000
  C   C2969     1.0  0.79609  0.77966  0.21185  1.0000
  H   H5272     1.0  0.74735  0.80192  0.15294  1.0000
  C   C2970     1.0  0.58020  0.80177  0.98918  1.0000
  H   H5273     1.0  0.65045  0.70023  0.07626  1.0000
  C   C2971     1.0  0.93091  0.66386  0.00621  1.0000
  H   H5274     1.0  0.68715  0.98475  0.16799  1.0000
  H   H5275     1.0  0.51174  0.80951  0.00102  1.0000
  H   H5276     1.0  0.65162  0.97144  0.03395  1.0000
  H   H5277     1.0  0.64169  0.88184  0.10496  1.0000
  H   H5278     1.0  0.53600  0.89636  0.15077  1.0000
  C   C2972     1.0  0.97151  0.65926  0.01443  1.0000
  H   H5279     1.0  0.52309  0.67342  0.01886  1.0000
  C   C2973     1.0  0.98021  0.73252  0.15266  1.0000
  N   N165      1.0  0.60261  0.71533  0.06611  1.0000
  C   C2974     1.0  0.88724  0.66639  0.16542  1.0000
  C   C2975     1.0  0.58787  0.70641  0.05786  1.0000
  C   C2976     1.0  0.62418  0.72457  0.05526  1.0000
  C   C2977     1.0  0.58692  0.73652  0.07317  1.0000
  C   C2978     1.0  0.63294  0.69821  0.08421  1.0000
  C   C2979     1.0  0.61747  0.74498  0.04211  1.0000
  C   C2980     1.0  0.66367  0.96117  0.99167  1.0000
  C   C2981     1.0  0.64051  0.75441  0.03278  1.0000
  H   H5280     1.0  0.49856  0.84156  0.04715  1.0000
  H   H5281     1.0  0.57945  0.72206  0.05001  1.0000
  H   H5282     1.0  0.89557  0.69021  0.10638  1.0000
  H   H5283     1.0  0.57133  0.67914  0.07591  1.0000
  H   H5284     1.0  0.63489  0.73262  0.06069  1.0000
  H   H5285     1.0  0.59876  0.74890  0.07424  1.0000
  H   H5286     1.0  0.57413  0.74852  0.06600  1.0000
  H   H5287     1.0  0.89769  0.73257  0.10784  1.0000
  S   S675      1.0  0.83320  0.72656  0.15672  1.0000
  C   C2982     1.0  0.51794  0.68251  0.11924  1.0000
  C   C2983     1.0  0.67519  0.74662  0.21344  1.0000
  H   H5288     1.0  0.61337  0.89921  0.09931  1.0000
  H   H5289     1.0  0.49912  0.90666  0.16884  1.0000
  H   H5290     1.0  0.77666  0.72841  0.14091  1.0000
  S   S676      1.0  0.95057  0.67291  0.10831  1.0000
  H   H5291     1.0  0.54520  0.89547  0.16755  1.0000
  C   C2984     1.0  0.71840  0.97403  0.19598  1.0000
  H   H5292     1.0  0.60058  0.69303  0.05129  1.0000
  H   H5293     1.0  0.75545  0.79307  0.13543  1.0000
  H   H5294     1.0  0.73714  0.77562  0.15034  1.0000
  H   H5295     1.0  0.54156  0.74704  0.10397  1.0000
  H   H5296     1.0  0.99012  0.68607  0.06628  1.0000
  H   H5297     1.0  0.67696  0.87934  0.05609  1.0000
  C   C2985     1.0  0.49847  0.85406  0.17683  1.0000
  C   C2986     1.0  0.71583  0.89420  0.21832  1.0000
  H   H5298     1.0  0.53510  0.87225  0.02124  1.0000
  H   H5299     1.0  0.73477  0.82390  0.20752  1.0000
  H   H5300     1.0  0.94152  0.95875  0.20002  1.0000
  C   C2987     1.0  0.97895  0.68785  0.05789  1.0000
  C   C2988     1.0  0.65589  0.98390  0.99641  1.0000
  H   H5301     1.0  0.86583  0.67461  0.08953  1.0000
  H   H5302     1.0  0.54078  0.81774  0.01113  1.0000
  H   H5303     1.0  0.50354  0.66037  0.10902  1.0000
  C   C2989     1.0  0.50242  0.85738  0.21620  1.0000
  H   H5304     1.0  0.56902  0.90842  0.04528  1.0000
  C   C2990     1.0  0.68618  0.82373  0.21379  1.0000
  H   H5305     1.0  0.96376  0.76346  0.10132  1.0000
  C   C2991     1.0  0.50213  0.82598  0.17862  1.0000
  C   C2992     1.0  0.86526  0.68430  0.16699  1.0000
  H   H5306     1.0  0.61675  0.88010  0.07270  1.0000
  C   C2993     1.0  0.63954  0.67643  0.09637  1.0000
  H   H5307     1.0  0.67914  0.96183  0.02118  1.0000
  H   H5308     1.0  0.94303  0.91348  0.20954  1.0000
  N   N166      1.0  0.84349  0.69274  0.10711  1.0000
  H   H5309     1.0  0.65973  0.87452  0.07994  1.0000
  C   C2994     1.0  0.66252  0.93149  0.03506  1.0000
  C   C2995     1.0  0.64963  0.92360  0.05106  1.0000
  S   S677      1.0  0.65930  0.91495  0.98994  1.0000
  S   S678      1.0  0.70982  0.75210  0.17724  1.0000
  C   C2996     1.0  0.85780  0.67430  0.21765  1.0000
  H   H5310     1.0  0.56168  0.71453  0.08980  1.0000
  C   C2997     1.0  0.64135  0.75317  0.99250  1.0000
  H   H5311     1.0  0.72088  0.87347  0.20141  1.0000
  C   C2998     1.0  0.52876  0.82585  0.02046  1.0000
  H   H5312     1.0  0.66211  0.76571  0.16921  1.0000
  H   H5313     1.0  0.57915  0.68057  0.11756  1.0000
  C   C2999     1.0  0.69858  0.78266  0.98859  1.0000
  H   H5314     1.0  0.72624  0.80058  0.18371  1.0000
  H   H5315     1.0  0.75649  0.83965  0.18308  1.0000
  C   C3000     1.0  0.88352  0.67011  0.20798  1.0000
  H   H5316     1.0  0.99173  0.74041  0.09781  1.0000
  H   H5317     1.0  0.80456  0.69039  0.11220  1.0000
  H   H5318     1.0  0.64865  0.91866  0.21127  1.0000
  H   H5319     1.0  0.56601  0.94054  0.03640  1.0000
  H   H5320     1.0  0.88295  0.68193  0.19703  1.0000
  Fe  Fe338     1.0  0.99160  0.65815  0.10356  1.0000
  H   H5321     1.0  0.77377  0.73602  0.12210  1.0000
  H   H5322     1.0  0.96972  0.88945  0.21116  1.0000
  H   H5323     1.0  0.49949  0.90397  0.01274  1.0000
  H   H5324     1.0  0.97122  0.67894  0.00897  1.0000
  C   C3001     1.0  0.66742  0.91199  0.21307  1.0000
  H   H5325     1.0  0.66389  0.73461  0.22191  1.0000
  H   H5326     1.0  0.68082  0.82901  0.20293  1.0000
  H   H5327     1.0  0.89064  0.77673  0.15063  1.0000
  C   C3002     1.0  0.67774  0.83288  0.05240  1.0000
  S   S679      1.0  0.53567  0.70999  0.13279  1.0000
  H   H5328     1.0  0.84482  0.67001  0.21206  1.0000
  S   S680      1.0  0.77247  0.70073  0.17328  1.0000
  H   H5329     1.0  0.71373  0.83214  0.18597  1.0000
  C   C3003     1.0  0.57926  0.92261  0.03800  1.0000
  H   H5330     1.0  0.85248  0.69420  0.21827  1.0000
  H   H5331     1.0  0.89125  0.74808  0.14550  1.0000
  H   H5332     1.0  0.89559  0.74806  0.16349  1.0000
  C   C3004     1.0  0.55812  0.77767  0.98078  1.0000
  C   C3005     1.0  0.72896  0.81606  0.18802  1.0000
  H   H5333     1.0  0.75204  0.82981  0.16763  1.0000
  C   C3006     1.0  0.66885  0.95715  0.03248  1.0000
  H   H5334     1.0  0.52302  0.85024  0.99183  1.0000
  H   H5335     1.0  0.51253  0.78105  0.17110  1.0000
  H   H5336     1.0  0.76024  0.97435  0.20709  1.0000
  C   C3007     1.0  0.72993  0.80814  0.20446  1.0000
  C   C3008     1.0  0.49944  0.74710  0.22114  1.0000
  H   H5337     1.0  0.71949  0.97662  0.16776  1.0000
  H   H5338     1.0  0.58675  0.91697  0.02732  1.0000
  N   N167      1.0  0.97355  0.93509  0.22055  1.0000
  H   H5339     1.0  0.68492  0.83591  0.04049  1.0000
  C   C3009     1.0  0.65483  0.85260  0.05619  1.0000
  H   H5340     1.0  0.86635  0.68649  0.06337  1.0000
  H   H5341     1.0  0.52429  0.93412  0.99737  1.0000
  S   S681      1.0  0.92221  0.65688  0.07858  1.0000
  H   H5342     1.0  0.65809  0.75732  0.99476  1.0000
  H   H5343     1.0  0.51334  0.82103  0.16826  1.0000
  H   H5344     1.0  0.93210  0.71656  0.14314  1.0000
  C   C3010     1.0  0.97119  0.74344  0.10139  1.0000
  H   H5345     1.0  0.93368  0.66794  0.02724  1.0000
  C   C3011     1.0  0.61327  0.69362  0.07684  1.0000
  H   H5346     1.0  0.65201  0.97677  0.15097  1.0000
  H   H5347     1.0  0.57222  0.79941  0.04315  1.0000
  C   C3012     1.0  0.67521  0.91994  0.22365  1.0000
  Fe  Fe339     1.0  0.77453  0.68078  0.19614  1.0000
  C   C3013     1.0  0.62084  0.90168  0.04531  1.0000
  H   H5348     1.0  0.54894  0.69655  0.04829  1.0000
  H   H5349     1.0  0.81862  0.71083  0.08179  1.0000
  C   C3014     1.0  0.62708  0.89556  0.07026  1.0000
  H   H5350     1.0  0.61139  0.88558  0.04934  1.0000
  H   H5351     1.0  0.63982  0.85526  0.21380  1.0000
  C   C3015     1.0  0.97605  0.73459  0.12773  1.0000
  C   C3016     1.0  0.49652  0.82608  0.00099  1.0000
  C   C3017     1.0  0.70103  0.97510  0.17492  1.0000
  H   H5352     1.0  0.73679  0.97305  0.18843  1.0000
  H   H5353     1.0  0.67319  0.96588  0.20352  1.0000
  H   H5354     1.0  0.64780  0.65926  0.09195  1.0000
  H   H5355     1.0  0.58014  0.67586  0.98998  1.0000
  C   C3018     1.0  0.57069  0.82318  0.97999  1.0000
  H   H5356     1.0  0.83687  0.67163  0.99786  1.0000
  C   C3019     1.0  0.52006  0.66474  0.11082  1.0000
  H   H5357     1.0  0.97198  0.72737  0.16438  1.0000
  H   H5358     1.0  0.83396  0.66306  0.12514  1.0000
  C   C3020     1.0  0.56484  0.65891  0.10693  1.0000
  H   H5359     1.0  0.95393  0.67816  0.16416  1.0000
  H   H5360     1.0  0.51302  0.81749  0.18735  1.0000
  H   H5361     1.0  0.56967  0.66734  0.05316  1.0000
  H   H5362     1.0  0.52670  0.96968  0.18583  1.0000
  H   H5363     1.0  0.51691  0.85943  0.17447  1.0000
  C   C3021     1.0  0.95331  0.90008  0.21746  1.0000
  H   H5364     1.0  0.54011  0.91573  0.01171  1.0000
  C   C3022     1.0  0.96176  0.91272  0.22760  1.0000
  C   C3023     1.0  0.55066  0.65674  0.00285  1.0000
  C   C3024     1.0  0.85054  0.67116  0.11912  1.0000
  H   H5365     1.0  0.50328  0.93356  0.15491  1.0000
  H   H5366     1.0  0.89305  0.66847  0.98665  1.0000
  H   H5367     1.0  0.69806  0.74952  0.22758  1.0000
  C   C3025     1.0  0.93650  0.88199  0.22623  1.0000
  H   H5368     1.0  0.70356  0.98284  0.21781  1.0000
  H   H5369     1.0  0.51073  0.89751  0.99461  1.0000
  C   C3026     1.0  0.99084  0.66812  0.04861  1.0000
  C   C3027     1.0  0.50645  0.89543  0.22191  1.0000
  C   C3028     1.0  0.50747  0.97777  0.19066  1.0000
  C   C3029     1.0  0.97528  0.66950  0.03704  1.0000
  H   H5370     1.0  0.59871  0.97607  0.01573  1.0000
  H   H5371     1.0  0.66973  0.77192  0.22770  1.0000
  C   C3030     1.0  0.67339  0.98546  0.19796  1.0000
  H   H5372     1.0  0.88771  0.65407  0.10801  1.0000
  C   C3031     1.0  0.54353  0.65293  0.10462  1.0000
  H   H5373     1.0  0.65006  0.98595  0.18242  1.0000
  H   H5374     1.0  0.63715  0.96231  0.24941  1.0000
  H   H5375     1.0  0.72568  0.91328  0.44505  1.0000
  H   H5376     1.0  0.58096  0.97841  0.45402  1.0000
  H   H5377     1.0  0.52923  0.78253  0.26794  1.0000
  C   C3032     1.0  0.79930  0.79846  0.30437  1.0000
  H   H5378     1.0  0.76695  0.84599  0.36403  1.0000
  H   H5379     1.0  0.80835  0.67933  0.27025  1.0000
  H   H5380     1.0  0.67874  0.97909  0.46352  1.0000
  H   H5381     1.0  0.95015  0.66727  0.42751  1.0000
  S   S682      1.0  0.91046  0.95324  0.25931  1.0000
  H   H5382     1.0  0.82090  0.77225  0.35869  1.0000
  H   H5383     1.0  0.79726  0.80904  0.34737  1.0000
  H   H5384     1.0  0.79396  0.76300  0.32814  1.0000
  H   H5385     1.0  0.98403  0.88347  0.42376  1.0000
  C   C3033     1.0  0.95341  0.66543  0.43864  1.0000
  H   H5386     1.0  0.75519  0.65809  0.41156  1.0000
  S   S683      1.0  0.81370  0.87635  0.25148  1.0000
  H   H5387     1.0  0.86763  0.97841  0.28068  1.0000
  C   C3034     1.0  0.78381  0.77656  0.23790  1.0000
  S   S684      1.0  0.75833  0.86300  0.25357  1.0000
  H   H5388     1.0  0.93586  0.66292  0.44644  1.0000
  Fe  Fe340     1.0  0.77708  0.87742  0.26713  1.0000
  S   S685      1.0  0.77540  0.86927  0.29135  1.0000
  H   H5389     1.0  0.55176  0.84777  0.23116  1.0000
  C   C3035     1.0  0.94495  0.71918  0.42097  1.0000
  S   S686      1.0  0.76245  0.91716  0.25860  1.0000
  Fe  Fe341     1.0  0.96554  0.86511  0.47267  1.0000
  C   C3036     1.0  0.72099  0.81002  0.23601  1.0000
  H   H5390     1.0  0.86343  0.97529  0.32453  1.0000
  H   H5391     1.0  0.76439  0.80379  0.31893  1.0000
  H   H5392     1.0  0.62481  0.85802  0.32720  1.0000
  H   H5393     1.0  0.84508  0.73213  0.36900  1.0000
  H   H5394     1.0  0.75586  0.88456  0.40481  1.0000
  H   H5395     1.0  0.64002  0.76105  0.40618  1.0000
  H   H5396     1.0  0.72531  0.94422  0.28410  1.0000
  H   H5397     1.0  0.51471  0.78512  0.31769  1.0000
  H   H5398     1.0  0.96682  0.68481  0.45126  1.0000
  C   C3037     1.0  0.95963  0.97628  0.41342  1.0000
  H   H5399     1.0  0.77909  0.75723  0.36790  1.0000
  H   H5400     1.0  0.77842  0.79878  0.36402  1.0000
  H   H5401     1.0  0.91913  0.89205  0.23217  1.0000
  S   S687      1.0  0.94999  0.86588  0.45324  1.0000
  Fe  Fe342     1.0  0.66625  0.82443  0.38456  1.0000
  S   S688      1.0  0.63568  0.85484  0.39173  1.0000
  S   S689      1.0  0.68143  0.79294  0.40147  1.0000
  Fe  Fe343     1.0  0.66432  0.84523  0.35268  1.0000
  S   S690      1.0  0.63388  0.87774  0.35738  1.0000
  S   S691      1.0  0.67819  0.83542  0.33047  1.0000
  Fe  Fe344     1.0  0.65609  0.87983  0.37357  1.0000
  Fe  Fe345     1.0  0.61643  0.84983  0.37512  1.0000
  S   S692      1.0  0.57709  0.84300  0.38292  1.0000
  S   S693      1.0  0.68794  0.84962  0.36729  1.0000
  S   S694      1.0  0.64547  0.81724  0.36941  1.0000
  H   H5402     1.0  0.70389  0.76794  0.35387  1.0000
  C   C3038     1.0  0.69592  0.92547  0.28419  1.0000
  H   H5403     1.0  0.55416  0.84386  0.26312  1.0000
  H   H5404     1.0  0.70464  0.90340  0.42076  1.0000
  H   H5405     1.0  0.52600  0.86708  0.39863  1.0000
  H   H5406     1.0  0.78105  0.85443  0.34508  1.0000
  C   C3039     1.0  0.81075  0.69404  0.26043  1.0000
  Fe  Fe346     1.0  0.80733  0.70069  0.44156  1.0000
  S   S695      1.0  0.82367  0.70484  0.41771  1.0000
  H   H5407     1.0  0.88781  0.97714  0.33316  1.0000
  Fe  Fe347     1.0  0.82963  0.74278  0.44531  1.0000
  S   S696      1.0  0.84822  0.74966  0.42190  1.0000
  S   S697      1.0  0.83126  0.76504  0.46160  1.0000
  Fe  Fe348     1.0  0.81205  0.74572  0.41765  1.0000
  S   S698      1.0  0.79661  0.77511  0.40013  1.0000
  Fe  Fe349     1.0  0.85799  0.70835  0.42426  1.0000
  S   S699      1.0  0.89626  0.68627  0.41808  1.0000
  S   S700      1.0  0.79257  0.74134  0.44099  1.0000
  S   S701      1.0  0.84252  0.70169  0.44815  1.0000
  H   H5408     1.0  0.93613  0.95933  0.43329  1.0000
  H   H5409     1.0  0.69468  0.90786  0.44661  1.0000
  H   H5410     1.0  0.81586  0.73234  0.25575  1.0000
  C   C3040     1.0  0.84186  0.95012  0.24263  1.0000
  H   H5411     1.0  0.78702  0.74072  0.35335  1.0000
  C   C3041     1.0  0.71670  0.68816  0.45374  1.0000
  H   H5412     1.0  0.67888  0.79500  0.44059  1.0000
  H   H5413     1.0  0.57822  0.84839  0.23832  1.0000
  N   N168      1.0  0.50336  0.83169  0.27089  1.0000
  H   H5414     1.0  0.55258  0.81930  0.25477  1.0000
  C   C3042     1.0  0.71317  0.78855  0.40176  1.0000
  C   C3043     1.0  0.72752  0.80525  0.39278  1.0000
  C   C3044     1.0  0.75305  0.80094  0.39253  1.0000
  C   C3045     1.0  0.76440  0.78009  0.40136  1.0000
  C   C3046     1.0  0.75001  0.76366  0.41074  1.0000
  C   C3047     1.0  0.72437  0.76789  0.41091  1.0000
  H   H5415     1.0  0.71908  0.82135  0.38586  1.0000
  H   H5416     1.0  0.76410  0.81374  0.38544  1.0000
  H   H5417     1.0  0.75870  0.74747  0.41760  1.0000
  H   H5418     1.0  0.71334  0.75489  0.41791  1.0000
  H   H5419     1.0  0.62580  0.91367  0.28288  1.0000
  H   H5420     1.0  0.66240  0.93288  0.22986  1.0000
  H   H5421     1.0  0.65441  0.77659  0.42891  1.0000
  C   C3048     1.0  0.90335  0.67526  0.40172  1.0000
  H   H5422     1.0  0.98922  0.75228  0.44947  1.0000
  H   H5423     1.0  0.94906  0.93062  0.39884  1.0000
  H   H5424     1.0  0.75540  0.83080  0.33818  1.0000
  H   H5425     1.0  0.81254  0.78203  0.33108  1.0000
  H   H5426     1.0  0.87268  0.69948  0.39275  1.0000
  C   C3049     1.0  0.90168  0.79578  0.45654  1.0000
  C   C3050     1.0  0.89819  0.78553  0.44547  1.0000
  C   C3051     1.0  0.87690  0.77567  0.44708  1.0000
  C   C3052     1.0  0.85859  0.77648  0.45964  1.0000
  C   C3053     1.0  0.88335  0.79671  0.46912  1.0000
  C   C3054     1.0  0.69070  0.93977  0.38625  1.0000
  H   H5427     1.0  0.91193  0.78547  0.43555  1.0000
  H   H5428     1.0  0.87451  0.76771  0.43852  1.0000
  C   C3055     1.0  0.63047  0.72764  0.45142  1.0000
  C   C3056     1.0  0.89586  0.67663  0.37772  1.0000
  C   C3057     1.0  0.85464  0.92747  0.45626  1.0000
  H   H5429     1.0  0.81516  0.93284  0.46466  1.0000
  H   H5430     1.0  0.85960  0.91691  0.46644  1.0000
  C   C3058     1.0  0.78787  0.65671  0.24749  1.0000
  C   C3059     1.0  0.72020  0.90061  0.42655  1.0000
  H   H5431     1.0  0.74835  0.86513  0.35123  1.0000
  H   H5432     1.0  0.85059  0.68460  0.25284  1.0000
  H   H5433     1.0  0.52057  0.87998  0.41430  1.0000
  C   C3060     1.0  0.53065  0.88252  0.35531  1.0000
  C   C3061     1.0  0.55173  0.87428  0.36194  1.0000
  C   C3062     1.0  0.55373  0.85224  0.37229  1.0000
  C   C3063     1.0  0.53499  0.83833  0.37563  1.0000
  C   C3064     1.0  0.71265  0.79152  0.22946  1.0000
  H   H5434     1.0  0.52888  0.89977  0.34753  1.0000
  H   H5435     1.0  0.56593  0.88534  0.35943  1.0000
  H   H5436     1.0  0.53642  0.82127  0.38357  1.0000
  Fe  Fe350     1.0  0.91681  0.89168  0.46254  1.0000
  C   C3065     1.0  0.74798  0.86049  0.30198  1.0000
  C   C3066     1.0  0.73532  0.84667  0.29708  1.0000
  C   C3067     1.0  0.71407  0.83879  0.30605  1.0000
  C   C3068     1.0  0.70509  0.84522  0.31976  1.0000
  C   C3069     1.0  0.71745  0.85950  0.32453  1.0000
  C   C3070     1.0  0.73910  0.86684  0.31572  1.0000
  H   H5437     1.0  0.74225  0.84154  0.28654  1.0000
  H   H5438     1.0  0.70452  0.82771  0.30233  1.0000
  H   H5439     1.0  0.71046  0.86470  0.33505  1.0000
  H   H5440     1.0  0.74891  0.87752  0.31952  1.0000
  C   C3071     1.0  0.95576  0.98247  0.43921  1.0000
  H   H5441     1.0  0.64241  0.71108  0.41700  1.0000
  C   C3072     1.0  0.71070  0.91490  0.43901  1.0000
  H   H5442     1.0  0.60066  0.70606  0.47632  1.0000
  H   H5443     1.0  0.73067  0.81209  0.25611  1.0000
  H   H5444     1.0  0.94619  0.86764  0.23414  1.0000
  C   C3073     1.0  0.76413  0.84931  0.35268  1.0000
  C   C3074     1.0  0.54631  0.83935  0.25474  1.0000
  C   C3075     1.0  0.50496  0.83093  0.42160  1.0000
  H   H5445     1.0  0.60508  0.88549  0.33281  1.0000
  H   H5446     1.0  0.68665  0.70751  0.40412  1.0000
  H   H5447     1.0  0.89163  0.98515  0.31364  1.0000
  H   H5448     1.0  0.79710  0.78099  0.30193  1.0000
  C   C3076     1.0  0.79302  0.78083  0.33144  1.0000
  H   H5449     1.0  0.68959  0.98140  0.44437  1.0000
  C   C3077     1.0  0.88433  0.95239  0.25252  1.0000
  C   C3078     1.0  0.87862  0.92944  0.25284  1.0000
  C   C3079     1.0  0.85743  0.92830  0.24791  1.0000
  H   H5450     1.0  0.50278  0.92204  0.39867  1.0000
  C   C3080     1.0  0.91670  0.70436  0.46218  1.0000
  C   C3081     1.0  0.86894  0.97419  0.24708  1.0000
  H   H5451     1.0  0.89050  0.91250  0.25702  1.0000
  H   H5452     1.0  0.85313  0.91056  0.24819  1.0000
  H   H5453     1.0  0.93047  0.93683  0.41545  1.0000
  H   H5454     1.0  0.63878  0.93476  0.28825  1.0000
  S   S702      1.0  0.79085  0.66711  0.45327  1.0000
  H   H5455     1.0  0.76898  0.95232  0.30978  1.0000
  H   H5456     1.0  0.74887  0.65968  0.24727  1.0000
  N   N169      1.0  0.63914  0.74311  0.43672  1.0000
  Fe  Fe351     1.0  0.93064  0.83548  0.46673  1.0000
  C   C3082     1.0  0.50626  0.80605  0.29691  1.0000
  H   H5457     1.0  0.75797  0.97021  0.28853  1.0000
  C   C3083     1.0  0.94249  0.97704  0.42856  1.0000
  H   H5458     1.0  0.96964  0.96053  0.24495  1.0000
  H   H5459     1.0  0.70174  0.79895  0.35658  1.0000
  C   C3084     1.0  0.82956  0.93645  0.45523  1.0000
  H   H5460     1.0  0.73967  0.78195  0.44061  1.0000
  H   H5461     1.0  0.90739  0.73073  0.44352  1.0000
  H   H5462     1.0  0.83685  0.96642  0.41993  1.0000
  C   C3085     1.0  0.87324  0.93293  0.44423  1.0000
  H   H5463     1.0  0.66995  0.74094  0.41844  1.0000
  C   C3086     1.0  0.60171  0.77688  0.40565  1.0000
  S   S703      1.0  0.76417  0.93010  0.38716  1.0000
  H   H5464     1.0  0.67770  0.67775  0.41099  1.0000
  H   H5465     1.0  0.54095  0.78361  0.30286  1.0000
  H   H5466     1.0  0.83022  0.71250  0.27046  1.0000
  H   H5467     1.0  0.65531  0.79383  0.45704  1.0000
  C   C3087     1.0  0.77902  0.80328  0.35210  1.0000
  N   N170      1.0  0.83907  0.86449  0.44404  1.0000
  C   C3088     1.0  0.85961  0.87579  0.43342  1.0000
  C   C3089     1.0  0.81442  0.88230  0.44372  1.0000
  C   C3090     1.0  0.84480  0.86023  0.45908  1.0000
  C   C3091     1.0  0.83781  0.83981  0.44118  1.0000
  C   C3092     1.0  0.83177  0.84001  0.42635  1.0000
  C   C3093     1.0  0.88644  0.86055  0.43332  1.0000
  H   H5468     1.0  0.61230  0.96082  0.45164  1.0000
  C   C3094     1.0  0.81011  0.89893  0.42884  1.0000
  C   C3095     1.0  0.78274  0.91095  0.42945  1.0000
  C   C3096     1.0  0.83411  0.81377  0.42400  1.0000
  C   C3097     1.0  0.90514  0.87337  0.42159  1.0000
  C   C3098     1.0  0.72167  0.80023  0.25214  1.0000
  H   H5469     1.0  0.85941  0.89422  0.43568  1.0000
  H   H5470     1.0  0.85658  0.87958  0.42211  1.0000
  H   H5471     1.0  0.79886  0.87202  0.44822  1.0000
  H   H5472     1.0  0.81191  0.89572  0.45098  1.0000
  H   H5473     1.0  0.84927  0.87731  0.46081  1.0000
  H   H5474     1.0  0.86159  0.84552  0.46023  1.0000
  H   H5475     1.0  0.85533  0.82636  0.44250  1.0000
  H   H5476     1.0  0.82328  0.83140  0.44947  1.0000
  H   H5477     1.0  0.84438  0.84931  0.41717  1.0000
  H   H5478     1.0  0.81225  0.84943  0.42608  1.0000
  H   H5479     1.0  0.89217  0.85858  0.44384  1.0000
  H   H5480     1.0  0.88814  0.84186  0.43108  1.0000
  C   C3099     1.0  0.98035  0.73830  0.43243  1.0000
  H   H5481     1.0  0.66905  0.93728  0.26309  1.0000
  H   H5482     1.0  0.82098  0.91396  0.42603  1.0000
  H   H5483     1.0  0.81586  0.88870  0.41980  1.0000
  H   H5484     1.0  0.77997  0.92289  0.41882  1.0000
  H   H5485     1.0  0.77141  0.89657  0.43191  1.0000
  H   H5486     1.0  0.77607  0.92230  0.43801  1.0000
  H   H5487     1.0  0.78881  0.80677  0.24637  1.0000
  H   H5488     1.0  0.85379  0.80401  0.42298  1.0000
  H   H5489     1.0  0.82251  0.80311  0.43316  1.0000
  H   H5490     1.0  0.90480  0.89199  0.42359  1.0000
  H   H5491     1.0  0.92411  0.86208  0.42187  1.0000
  H   H5492     1.0  0.90099  0.87528  0.41065  1.0000
  H   H5493     1.0  0.60127  0.87627  0.31701  1.0000
  C   C3100     1.0  0.74214  0.68886  0.45122  1.0000
  H   H5494     1.0  0.68411  0.94357  0.28060  1.0000
  N   N171      1.0  0.73941  0.85639  0.42103  1.0000
  C   C3101     1.0  0.72943  0.87259  0.43232  1.0000
  C   C3102     1.0  0.74819  0.82977  0.42810  1.0000
  C   C3103     1.0  0.76161  0.86574  0.41102  1.0000
  C   C3104     1.0  0.72045  0.85805  0.41201  1.0000
  C   C3105     1.0  0.69608  0.84944  0.42028  1.0000
  C   C3106     1.0  0.77647  0.85015  0.39940  1.0000
  C   C3107     1.0  0.73387  0.82012  0.44349  1.0000
  C   C3108     1.0  0.74268  0.79232  0.44828  1.0000
  C   C3109     1.0  0.67680  0.85651  0.41060  1.0000
  C   C3110     1.0  0.79973  0.86015  0.39097  1.0000
  H   H5495     1.0  0.74384  0.87084  0.43882  1.0000
  H   H5496     1.0  0.71360  0.86620  0.44039  1.0000
  H   H5497     1.0  0.74831  0.81700  0.42088  1.0000
  H   H5498     1.0  0.76788  0.82678  0.42942  1.0000
  H   H5499     1.0  0.77484  0.86739  0.41747  1.0000
  H   H5500     1.0  0.71586  0.87719  0.40577  1.0000
  H   H5501     1.0  0.72821  0.84654  0.40357  1.0000
  H   H5502     1.0  0.68767  0.85785  0.42998  1.0000
  H   H5503     1.0  0.69969  0.82894  0.42353  1.0000
  H   H5504     1.0  0.76503  0.85110  0.39133  1.0000
  H   H5505     1.0  0.78256  0.83046  0.40431  1.0000
  H   H5506     1.0  0.73731  0.82938  0.45157  1.0000
  H   H5507     1.0  0.71359  0.82356  0.44401  1.0000
  H   H5508     1.0  0.73216  0.78582  0.45927  1.0000
  H   H5509     1.0  0.73998  0.81277  0.23039  1.0000
  H   H5510     1.0  0.76273  0.78826  0.44882  1.0000
  H   H5511     1.0  0.67149  0.87698  0.40746  1.0000
  H   H5512     1.0  0.68420  0.84857  0.40061  1.0000
  H   H5513     1.0  0.65993  0.84907  0.41658  1.0000
  H   H5514     1.0  0.79460  0.87947  0.38509  1.0000
  H   H5515     1.0  0.81005  0.84850  0.38287  1.0000
  C   C3111     1.0  0.93005  0.74508  0.41529  1.0000
  C   C3112     1.0  0.93102  0.74896  0.39896  1.0000
  H   H5516     1.0  0.93760  0.76010  0.41725  1.0000
  H   H5517     1.0  0.91017  0.74700  0.42059  1.0000
  H   H5518     1.0  0.95049  0.74788  0.39291  1.0000
  H   H5519     1.0  0.92283  0.73473  0.39652  1.0000
  H   H5520     1.0  0.92011  0.76751  0.39514  1.0000
  H   H5521     1.0  0.79698  0.72301  0.27318  1.0000
  H   H5522     1.0  0.85985  0.65311  0.43250  1.0000
  C   C3113     1.0  0.84783  0.97303  0.24210  1.0000
  C   C3114     1.0  0.76534  0.66657  0.24014  1.0000
  H   H5523     1.0  0.77663  0.76647  0.24846  1.0000
  H   H5524     1.0  0.76289  0.96766  0.26231  1.0000
  S   S704      1.0  0.89631  0.86146  0.47492  1.0000
  H   H5525     1.0  0.65200  0.91834  0.25852  1.0000
  H   H5526     1.0  0.50018  0.79721  0.41617  1.0000
  C   C3115     1.0  0.85184  0.97470  0.28973  1.0000
  C   C3116     1.0  0.55763  0.85319  0.23997  1.0000
  H   H5527     1.0  0.88491  0.68445  0.36933  1.0000
  H   H5528     1.0  0.49541  0.76172  0.26742  1.0000
  H   H5529     1.0  0.51067  0.84789  0.24790  1.0000
  H   H5530     1.0  0.94125  0.74981  0.44123  1.0000
  S   S705      1.0  0.80551  0.96202  0.39957  1.0000
  C   C3117     1.0  0.81375  0.71685  0.26522  1.0000
  H   H5531     1.0  0.82207  0.71604  0.36755  1.0000
  H   H5532     1.0  0.67628  0.72105  0.43476  1.0000
  H   H5533     1.0  0.50081  0.78997  0.29469  1.0000
  C   C3118     1.0  0.96866  0.92232  0.41690  1.0000
  C   C3119     1.0  0.96664  0.97017  0.38818  1.0000
  H   H5534     1.0  0.61428  0.70165  0.44406  1.0000
  H   H5535     1.0  0.70830  0.82831  0.23504  1.0000
  C   C3120     1.0  0.77200  0.98007  0.26574  1.0000
  C   C3121     1.0  0.82502  0.73389  0.36906  1.0000
  C   C3122     1.0  0.51282  0.88115  0.40451  1.0000
  H   H5536     1.0  0.54624  0.91194  0.40305  1.0000
  H   H5537     1.0  0.69672  0.78505  0.23737  1.0000
  H   H5538     1.0  0.66870  0.91835  0.30333  1.0000
  C   C3123     1.0  0.91946  0.71219  0.44543  1.0000
  H   H5539     1.0  0.81930  0.79795  0.30382  1.0000
  C   C3124     1.0  0.61517  0.87712  0.32323  1.0000
  C   C3125     1.0  0.66724  0.75941  0.44872  1.0000
  S   S706      1.0  0.90477  0.92400  0.44530  1.0000
  Fe  Fe352     1.0  0.76811  0.96382  0.39460  1.0000
  C   C3126     1.0  0.85746  0.65729  0.23290  1.0000
  H   H5540     1.0  0.80611  0.96725  0.30194  1.0000
  H   H5541     1.0  0.55180  0.87355  0.23925  1.0000
  H   H5542     1.0  0.78912  0.70018  0.47709  1.0000
  C   C3127     1.0  0.71341  0.94339  0.38823  1.0000
  Fe  Fe353     1.0  0.79773  0.91545  0.24206  1.0000
  H   H5543     1.0  0.52961  0.81142  0.31056  1.0000
  H   H5544     1.0  0.97191  0.96735  0.44122  1.0000
  N   N172      1.0  0.94553  0.71300  0.43700  1.0000
  H   H5545     1.0  0.96036  0.96240  0.38042  1.0000
  C   C3128     1.0  0.66147  0.72859  0.42822  1.0000
  C   C3129     1.0  0.78416  0.80228  0.31933  1.0000
  H   H5546     1.0  0.71392  0.95909  0.39264  1.0000
  H   H5547     1.0  0.55624  0.89600  0.38787  1.0000
  N   N173      1.0  0.77793  0.78069  0.34664  1.0000
  C   C3130     1.0  0.65731  0.70593  0.42348  1.0000
  C   C3131     1.0  0.68102  0.69411  0.41416  1.0000
  H   H5548     1.0  0.70252  0.80044  0.25857  1.0000
  Fe  Fe354     1.0  0.74701  0.90302  0.24357  1.0000
  H   H5549     1.0  0.82934  0.97782  0.47228  1.0000
  H   H5550     1.0  0.88598  0.80440  0.47777  1.0000
  S   S707      1.0  0.67645  0.66521  0.46344  1.0000
  H   H5551     1.0  0.64653  0.71435  0.45545  1.0000
  H   H5552     1.0  0.73792  0.78381  0.36926  1.0000
  H   H5553     1.0  0.69639  0.68782  0.42038  1.0000
  H   H5554     1.0  0.62700  0.84570  0.23272  1.0000
  C   C3132     1.0  0.75178  0.77842  0.34664  1.0000
  C   C3133     1.0  0.73537  0.92675  0.38445  1.0000
  H   H5555     1.0  0.82897  0.75058  0.34652  1.0000
  S   S708      1.0  0.70830  0.92081  0.23992  1.0000
  H   H5556     1.0  0.75220  0.76325  0.34100  1.0000
  H   H5557     1.0  0.74880  0.91036  0.33351  1.0000
  C   C3134     1.0  0.49553  0.81159  0.26621  1.0000
  H   H5558     1.0  0.92871  0.68622  0.46540  1.0000
  C   C3135     1.0  0.61808  0.75284  0.42841  1.0000
  C   C3136     1.0  0.97041  0.89497  0.41702  1.0000
  C   C3137     1.0  0.92453  0.98095  0.40176  1.0000
  H   H5559     1.0  0.70511  0.93833  0.30156  1.0000
  H   H5560     1.0  0.97366  0.77581  0.43655  1.0000
  H   H5561     1.0  0.69627  0.77443  0.37201  1.0000
  H   H5562     1.0  0.58504  0.78676  0.41221  1.0000
  C   C3138     1.0  0.67236  0.78327  0.45117  1.0000
  C   C3139     1.0  0.51599  0.90642  0.39437  1.0000
  H   H5563     1.0  0.64687  0.89345  0.32073  1.0000
  C   C3140     1.0  0.81707  0.75502  0.35686  1.0000
  C   C3141     1.0  0.73511  0.77296  0.36186  1.0000
  C   C3142     1.0  0.70760  0.77893  0.36097  1.0000
  N   N174      1.0  0.80181  0.93338  0.29693  1.0000
  C   C3143     1.0  0.79223  0.94336  0.28288  1.0000
  C   C3144     1.0  0.81591  0.90691  0.29740  1.0000
  C   C3145     1.0  0.77940  0.93316  0.30917  1.0000
  C   C3146     1.0  0.81774  0.94947  0.29932  1.0000
  C   C3147     1.0  0.91272  0.97622  0.38993  1.0000
  H   H5564     1.0  0.54423  0.92883  0.38486  1.0000
  C   C3148     1.0  0.78484  0.92132  0.32466  1.0000
  C   C3149     1.0  0.83045  0.89959  0.28279  1.0000
  C   C3150     1.0  0.84585  0.87335  0.28509  1.0000
  C   C3151     1.0  0.95513  0.73223  0.44144  1.0000
  H   H5565     1.0  0.51396  0.86674  0.25933  1.0000
  C   C3152     1.0  0.76074  0.92124  0.33597  1.0000
  H   H5566     1.0  0.78062  0.93093  0.28157  1.0000
  H   H5567     1.0  0.80762  0.94310  0.27327  1.0000
  H   H5568     1.0  0.82913  0.90214  0.30503  1.0000
  H   H5569     1.0  0.80298  0.89368  0.30186  1.0000
  H   H5570     1.0  0.76620  0.92315  0.30704  1.0000
  C   C3153     1.0  0.83965  0.95547  0.28679  1.0000
  C   C3154     1.0  0.70843  0.66570  0.45952  1.0000
  H   H5571     1.0  0.82619  0.94061  0.30906  1.0000
  Fe  Fe355     1.0  0.79368  0.86547  0.23700  1.0000
  H   H5572     1.0  0.85422  0.93862  0.28584  1.0000
  H   H5573     1.0  0.97947  0.74533  0.42078  1.0000
  H   H5574     1.0  0.73247  0.78099  0.25390  1.0000
  H   H5575     1.0  0.79614  0.93192  0.32789  1.0000
  H   H5576     1.0  0.79493  0.90184  0.32527  1.0000
  H   H5577     1.0  0.81736  0.90009  0.27570  1.0000
  H   H5578     1.0  0.84316  0.91228  0.27695  1.0000
  H   H5579     1.0  0.85563  0.86867  0.27437  1.0000
  H   H5580     1.0  0.85996  0.87194  0.29170  1.0000
  H   H5581     1.0  0.83363  0.85976  0.29057  1.0000
  C   C3155     1.0  0.97989  0.94118  0.24525  1.0000
  C   C3156     1.0  0.86177  0.78723  0.47061  1.0000
  H   H5582     1.0  0.70340  0.70509  0.45156  1.0000
  H   H5583     1.0  0.72809  0.91334  0.29475  1.0000
  H   H5584     1.0  0.87379  0.65925  0.23684  1.0000
  H   H5585     1.0  0.76511  0.91271  0.34693  1.0000
  H   H5586     1.0  0.75026  0.94044  0.33629  1.0000
  C   C3157     1.0  0.79067  0.79935  0.23674  1.0000
  H   H5587     1.0  0.49933  0.83606  0.37232  1.0000
  H   H5588     1.0  0.95757  0.72628  0.45295  1.0000
  H   H5589     1.0  0.52228  0.79242  0.42784  1.0000
  H   H5590     1.0  0.67377  0.95282  0.38909  1.0000
  H   H5591     1.0  0.78578  0.98310  0.28389  1.0000
  H   H5592     1.0  0.87896  0.94985  0.47181  1.0000
  C   C3158     1.0  0.51865  0.82145  0.28267  1.0000
  C   C3159     1.0  0.51751  0.84712  0.25796  1.0000
  C   C3160     1.0  0.54229  0.91101  0.39247  1.0000
  H   H5593     1.0  0.87699  0.71996  0.46650  1.0000
  C   C3161     1.0  0.51656  0.79151  0.26019  1.0000
  C   C3162     1.0  0.60561  0.69556  0.46734  1.0000
  C   C3163     1.0  0.63159  0.95448  0.26114  1.0000
  H   H5594     1.0  0.97472  0.89785  0.23348  1.0000
  H   H5595     1.0  0.59839  0.97235  0.46831  1.0000
  C   C3164     1.0  0.78918  0.75776  0.35644  1.0000
  H   H5596     1.0  0.96365  0.92482  0.42838  1.0000
  H   H5597     1.0  0.53636  0.80938  0.27877  1.0000
  H   H5598     1.0  0.95206  0.88968  0.42175  1.0000
  H   H5599     1.0  0.85915  0.96779  0.29997  1.0000
  H   H5600     1.0  0.62352  0.91183  0.31056  1.0000
  C   C3165     1.0  0.52410  0.79598  0.30759  1.0000
  C   C3166     1.0  0.51164  0.86870  0.35895  1.0000
  H   H5601     1.0  0.79364  0.69953  0.25572  1.0000
  H   H5602     1.0  0.52724  0.79979  0.24968  1.0000
  H   H5603     1.0  0.94542  0.91768  0.23623  1.0000
  C   C3167     1.0  0.92446  0.65679  0.39927  1.0000
  H   H5604     1.0  0.79263  0.81403  0.29588  1.0000
  H   H5605     1.0  0.60197  0.76331  0.43510  1.0000
  H   H5606     1.0  0.96411  0.71719  0.41437  1.0000
  H   H5607     1.0  0.78331  0.66353  0.25780  1.0000
  H   H5608     1.0  0.59194  0.72597  0.45146  1.0000
  H   H5609     1.0  0.70448  0.93483  0.43453  1.0000
  C   C3168     1.0  0.60984  0.71293  0.45258  1.0000
  H   H5610     1.0  0.74841  0.70626  0.44697  1.0000
  H   H5611     1.0  0.71131  0.88709  0.37241  1.0000
  C   C3169     1.0  0.94872  0.93900  0.40823  1.0000
  S   S709      1.0  0.66086  0.91566  0.37818  1.0000
  H   H5612     1.0  0.80648  0.86593  0.47205  1.0000
  H   H5613     1.0  0.61111  0.73746  0.42643  1.0000
  H   H5614     1.0  0.70662  0.91768  0.27456  1.0000
  C   C3170     1.0  0.83334  0.68560  0.24888  1.0000
  H   H5615     1.0  0.63036  0.77758  0.44451  1.0000
  H   H5616     1.0  0.66173  0.74783  0.45951  1.0000
  C   C3171     1.0  0.63391  0.89280  0.31382  1.0000
  H   H5617     1.0  0.60625  0.78940  0.39503  1.0000
  H   H5618     1.0  0.73523  0.90936  0.41906  1.0000
  H   H5619     1.0  0.81217  0.85978  0.39839  1.0000
  C   C3172     1.0  0.71469  0.93061  0.29168  1.0000
  C   C3173     1.0  0.71176  0.90270  0.37686  1.0000
  H   H5620     1.0  0.65267  0.69155  0.43318  1.0000
  H   H5621     1.0  0.67975  0.87577  0.24871  1.0000
  H   H5622     1.0  0.69788  0.85003  0.25911  1.0000
  C   C3174     1.0  0.82309  0.95061  0.44215  1.0000
  H   H5623     1.0  0.68773  0.89476  0.26772  1.0000
  C   C3175     1.0  0.65087  0.93158  0.26558  1.0000
  C   C3176     1.0  0.64687  0.76521  0.43934  1.0000
  H   H5624     1.0  0.62755  0.78777  0.41462  1.0000
  C   C3177     1.0  0.75821  0.82640  0.34948  1.0000
  H   H5625     1.0  0.74033  0.82311  0.35664  1.0000
  H   H5626     1.0  0.81436  0.73763  0.37983  1.0000
  C   C3178     1.0  0.75927  0.66708  0.45468  1.0000
  C   C3179     1.0  0.68976  0.91939  0.38060  1.0000
  H   H5627     1.0  0.75143  0.89358  0.37570  1.0000
  H   H5628     1.0  0.68506  0.74961  0.44315  1.0000
  H   H5629     1.0  0.82782  0.81445  0.41381  1.0000
  H   H5630     1.0  0.62260  0.73956  0.45974  1.0000
  S   S710      1.0  0.79180  0.96345  0.44137  1.0000
  C   C3180     1.0  0.67951  0.90786  0.29474  1.0000
  C   C3181     1.0  0.73448  0.90644  0.37873  1.0000
  C   C3182     1.0  0.86673  0.94664  0.43110  1.0000
  C   C3183     1.0  0.67807  0.88320  0.27729  1.0000
  C   C3184     1.0  0.89099  0.96212  0.47268  1.0000
  C   C3185     1.0  0.67872  0.85957  0.25777  1.0000
  H   H5631     1.0  0.69343  0.86979  0.28198  1.0000
  H   H5632     1.0  0.52109  0.83848  0.42204  1.0000
  H   H5633     1.0  0.69197  0.89188  0.30024  1.0000
  C   C3186     1.0  0.88888  0.68506  0.39098  1.0000
  H   H5634     1.0  0.59737  0.76007  0.40357  1.0000
  C   C3187     1.0  0.82418  0.85227  0.47207  1.0000
  C   C3188     1.0  0.84170  0.95537  0.43002  1.0000
  N   N175      1.0  0.66245  0.89853  0.28825  1.0000
  C   C3189     1.0  0.66395  0.86794  0.27179  1.0000
  C   C3190     1.0  0.64365  0.91970  0.28187  1.0000
  H   H5635     1.0  0.66943  0.84669  0.25490  1.0000
  C   C3191     1.0  0.51402  0.84655  0.36910  1.0000
  H   H5636     1.0  0.98098  0.68842  0.43269  1.0000
  H   H5637     1.0  0.64552  0.87875  0.26976  1.0000
  C   C3192     1.0  0.77646  0.97003  0.28126  1.0000
  H   H5638     1.0  0.88111  0.95056  0.42177  1.0000
  H   H5639     1.0  0.66098  0.85105  0.28011  1.0000
  H   H5640     1.0  0.78688  0.82012  0.32098  1.0000
  N   N176      1.0  0.95027  0.96606  0.40307  1.0000
  H   H5641     1.0  0.83321  0.70131  0.23944  1.0000
  C   C3193     1.0  0.64867  0.88155  0.30037  1.0000
  H   H5642     1.0  0.74188  0.79525  0.34025  1.0000
  H   H5643     1.0  0.82062  0.83396  0.47184  1.0000
  H   H5644     1.0  0.96692  0.92848  0.25102  1.0000
  H   H5645     1.0  0.93665  0.70561  0.41806  1.0000
  H   H5646     1.0  0.91308  0.95617  0.39114  1.0000
  H   H5647     1.0  0.97819  0.96582  0.41530  1.0000
  H   H5648     1.0  0.66177  0.86456  0.30436  1.0000
  H   H5649     1.0  0.63510  0.87492  0.29626  1.0000
  H   H5650     1.0  0.73983  0.75301  0.36681  1.0000
  H   H5651     1.0  0.52115  0.75736  0.25249  1.0000
  S   S711      1.0  0.92951  0.80640  0.45441  1.0000
  C   C3194     1.0  0.62382  0.77009  0.41340  1.0000
  H   H5652     1.0  0.76066  0.71224  0.47012  1.0000
  H   H5653     1.0  0.72463  0.97152  0.45696  1.0000
  H   H5654     1.0  0.52405  0.83697  0.28570  1.0000
  H   H5655     1.0  0.91076  0.70007  0.44144  1.0000
  H   H5656     1.0  0.87428  0.98387  0.40155  1.0000
  H   H5657     1.0  0.96712  0.98152  0.32407  1.0000
  H   H5658     1.0  0.88445  0.68728  0.46579  1.0000
  H   H5659     1.0  0.92159  0.71845  0.46672  1.0000
  C   C3195     1.0  0.50584  0.77126  0.25720  1.0000
  H   H5660     1.0  0.98744  0.92650  0.41256  1.0000
  H   H5661     1.0  0.62252  0.68119  0.46877  1.0000
  H   H5662     1.0  0.49781  0.84234  0.39943  1.0000
  H   H5663     1.0  0.91131  0.97728  0.41223  1.0000
  H   H5664     1.0  0.78987  0.98191  0.25810  1.0000
  H   H5665     1.0  0.97669  0.89111  0.40583  1.0000
  H   H5666     1.0  0.51284  0.90656  0.38340  1.0000
  C   C3196     1.0  0.88991  0.70216  0.46934  1.0000
  S   S712      1.0  0.74667  0.97773  0.41480  1.0000
  Fe  Fe356     1.0  0.78411  0.97870  0.41876  1.0000
  C   C3197     1.0  0.59978  0.97650  0.45632  1.0000
  S   S713      1.0  0.81481  0.94963  0.23662  1.0000
  H   H5667     1.0  0.80690  0.68343  0.23109  1.0000
  C   C3198     1.0  0.96264  0.68829  0.44015  1.0000
  H   H5668     1.0  0.66483  0.81496  0.23619  1.0000
  H   H5669     1.0  0.83360  0.96315  0.27623  1.0000
  H   H5670     1.0  0.94372  0.96033  0.23124  1.0000
  C   C3199     1.0  0.81180  0.66421  0.23729  1.0000
  H   H5671     1.0  0.78648  0.97387  0.47313  1.0000
  H   H5672     1.0  0.76111  0.68714  0.23805  1.0000
  C   C3200     1.0  0.51496  0.80485  0.41839  1.0000
  H   H5673     1.0  0.68707  0.77868  0.45778  1.0000
  H   H5674     1.0  0.64718  0.98163  0.44976  1.0000
  H   H5675     1.0  0.63036  0.96889  0.26746  1.0000
  H   H5676     1.0  0.61304  0.94957  0.26290  1.0000
  H   H5677     1.0  0.90747  0.96118  0.46371  1.0000
  H   H5678     1.0  0.86379  0.98537  0.45326  1.0000
  H   H5679     1.0  0.53036  0.80519  0.40880  1.0000
  H   H5680     1.0  0.59016  0.68604  0.46804  1.0000
  C   C3201     1.0  0.99146  0.93665  0.22961  1.0000
  N   N177      1.0  0.83398  0.66187  0.24415  1.0000
  C   C3202     1.0  0.98767  0.75833  0.43783  1.0000
  H   H5681     1.0  0.92274  0.98317  0.37887  1.0000
  H   H5682     1.0  0.94274  0.98380  0.44972  1.0000
  H   H5683     1.0  0.99104  0.94143  0.26518  1.0000
  C   C3203     1.0  0.91694  0.65798  0.37533  1.0000
  H   H5684     1.0  0.72778  0.77475  0.22936  1.0000
  H   H5685     1.0  0.76887  0.66025  0.22969  1.0000
  C   C3204     1.0  0.87791  0.98592  0.32398  1.0000
  H   H5686     1.0  0.99300  0.96452  0.30297  1.0000
  H   H5687     1.0  0.87791  0.98593  0.38231  1.0000
  S   S714      1.0  0.88028  0.81970  0.62149  1.0000
  H   H5688     1.0  0.95428  0.93694  0.49287  1.0000
  H   H5689     1.0  0.94357  0.82462  0.52834  1.0000
  C   C3205     1.0  0.90665  0.93470  0.63684  1.0000
  H   H5690     1.0  0.52970  0.75213  0.71491  1.0000
  H   H5691     1.0  0.86107  0.94450  0.54916  1.0000
  H   H5692     1.0  0.74142  0.92163  0.65752  1.0000
  H   H5693     1.0  0.97636  0.92077  0.47967  1.0000
  Fe  Fe357     1.0  0.82577  0.70356  0.68490  1.0000
  S   S715      1.0  0.79775  0.73903  0.68472  1.0000
  S   S716      1.0  0.86236  0.69746  0.69251  1.0000
  Fe  Fe358     1.0  0.79248  0.67836  0.67446  1.0000
  S   S717      1.0  0.76212  0.71215  0.67341  1.0000
  H   H5694     1.0  0.97106  0.88853  0.60644  1.0000
  Fe  Fe359     1.0  0.79314  0.73314  0.66350  1.0000
  S   S718      1.0  0.78766  0.76699  0.64594  1.0000
  Fe  Fe360     1.0  0.76935  0.71513  0.69470  1.0000
  S   S719      1.0  0.73776  0.72661  0.71255  1.0000
  S   S720      1.0  0.82330  0.69904  0.66271  1.0000
  S   S721      1.0  0.79760  0.67989  0.69665  1.0000
  H   H5695     1.0  0.98458  0.88067  0.49899  1.0000
  Fe  Fe361     1.0  0.91628  0.86041  0.49280  1.0000
  S   S722      1.0  0.89668  0.85402  0.51624  1.0000
  H   H5696     1.0  0.85081  0.92432  0.56600  1.0000
  H   H5697     1.0  0.74754  0.87940  0.66753  1.0000
  C   C3206     1.0  0.68171  0.70626  0.69202  1.0000
  H   H5698     1.0  0.73070  0.83260  0.67345  1.0000
  C   C3207     1.0  0.71358  0.67045  0.50928  1.0000
  H   H5699     1.0  0.54152  0.93364  0.70810  1.0000
  C   C3208     1.0  0.85146  0.74336  0.70004  1.0000
  H   H5700     1.0  0.84906  0.83571  0.48751  1.0000
  C   C3209     1.0  0.71775  0.92531  0.64231  1.0000
  C   C3210     1.0  0.74409  0.91891  0.64616  1.0000
  H   H5701     1.0  0.78433  0.88553  0.66884  1.0000
  H   H5702     1.0  0.78470  0.85291  0.63029  1.0000
  C   C3211     1.0  0.53899  0.82883  0.70907  1.0000
  H   H5703     1.0  0.81692  0.84436  0.49568  1.0000
  H   H5704     1.0  0.97772  0.70439  0.68879  1.0000
  H   H5705     1.0  0.91763  0.89258  0.71584  1.0000
  C   C3212     1.0  0.93071  0.94927  0.64985  1.0000
  H   H5706     1.0  0.98793  0.74572  0.68226  1.0000
  H   H5707     1.0  0.80614  0.75263  0.71876  1.0000
  H   H5708     1.0  0.52254  0.90715  0.69929  1.0000
  H   H5709     1.0  0.96110  0.92029  0.55476  1.0000
  H   H5710     1.0  0.72248  0.66221  0.68668  1.0000
  H   H5711     1.0  0.91731  0.92297  0.53120  1.0000
  H   H5712     1.0  0.70262  0.65879  0.51822  1.0000
  H   H5713     1.0  0.55055  0.69240  0.70219  1.0000
  H   H5714     1.0  0.72580  0.97036  0.57859  1.0000
  C   C3213     1.0  0.90025  0.87047  0.52877  1.0000
  C   C3214     1.0  0.89438  0.86070  0.54365  1.0000
  C   C3215     1.0  0.89698  0.87312  0.55402  1.0000
  H   H5715     1.0  0.88794  0.84331  0.54720  1.0000
  H   H5716     1.0  0.89289  0.86505  0.56543  1.0000
  C   C3216     1.0  0.85445  0.80520  0.62821  1.0000
  C   C3217     1.0  0.85675  0.78248  0.63801  1.0000
  C   C3218     1.0  0.83625  0.77076  0.64370  1.0000
  C   C3219     1.0  0.81355  0.78142  0.63926  1.0000
  C   C3220     1.0  0.81136  0.80395  0.62933  1.0000
  C   C3221     1.0  0.83166  0.81603  0.62396  1.0000
  H   H5717     1.0  0.87444  0.77389  0.64117  1.0000
  H   H5718     1.0  0.83811  0.75328  0.65129  1.0000
  H   H5719     1.0  0.79395  0.81185  0.62568  1.0000
  H   H5720     1.0  0.82993  0.83337  0.61624  1.0000
  H   H5721     1.0  0.70060  0.95017  0.65763  1.0000
  C   C3222     1.0  0.95440  0.90084  0.70900  1.0000
  C   C3223     1.0  0.98389  0.71087  0.69710  1.0000
  N   N178      1.0  0.98802  0.87828  0.52126  1.0000
  H   H5722     1.0  0.78092  0.84426  0.65580  1.0000
  C   C3224     1.0  0.86673  0.71993  0.70106  1.0000
  C   C3225     1.0  0.88584  0.71427  0.70904  1.0000
  H   H5723     1.0  0.89748  0.69607  0.70998  1.0000
  N   N179      1.0  0.89372  0.80872  0.66770  1.0000
  C   C3226     1.0  0.91241  0.81760  0.65460  1.0000
  C   C3227     1.0  0.89740  0.78073  0.67066  1.0000
  C   C3228     1.0  0.86819  0.81928  0.66405  1.0000
  C   C3229     1.0  0.89477  0.81775  0.68102  1.0000
  C   C3230     1.0  0.91991  0.81018  0.68624  1.0000
  C   C3231     1.0  0.90992  0.84608  0.64958  1.0000
  C   C3232     1.0  0.84614  0.80935  0.67504  1.0000
  C   C3233     1.0  0.92438  0.76593  0.66736  1.0000
  C   C3234     1.0  0.92575  0.73837  0.67387  1.0000
  C   C3235     1.0  0.97527  0.90347  0.55752  1.0000
  C   C3236     1.0  0.93176  0.85245  0.63753  1.0000
  C   C3237     1.0  0.82173  0.82020  0.66965  1.0000
  H   H5724     1.0  0.91113  0.81016  0.64513  1.0000
  H   H5725     1.0  0.93170  0.81021  0.65634  1.0000
  H   H5726     1.0  0.88920  0.77375  0.68216  1.0000
  H   H5727     1.0  0.88717  0.77466  0.66396  1.0000
  H   H5728     1.0  0.86777  0.81580  0.65323  1.0000
  H   H5729     1.0  0.86377  0.83977  0.66304  1.0000
  H   H5730     1.0  0.88892  0.83824  0.67948  1.0000
  H   H5731     1.0  0.88105  0.81057  0.69049  1.0000
  H   H5732     1.0  0.93562  0.81443  0.67733  1.0000
  H   H5733     1.0  0.50878  0.68602  0.70067  1.0000
  H   H5734     1.0  0.89269  0.85425  0.64511  1.0000
  H   H5735     1.0  0.90963  0.85518  0.65861  1.0000
  H   H5736     1.0  0.84398  0.81449  0.68573  1.0000
  H   H5737     1.0  0.84869  0.78894  0.67662  1.0000
  H   H5738     1.0  0.93082  0.76780  0.65540  1.0000
  H   H5739     1.0  0.93760  0.77252  0.67166  1.0000
  H   H5740     1.0  0.94478  0.72797  0.67046  1.0000
  H   H5741     1.0  0.96807  0.66441  0.69613  1.0000
  H   H5742     1.0  0.72896  0.98021  0.55903  1.0000
  H   H5743     1.0  0.54003  0.72546  0.69709  1.0000
  H   H5744     1.0  0.99361  0.90882  0.55573  1.0000
  C   C3238     1.0  0.96373  0.81713  0.52519  1.0000
  H   H5745     1.0  0.94952  0.84584  0.64156  1.0000
  H   H5746     1.0  0.93275  0.84398  0.62809  1.0000
  H   H5747     1.0  0.92918  0.87285  0.63384  1.0000
  H   H5748     1.0  0.82283  0.81545  0.65896  1.0000
  H   H5749     1.0  0.80641  0.81233  0.67751  1.0000
  H   H5750     1.0  0.81735  0.84063  0.66860  1.0000
  H   H5751     1.0  0.84287  0.77889  0.70638  1.0000
  S   S723      1.0  0.90862  0.91142  0.56252  1.0000
  C   C3239     1.0  0.68705  0.65820  0.66827  1.0000
  C   C3240     1.0  0.91976  0.82389  0.69814  1.0000
  H   H5752     1.0  0.83705  0.74813  0.69371  1.0000
  S   S724      1.0  0.94355  0.93295  0.70711  1.0000
  C   C3241     1.0  0.55916  0.81474  0.71812  1.0000
  H   H5753     1.0  0.56479  0.78143  0.70911  1.0000
  H   H5754     1.0  0.81511  0.94595  0.62008  1.0000
  H   H5755     1.0  0.51636  0.86822  0.69090  1.0000
  C   C3242     1.0  0.97720  0.90530  0.62316  1.0000
  S   S725      1.0  0.95795  0.98578  0.63741  1.0000
  H   H5756     1.0  0.98682  0.92879  0.50788  1.0000
  C   C3243     1.0  0.95572  0.66776  0.70662  1.0000
  Fe  Fe362     1.0  0.87231  0.85983  0.61049  1.0000
  C   C3244     1.0  0.88968  0.73202  0.71590  1.0000
  C   C3245     1.0  0.75516  0.69793  0.49348  1.0000
  H   H5757     1.0  0.92326  0.79008  0.69100  1.0000
  H   H5758     1.0  0.75851  0.85503  0.61242  1.0000
  H   H5759     1.0  0.67229  0.70870  0.50529  1.0000
  H   H5760     1.0  0.70640  0.91134  0.64847  1.0000
  H   H5761     1.0  0.97111  0.80667  0.53506  1.0000
  H   H5762     1.0  0.93754  0.81723  0.70217  1.0000
  H   H5763     1.0  0.49763  0.83096  0.69777  1.0000
  C   C3246     1.0  0.87416  0.75533  0.71494  1.0000
  C   C3247     1.0  0.83190  0.84998  0.48656  1.0000
  C   C3248     1.0  0.94568  0.85920  0.71713  1.0000
  H   H5764     1.0  0.76435  0.77515  0.70181  1.0000
  C   C3249     1.0  0.97113  0.84922  0.71509  1.0000
  H   H5765     1.0  0.90890  0.92098  0.65943  1.0000
  H   H5766     1.0  0.91236  0.73089  0.67012  1.0000
  C   C3250     1.0  0.91428  0.95136  0.62423  1.0000
  S   S726      1.0  0.98645  0.94012  0.66950  1.0000
  H   H5767     1.0  0.79658  0.66678  0.64226  1.0000
  H   H5768     1.0  0.76433  0.69802  0.50244  1.0000
  H   H5769     1.0  0.96595  0.80415  0.51777  1.0000
  C   C3251     1.0  0.81411  0.69259  0.72737  1.0000
  H   H5770     1.0  0.77023  0.88205  0.60132  1.0000
  C   C3252     1.0  0.98171  0.89584  0.53183  1.0000
  C   C3253     1.0  0.74810  0.87479  0.65687  1.0000
  H   H5771     1.0  0.77297  0.96545  0.57764  1.0000
  H   H5772     1.0  0.84733  0.91897  0.54899  1.0000
  H   H5773     1.0  0.95831  0.89673  0.50959  1.0000
  H   H5774     1.0  0.97900  0.70605  0.72050  1.0000
  C   C3254     1.0  0.50643  0.86391  0.70238  1.0000
  C   C3255     1.0  0.75970  0.96426  0.60875  1.0000
  H   H5775     1.0  0.82343  0.91466  0.64906  1.0000
  S   S727      1.0  0.94950  0.83191  0.48552  1.0000
  H   H5776     1.0  0.56562  0.91189  0.69938  1.0000
  H   H5777     1.0  0.97104  0.89055  0.63225  1.0000
  H   H5778     1.0  0.98177  0.94877  0.48301  1.0000
  H   H5779     1.0  0.66217  0.69649  0.49248  1.0000
  C   C3256     1.0  0.69891  0.67840  0.49664  1.0000
  C   C3257     1.0  0.76049  0.84721  0.65721  1.0000
  N   N180      1.0  0.68534  0.66619  0.68238  1.0000
  H   H5780     1.0  0.97058  0.92320  0.62688  1.0000
  H   H5781     1.0  0.73617  0.70928  0.49522  1.0000
  H   H5782     1.0  0.75065  0.67118  0.52166  1.0000
  S   S728      1.0  0.86478  0.93129  0.59725  1.0000
  C   C3258     1.0  0.93735  0.88493  0.71403  1.0000
  C   C3259     1.0  0.97043  0.70086  0.71266  1.0000
  C   C3260     1.0  0.91111  0.90548  0.53469  1.0000
  H   H5783     1.0  0.52620  0.81570  0.71095  1.0000
  H   H5784     1.0  0.77920  0.91817  0.66093  1.0000
  Fe  Fe363     1.0  0.87883  0.90745  0.61701  1.0000
  N   N181      1.0  0.73999  0.65671  0.50572  1.0000
  H   H5785     1.0  0.58773  0.80060  0.70090  1.0000
  H   H5786     1.0  0.72833  0.87585  0.65655  1.0000
  H   H5787     1.0  0.71419  0.96530  0.63981  1.0000
  H   H5788     1.0  0.81973  0.90412  0.66842  1.0000
  Fe  Fe364     1.0  0.97358  0.97854  0.65787  1.0000
  H   H5789     1.0  0.99178  0.89741  0.64804  1.0000
  H   H5790     1.0  0.72931  0.65521  0.63532  1.0000
  H   H5791     1.0  0.79701  0.87871  0.61929  1.0000
  H   H5792     1.0  0.85378  0.67693  0.72552  1.0000
  H   H5793     1.0  0.69393  0.69550  0.69968  1.0000
  S   S729      1.0  0.87788  0.77811  0.72339  1.0000
  H   H5794     1.0  0.57142  0.82667  0.71902  1.0000
  Fe  Fe365     1.0  0.88738  0.90085  0.58545  1.0000
  H   H5795     1.0  0.75625  0.83591  0.68079  1.0000
  H   H5796     1.0  0.75430  0.93349  0.63920  1.0000
  H   H5797     1.0  0.91268  0.90085  0.51283  1.0000
  H   H5798     1.0  0.67536  0.74406  0.67960  1.0000
  C   C3261     1.0  0.97900  0.89227  0.50746  1.0000
  H   H5799     1.0  0.81584  0.70226  0.71584  1.0000
  S   S730      1.0  0.79607  0.92594  0.60085  1.0000
  H   H5800     1.0  0.71290  0.68714  0.51365  1.0000
  H   H5801     1.0  0.93677  0.94851  0.65980  1.0000
  C   C3262     1.0  0.75796  0.88874  0.62998  1.0000
  C   C3263     1.0  0.97444  0.85695  0.52739  1.0000
  H   H5802     1.0  0.82913  0.88184  0.65666  1.0000
  H   H5803     1.0  0.95843  0.87834  0.55136  1.0000
  C   C3264     1.0  0.93001  0.96709  0.62449  1.0000
  H   H5804     1.0  0.74909  0.95930  0.60227  1.0000
  C   C3265     1.0  0.85498  0.76088  0.70709  1.0000
  N   N182      1.0  0.52484  0.85365  0.71249  1.0000
  C   C3266     1.0  0.71938  0.70393  0.72004  1.0000
  H   H5805     1.0  0.91779  0.84413  0.69384  1.0000
  C   C3267     1.0  0.78570  0.89348  0.64520  1.0000
  H   H5806     1.0  0.77405  0.97047  0.55867  1.0000
  C   C3268     1.0  0.68730  0.73241  0.68730  1.0000
  C   C3269     1.0  0.76809  0.78555  0.70922  1.0000
  H   H5807     1.0  0.94409  0.90826  0.61460  1.0000
  H   H5808     1.0  0.90790  0.95227  0.61436  1.0000
  H   H5809     1.0  0.96819  0.92194  0.60174  1.0000
  Fe  Fe366     1.0  0.83555  0.90811  0.60301  1.0000
  H   H5810     1.0  0.54230  0.70546  0.68466  1.0000
  C   C3270     1.0  0.51068  0.70390  0.70252  1.0000
  H   H5811     1.0  0.50645  0.65408  0.71730  1.0000
  H   H5812     1.0  0.99096  0.86823  0.55142  1.0000
  C   C3271     1.0  0.70944  0.66446  0.65610  1.0000
  H   H5813     1.0  0.51602  0.90087  0.71881  1.0000
  C   C3272     1.0  0.81720  0.90002  0.65823  1.0000
  H   H5814     1.0  0.89745  0.95512  0.48319  1.0000
  C   C3273     1.0  0.77446  0.86474  0.60936  1.0000
  H   H5815     1.0  0.79095  0.85254  0.60416  1.0000
  C   C3274     1.0  0.98868  0.91664  0.50007  1.0000
  C   C3275     1.0  0.90522  0.89560  0.54960  1.0000
  H   H5816     1.0  0.51862  0.69479  0.72441  1.0000
  H   H5817     1.0  0.81779  0.95978  0.57733  1.0000
  H   H5818     1.0  0.55467  0.87033  0.69812  1.0000
  C   C3276     1.0  0.84659  0.93354  0.55510  1.0000
  S   S731      1.0  0.85711  0.87887  0.59025  1.0000
  C   C3277     1.0  0.77357  0.98003  0.56759  1.0000
  C   C3278     1.0  0.97433  0.93164  0.48820  1.0000
  H   H5819     1.0  0.90429  0.82047  0.70745  1.0000
  C   C3279     1.0  0.82082  0.95011  0.55658  1.0000
  C   C3280     1.0  0.78346  0.95051  0.61015  1.0000
  H   H5820     1.0  0.75571  0.84055  0.64846  1.0000
  C   C3281     1.0  0.55026  0.91373  0.70891  1.0000
  H   H5821     1.0  0.97011  0.84700  0.50747  1.0000
  C   C3282     1.0  0.93821  0.96607  0.63731  1.0000
  N   N183      1.0  0.75920  0.89340  0.64458  1.0000
  S   S732      1.0  0.90451  0.87942  0.60468  1.0000
  C   C3283     1.0  0.71434  0.66134  0.72433  1.0000
  H   H5822     1.0  0.70447  0.69672  0.67222  1.0000
  S   S733      1.0  0.84746  0.88674  0.62367  1.0000
  H   H5823     1.0  0.95107  0.71169  0.71382  1.0000
  H   H5824     1.0  0.83636  0.97645  0.56298  1.0000
  C   C3284     1.0  0.72941  0.67917  0.71918  1.0000
  H   H5825     1.0  0.70576  0.68445  0.65107  1.0000
  H   H5826     1.0  0.97983  0.84605  0.53770  1.0000
  H   H5827     1.0  0.92145  0.73546  0.68591  1.0000
  C   C3285     1.0  0.78004  0.87053  0.62281  1.0000
  C   C3286     1.0  0.81856  0.96977  0.56585  1.0000
  C   C3287     1.0  0.51060  0.85087  0.72798  1.0000
  H   H5828     1.0  0.67200  0.70397  0.67204  1.0000
  C   C3288     1.0  0.83579  0.67055  0.72837  1.0000
  H   H5829     1.0  0.77055  0.72965  0.48035  1.0000
  C   C3289     1.0  0.68604  0.69354  0.67883  1.0000
  H   H5830     1.0  0.70777  0.69129  0.48742  1.0000
  H   H5831     1.0  0.71893  0.92638  0.63053  1.0000
  H   H5832     1.0  0.68363  0.74105  0.69699  1.0000
  C   C3290     1.0  0.78985  0.89963  0.65919  1.0000
  H   H5833     1.0  0.70714  0.73186  0.68209  1.0000
  H   H5834     1.0  0.95414  0.86426  0.53031  1.0000
  C   C3291     1.0  0.91488  0.93373  0.64962  1.0000
  H   H5835     1.0  0.68528  0.95507  0.64250  1.0000
  C   C3292     1.0  0.79682  0.95661  0.61886  1.0000
  S   S734      1.0  0.98208  0.81709  0.71971  1.0000
  H   H5836     1.0  0.80712  0.93793  0.56192  1.0000
  Fe  Fe367     1.0  0.96852  0.95488  0.68978  1.0000
  C   C3293     1.0  0.53087  0.89879  0.70912  1.0000
  H   H5837     1.0  0.95858  0.74680  0.69478  1.0000
  C   C3294     1.0  0.90856  0.89297  0.52428  1.0000
  C   C3295     1.0  0.97773  0.83808  0.51745  1.0000
  H   H5838     1.0  0.79324  0.90711  0.63578  1.0000
  C   C3296     1.0  0.75462  0.67105  0.49264  1.0000
  H   H5839     1.0  0.64516  0.67529  0.68679  1.0000
  H   H5840     1.0  0.54773  0.83102  0.69731  1.0000
  H   H5841     1.0  0.74874  0.67373  0.71443  1.0000
  H   H5842     1.0  0.79804  0.87540  0.64392  1.0000
  H   H5843     1.0  0.96446  0.90974  0.53009  1.0000
  C   C3297     1.0  0.78852  0.74656  0.72456  1.0000
  C   C3298     1.0  0.75119  0.83084  0.67159  1.0000
  C   C3299     1.0  0.54279  0.87113  0.70908  1.0000
  C   C3300     1.0  0.67233  0.69152  0.50165  1.0000
  C   C3301     1.0  0.97884  0.73917  0.69362  1.0000
  C   C3302     1.0  0.52816  0.75551  0.72566  1.0000
  H   H5844     1.0  0.94126  0.68413  0.70348  1.0000
  H   H5845     1.0  0.75720  0.90633  0.62179  1.0000
  C   C3303     1.0  0.97986  0.89090  0.70643  1.0000
  C   C3304     1.0  0.53754  0.70702  0.69629  1.0000
  C   C3305     1.0  0.70368  0.95049  0.64579  1.0000
  S   S735      1.0  0.88643  0.91513  0.63728  1.0000
  H   H5846     1.0  0.81715  0.95892  0.54553  1.0000
  H   H5847     1.0  0.66208  0.70795  0.69783  1.0000
  H   H5848     1.0  0.79369  0.65554  0.61938  1.0000
  H   H5849     1.0  0.75993  0.81114  0.67123  1.0000
  H   H5850     1.0  0.74045  0.88231  0.63069  1.0000
  H   H5851     1.0  0.55599  0.86548  0.71667  1.0000
  C   C3306     1.0  0.50325  0.70600  0.71882  1.0000
  H   H5852     1.0  0.74761  0.67179  0.48270  1.0000
  N   N184      1.0  0.97034  0.67339  0.71633  1.0000
  S   S736      1.0  0.52198  0.97566  0.68109  1.0000
  H   H5853     1.0  0.78641  0.79114  0.70482  1.0000
  H   H5854     1.0  0.58826  0.78180  0.71882  1.0000
  H   H5855     1.0  0.91698  0.65737  0.69707  1.0000
  S   S737      1.0  0.94987  0.76009  0.72719  1.0000
  H   H5856     1.0  0.83523  0.86798  0.48762  1.0000
  C   C3307     1.0  0.96449  0.90603  0.61067  1.0000
  H   H5857     1.0  0.65866  0.66902  0.70253  1.0000
  C   C3308     1.0  0.57595  0.79336  0.71129  1.0000
  H   H5858     1.0  0.66239  0.67911  0.51071  1.0000
  C   C3309     1.0  0.98820  0.86511  0.70950  1.0000
  C   C3310     1.0  0.97658  0.88447  0.54833  1.0000
  H   H5859     1.0  0.50341  0.72551  0.71887  1.0000
  C   C3311     1.0  0.76744  0.76972  0.72449  1.0000
  H   H5860     1.0  0.96983  0.89541  0.56922  1.0000
  H   H5861     1.0  0.84768  0.78791  0.48038  1.0000
  H   H5862     1.0  0.75343  0.80251  0.70958  1.0000
  H   H5863     1.0  0.77435  0.66134  0.49054  1.0000
  C   C3312     1.0  0.78642  0.97654  0.62608  1.0000
  H   H5864     1.0  0.99314  0.90310  0.70246  1.0000
  H   H5865     1.0  0.98662  0.74638  0.70098  1.0000
  H   H5866     1.0  0.90443  0.72780  0.72200  1.0000
  H   H5867     1.0  0.78477  0.73553  0.71748  1.0000
  H   H5868     1.0  0.69760  0.66210  0.49260  1.0000
  C   C3313     1.0  0.66050  0.66306  0.69206  1.0000
  H   H5869     1.0  0.55789  0.90746  0.71907  1.0000
  H   H5870     1.0  0.93236  0.84720  0.72110  1.0000
  H   H5871     1.0  0.68650  0.72983  0.72717  1.0000
  H   H5872     1.0  0.49873  0.71869  0.69603  1.0000
  H   H5873     1.0  0.66990  0.66701  0.66374  1.0000
  H   H5874     1.0  0.83598  0.65879  0.72061  1.0000
  H   H5875     1.0  0.72684  0.66058  0.66040  1.0000
  H   H5876     1.0  0.79674  0.98114  0.63288  1.0000
  S   S738      1.0  0.93342  0.89334  0.48116  1.0000
  C   C3314     1.0  0.69431  0.71068  0.72644  1.0000
  H   H5877     1.0  0.93582  0.98007  0.61477  1.0000
  H   H5878     1.0  0.88814  0.69751  0.48134  1.0000
  H   H5879     1.0  0.64874  0.98079  0.61933  1.0000
  C   C3315     1.0  0.76977  0.71070  0.47939  1.0000
  H   H5880     1.0  0.49475  0.88179  0.70492  1.0000
  H   H5881     1.0  0.97669  0.93355  0.72813  1.0000
  C   C3316     1.0  0.74974  0.98473  0.61552  1.0000
  H   H5882     1.0  0.69680  0.65373  0.63918  1.0000
  H   H5883     1.0  0.74912  0.76403  0.72789  1.0000
  C   C3317     1.0  0.75227  0.65308  0.51856  1.0000
  H   H5884     1.0  0.99308  0.95424  0.61445  1.0000
  S   S739      1.0  0.49416  0.95914  0.72298  1.0000
  C   C3318     1.0  0.95979  0.77662  0.91099  1.0000
  Fe  Fe368     1.0  0.90232  0.89441  0.85732  1.0000
  S   S740      1.0  0.94123  0.87339  0.85151  1.0000
  S   S741      1.0  0.89252  0.93634  0.85000  1.0000
  Fe  Fe369     1.0  0.88298  0.84723  0.87281  1.0000
  S   S742      1.0  0.92026  0.82250  0.86861  1.0000
  S   S743      1.0  0.84725  0.83488  0.88521  1.0000
  Fe  Fe370     1.0  0.93467  0.85187  0.87429  1.0000
  C   C3319     1.0  0.98969  0.84397  0.75586  1.0000
  Fe  Fe371     1.0  0.92431  0.84555  0.84604  1.0000
  S   S744      1.0  0.94667  0.82526  0.82800  1.0000
  S   S745      1.0  0.89699  0.87485  0.88065  1.0000
  S   S746      1.0  0.88562  0.86832  0.84970  1.0000
  H   H5885     1.0  0.76218  0.71381  0.73708  1.0000
  Fe  Fe372     1.0  0.79604  0.71488  0.91174  1.0000
  S   S747      1.0  0.79500  0.71118  0.93549  1.0000
  S   S748      1.0  0.83057  0.72486  0.89609  1.0000
  Fe  Fe373     1.0  0.74577  0.69810  0.91711  1.0000
  S   S749      1.0  0.74132  0.69327  0.94133  1.0000
  S   S750      1.0  0.71192  0.69429  0.90950  1.0000
  Fe  Fe374     1.0  0.75466  0.72934  0.93656  1.0000
  Fe  Fe375     1.0  0.78194  0.67568  0.93784  1.0000
  H   H5886     1.0  0.83383  0.65914  0.73952  1.0000
  S   S751      1.0  0.75667  0.73523  0.91248  1.0000
  S   S752      1.0  0.78545  0.67818  0.91387  1.0000
  C   C3320     1.0  0.89846  0.94711  0.87542  1.0000
  H   H5887     1.0  0.92107  0.68544  0.73021  1.0000
  C   C3321     1.0  0.64359  0.78455  0.96869  1.0000
  H   H5888     1.0  0.62999  0.66254  0.81305  1.0000
  H   H5889     1.0  0.58879  0.76955  0.88604  1.0000
  Fe  Fe376     1.0  0.91822  0.78604  0.76256  1.0000
  S   S753      1.0  0.95962  0.77479  0.75648  1.0000
  S   S754      1.0  0.89607  0.80469  0.78122  1.0000
  H   H5890     1.0  0.76897  0.78165  0.73169  1.0000
  H   H5891     1.0  0.52598  0.68566  0.94322  1.0000
  Fe  Fe377     1.0  0.95165  0.74195  0.75043  1.0000
  C   C3322     1.0  0.95974  0.85567  0.93206  1.0000
  H   H5892     1.0  0.49692  0.66725  0.74055  1.0000
  S   S755      1.0  0.91020  0.75160  0.75835  1.0000
  H   H5893     1.0  0.90390  0.92736  0.87902  1.0000
  C   C3323     1.0  0.51732  0.92995  0.89866  1.0000
  H   H5894     1.0  0.91229  0.89949  0.75593  1.0000
  C   C3324     1.0  0.93408  0.68305  0.73762  1.0000
  H   H5895     1.0  0.54340  0.78285  0.90969  1.0000
  C   C3325     1.0  0.54693  0.74361  0.73360  1.0000
  H   H5896     1.0  0.59713  0.68491  0.92343  1.0000
  C   C3326     1.0  0.94261  0.86884  0.92127  1.0000
  H   H5897     1.0  0.81646  0.77155  0.73367  1.0000
  H   H5898     1.0  0.78506  0.66081  0.97361  1.0000
  H   H5899     1.0  0.58329  0.70418  0.84811  1.0000
  H   H5900     1.0  0.49795  0.86183  0.91956  1.0000
  H   H5901     1.0  0.58840  0.78464  0.90041  1.0000
  C   C3327     1.0  0.93091  0.74954  0.88892  1.0000
  C   C3328     1.0  0.96086  0.84974  0.75799  1.0000
  C   C3329     1.0  0.53805  0.70043  0.92061  1.0000
  H   H5902     1.0  0.94758  0.90341  0.79603  1.0000
  C   C3330     1.0  0.85692  0.72743  0.92894  1.0000
  C   C3331     1.0  0.80522  0.86021  0.86060  1.0000
  H   H5903     1.0  0.95148  0.78847  0.96087  1.0000
  C   C3332     1.0  0.96764  0.77650  0.95523  1.0000
  C   C3333     1.0  0.50633  0.67406  0.88298  1.0000
  N   N185      1.0  0.94781  0.87602  0.75927  1.0000
  C   C3334     1.0  0.96340  0.87506  0.78276  1.0000
  H   H5904     1.0  0.94494  0.76696  0.91689  1.0000
  C   C3335     1.0  0.89774  0.96344  0.88453  1.0000
  C   C3336     1.0  0.56518  0.67073  0.90639  1.0000
  H   H5905     1.0  0.99218  0.80632  0.76857  1.0000
  C   C3337     1.0  0.52565  0.76608  0.75285  1.0000
  H   H5906     1.0  0.83127  0.71912  0.73160  1.0000
  C   C3338     1.0  0.58048  0.77072  0.89749  1.0000
  S   S756      1.0  0.61527  0.67139  0.76436  1.0000
  H   H5907     1.0  0.49626  0.87375  0.89291  1.0000
  H   H5908     1.0  0.92465  0.87806  0.92709  1.0000
  C   C3339     1.0  0.72338  0.77138  0.96128  1.0000
  H   H5909     1.0  0.85004  0.67430  0.97039  1.0000
  H   H5910     1.0  0.91781  0.65343  0.75298  1.0000
  H   H5911     1.0  0.62595  0.75145  0.97477  1.0000
  H   H5912     1.0  0.50289  0.83146  0.88869  1.0000
  H   H5913     1.0  0.65940  0.69834  0.73549  1.0000
  C   C3340     1.0  0.54567  0.74885  0.74721  1.0000
  H   H5914     1.0  0.58767  0.67447  0.94999  1.0000
  H   H5915     1.0  0.92757  0.88273  0.74193  1.0000
  H   H5916     1.0  0.81852  0.69977  0.74771  1.0000
  S   S757      1.0  0.96697  0.84360  0.88576  1.0000
  H   H5917     1.0  0.60846  0.69157  0.87505  1.0000
  N   N186      1.0  0.88701  0.67387  0.95749  1.0000
  H   H5918     1.0  0.77557  0.69937  0.75254  1.0000
  H   H5919     1.0  0.50034  0.88245  0.93722  1.0000
  H   H5920     1.0  0.52479  0.77037  0.76331  1.0000
  C   C3341     1.0  0.94144  0.87918  0.77490  1.0000
  H   H5921     1.0  0.66177  0.78729  0.96992  1.0000
  H   H5922     1.0  0.92966  0.86582  0.78161  1.0000
  H   H5923     1.0  0.59298  0.73583  0.80206  1.0000
  C   C3342     1.0  0.55206  0.69491  0.90728  1.0000
  H   H5924     1.0  0.65963  0.74491  0.97169  1.0000
  H   H5925     1.0  0.55263  0.70927  0.89762  1.0000
  H   H5926     1.0  0.52288  0.69210  0.81853  1.0000
  C   C3343     1.0  0.84393  0.80361  0.88983  1.0000
  C   C3344     1.0  0.82056  0.79795  0.89669  1.0000
  C   C3345     1.0  0.81664  0.77354  0.89940  1.0000
  C   C3346     1.0  0.83599  0.75471  0.89498  1.0000
  C   C3347     1.0  0.85962  0.76017  0.88860  1.0000
  C   C3348     1.0  0.86366  0.78452  0.88620  1.0000
  H   H5927     1.0  0.80527  0.81259  0.89970  1.0000
  H   H5928     1.0  0.79840  0.76951  0.90443  1.0000
  H   H5929     1.0  0.87467  0.74562  0.88526  1.0000
  H   H5930     1.0  0.88179  0.78871  0.88117  1.0000
  C   C3349     1.0  0.93313  0.82146  0.81419  1.0000
  C   C3350     1.0  0.94676  0.80552  0.80472  1.0000
  C   C3351     1.0  0.93589  0.80074  0.79423  1.0000
  C   C3352     1.0  0.91138  0.81207  0.79310  1.0000
  C   C3353     1.0  0.89824  0.82900  0.80205  1.0000
  C   C3354     1.0  0.90903  0.83366  0.81261  1.0000
  H   H5931     1.0  0.96557  0.79634  0.80575  1.0000
  H   H5932     1.0  0.94621  0.78776  0.78732  1.0000
  H   H5933     1.0  0.87955  0.83834  0.80090  1.0000
  H   H5934     1.0  0.89860  0.84636  0.81967  1.0000
  H   H5935     1.0  0.84159  0.71119  0.95072  1.0000
  H   H5936     1.0  0.93668  0.70166  0.73810  1.0000
  C   C3355     1.0  0.92200  0.67165  0.75289  1.0000
  H   H5937     1.0  0.95123  0.70534  0.95053  1.0000
  S   S758      1.0  0.73643  0.76585  0.94361  1.0000
  H   H5938     1.0  0.51845  0.84789  0.76335  1.0000
  H   H5939     1.0  0.93510  0.80915  0.90203  1.0000
  C   C3356     1.0  0.52312  0.65762  0.80379  1.0000
  H   H5940     1.0  0.99349  0.80724  0.84101  1.0000
  H   H5941     1.0  0.97518  0.77674  0.84289  1.0000
  H   H5942     1.0  0.96089  0.95794  0.73793  1.0000
  H   H5943     1.0  0.80240  0.84721  0.87121  1.0000
  H   H5944     1.0  0.82513  0.97256  0.92392  1.0000
  C   C3357     1.0  0.88389  0.86842  0.75318  1.0000
  C   C3358     1.0  0.95947  0.66687  0.73232  1.0000
  C   C3359     1.0  0.67342  0.67523  0.95181  1.0000
  C   C3360     1.0  0.98734  0.75901  0.84684  1.0000
  H   H5945     1.0  0.62649  0.70683  0.78873  1.0000
  H   H5946     1.0  0.81074  0.86050  0.83781  1.0000
  N   N187      1.0  0.79160  0.73065  0.73920  1.0000
  H   H5947     1.0  0.53499  0.79836  0.96541  1.0000
  Fe  Fe378     1.0  0.95470  0.79386  0.73379  1.0000
  S   S759      1.0  0.91398  0.80772  0.74033  1.0000
  H   H5948     1.0  0.50405  0.66360  0.80979  1.0000
  C   C3361     1.0  0.61557  0.72375  0.78296  1.0000
  H   H5949     1.0  0.85351  0.98003  0.91268  1.0000
  H   H5950     1.0  0.95427  0.77668  0.86650  1.0000
  C   C3362     1.0  0.81763  0.75883  0.74428  1.0000
  H   H5951     1.0  0.50426  0.83282  0.73126  1.0000
  H   H5952     1.0  0.77862  0.75943  0.75217  1.0000
  H   H5953     1.0  0.62591  0.73908  0.78062  1.0000
  H   H5954     1.0  0.55373  0.67527  0.81588  1.0000
  C   C3363     1.0  0.86787  0.67915  0.97082  1.0000
  H   H5955     1.0  0.97039  0.65949  0.95554  1.0000
  H   H5956     1.0  0.74153  0.75086  0.75124  1.0000
  H   H5957     1.0  0.51688  0.70103  0.86374  1.0000
  C   C3364     1.0  0.49916  0.83454  0.90002  1.0000
  H   H5958     1.0  0.93535  0.92665  0.74287  1.0000
  H   H5959     1.0  0.51991  0.92476  0.88792  1.0000
  H   H5960     1.0  0.89317  0.68975  0.93443  1.0000
  C   C3365     1.0  0.81825  0.77434  0.75511  1.0000
  H   H5961     1.0  0.64084  0.69413  0.87160  1.0000
  H   H5962     1.0  0.70962  0.72799  0.76678  1.0000
  Fe  Fe379     1.0  0.52130  0.74983  0.96958  1.0000
  C   C3366     1.0  0.64251  0.75726  0.97613  1.0000
  H   H5963     1.0  0.69610  0.82077  0.97780  1.0000
  H   H5964     1.0  0.53584  0.93025  0.90065  1.0000
  H   H5965     1.0  0.95338  0.83641  0.76761  1.0000
  C   C3367     1.0  0.54985  0.65756  0.93207  1.0000
  H   H5966     1.0  0.71821  0.72031  0.74896  1.0000
  H   H5967     1.0  0.49838  0.71452  0.87887  1.0000
  C   C3368     1.0  0.83348  0.96293  0.90285  1.0000
  N   N188      1.0  0.99284  0.75911  0.86141  1.0000
  H   H5968     1.0  0.95115  0.88313  0.91286  1.0000
  Fe  Fe380     1.0  0.90918  0.77251  0.73553  1.0000
  H   H5969     1.0  0.93954  0.87348  0.80429  1.0000
  H   H5970     1.0  0.98629  0.93536  0.74442  1.0000
  C   C3369     1.0  0.98523  0.84326  0.92413  1.0000
  H   H5971     1.0  0.97177  0.85502  0.78490  1.0000
  H   H5972     1.0  0.96079  0.76239  0.95179  1.0000
  S   S760      1.0  0.55962  0.66767  0.76054  1.0000
  H   H5973     1.0  0.62930  0.79677  0.97533  1.0000
  H   H5974     1.0  0.52188  0.65964  0.87906  1.0000
  C   C3370     1.0  0.50738  0.77155  0.73164  1.0000
  C   C3371     1.0  0.98123  0.79188  0.94184  1.0000
  C   C3372     1.0  0.81463  0.71081  0.73698  1.0000
  Fe  Fe381     1.0  0.62966  0.65689  0.74364  1.0000
  H   H5975     1.0  0.95488  0.74126  0.85318  1.0000
  C   C3373     1.0  0.91171  0.67983  0.95747  1.0000
  H   H5976     1.0  0.68868  0.68132  0.95464  1.0000
  H   H5977     1.0  0.89640  0.97626  0.82162  1.0000
  H   H5978     1.0  0.93447  0.66925  0.76068  1.0000
  H   H5979     1.0  0.51196  0.92146  0.85428  1.0000
  H   H5980     1.0  0.66895  0.67797  0.90810  1.0000
  H   H5981     1.0  0.92055  0.66683  0.96624  1.0000
  C   C3374     1.0  0.98446  0.76551  0.91200  1.0000
  H   H5982     1.0  0.97529  0.81106  0.85871  1.0000
  H   H5983     1.0  0.93629  0.72849  0.96137  1.0000
  C   C3375     1.0  0.83373  0.98030  0.91274  1.0000
  H   H5984     1.0  0.54659  0.83845  0.96441  1.0000
  H   H5985     1.0  0.86323  0.69916  0.97115  1.0000
  H   H5986     1.0  0.89935  0.86199  0.77228  1.0000
  H   H5987     1.0  0.94277  0.69642  0.97011  1.0000
  C   C3376     1.0  0.53625  0.67963  0.79781  1.0000
  H   H5988     1.0  0.54388  0.76781  0.89503  1.0000
  N   N189      1.0  0.61207  0.73100  0.90662  1.0000
  C   C3377     1.0  0.63012  0.74856  0.90182  1.0000
  C   C3378     1.0  0.58559  0.74547  0.90805  1.0000
  C   C3379     1.0  0.61584  0.71602  0.92144  1.0000
  C   C3380     1.0  0.61672  0.71312  0.89646  1.0000
  C   C3381     1.0  0.61463  0.72459  0.88046  1.0000
  C   C3382     1.0  0.65805  0.73663  0.90075  1.0000
  C   C3383     1.0  0.59649  0.69944  0.92951  1.0000
  C   C3384     1.0  0.62159  0.70462  0.87120  1.0000
  C   C3385     1.0  0.67422  0.75636  0.89523  1.0000
  H   H5989     1.0  0.88993  0.86803  0.74139  1.0000
  H   H5990     1.0  0.62567  0.76170  0.90945  1.0000
  H   H5991     1.0  0.62820  0.76028  0.89102  1.0000
  H   H5992     1.0  0.57302  0.73387  0.90705  1.0000
  H   H5993     1.0  0.57864  0.74999  0.91911  1.0000
  H   H5994     1.0  0.61599  0.72851  0.92875  1.0000
  H   H5995     1.0  0.63424  0.70329  0.92066  1.0000
  H   H5996     1.0  0.63521  0.70073  0.89659  1.0000
  H   H5997     1.0  0.60329  0.70041  0.90028  1.0000
  H   H5998     1.0  0.62713  0.73802  0.87557  1.0000
  H   H5999     1.0  0.59514  0.73375  0.87978  1.0000
  H   H6000     1.0  0.66208  0.72670  0.91156  1.0000
  H   H6001     1.0  0.66394  0.72349  0.89314  1.0000
  H   H6002     1.0  0.91926  0.75608  0.88047  1.0000
  Fe  Fe382     1.0  0.50626  0.73911  0.94399  1.0000
  H   H6003     1.0  0.62056  0.71331  0.85970  1.0000
  H   H6004     1.0  0.99297  0.85826  0.91587  1.0000
  H   H6005     1.0  0.50597  0.82660  0.75719  1.0000
  H   H6006     1.0  0.66941  0.76983  0.90262  1.0000
  H   H6007     1.0  0.69409  0.74738  0.89482  1.0000
  H   H6008     1.0  0.67187  0.76633  0.88410  1.0000
  H   H6009     1.0  0.51851  0.67235  0.90290  1.0000
  H   H6010     1.0  0.49937  0.83292  0.97745  1.0000
  C   C3386     1.0  0.96345  0.89409  0.74959  1.0000
  H   H6011     1.0  0.55444  0.67305  0.79110  1.0000
  C   C3387     1.0  0.89201  0.95634  0.86174  1.0000
  H   H6012     1.0  0.86746  0.72541  0.94917  1.0000
  H   H6013     1.0  0.86599  0.67676  0.94074  1.0000
  C   C3388     1.0  0.53707  0.68173  0.93299  1.0000
  H   H6014     1.0  0.82121  0.86900  0.85990  1.0000
  S   S761      1.0  0.52195  0.73079  0.92153  1.0000
  C   C3389     1.0  0.91150  0.70657  0.95875  1.0000
  H   H6015     1.0  0.95011  0.84183  0.94013  1.0000
  H   H6016     1.0  0.87479  0.73198  0.92230  1.0000
  H   H6017     1.0  0.67574  0.86360  0.94583  1.0000
  C   C3390     1.0  0.71502  0.79604  0.96305  1.0000
  H   H6018     1.0  0.91620  0.84324  0.75910  1.0000
  C   C3391     1.0  0.72003  0.75224  0.97332  1.0000
  C   C3392     1.0  0.60169  0.68627  0.94457  1.0000
  H   H6019     1.0  0.64237  0.86742  0.95034  1.0000
  H   H6020     1.0  0.57732  0.71044  0.93110  1.0000
  N   N190      1.0  0.55004  0.71404  0.80574  1.0000
  C   C3393     1.0  0.55101  0.72256  0.81924  1.0000
  C   C3394     1.0  0.53332  0.73407  0.79712  1.0000
  C   C3395     1.0  0.54041  0.69016  0.81030  1.0000
  C   C3396     1.0  0.57547  0.70938  0.79630  1.0000
  C   C3397     1.0  0.58997  0.73090  0.79224  1.0000
  C   C3398     1.0  0.56962  0.70552  0.82868  1.0000
  H   H6021     1.0  0.60036  0.69994  0.95142  1.0000
  H   H6022     1.0  0.84430  0.94426  0.90652  1.0000
  C   C3399     1.0  0.50140  0.67067  0.89979  1.0000
  C   C3400     1.0  0.57058  0.71716  0.84125  1.0000
  H   H6023     1.0  0.53081  0.70054  0.87883  1.0000
  C   C3401     1.0  0.50499  0.91129  0.91072  1.0000
  H   H6024     1.0  0.55511  0.74159  0.81644  1.0000
  H   H6025     1.0  0.53925  0.75214  0.79521  1.0000
  H   H6026     1.0  0.53525  0.73046  0.78601  1.0000
  H   H6027     1.0  0.89797  0.71204  0.96835  1.0000
  H   H6028     1.0  0.79777  0.73261  0.76011  1.0000
  H   H6029     1.0  0.58730  0.69253  0.80144  1.0000
  H   H6030     1.0  0.57411  0.70511  0.78587  1.0000
  H   H6031     1.0  0.57981  0.74760  0.78589  1.0000
  H   H6032     1.0  0.56396  0.68739  0.83347  1.0000
  H   H6033     1.0  0.58879  0.70206  0.82231  1.0000
  H   H6034     1.0  0.95694  0.84468  0.74837  1.0000
  H   H6035     1.0  0.52483  0.69356  0.79064  1.0000
  S   S762      1.0  0.60145  0.68350  0.73167  1.0000
  H   H6036     1.0  0.84997  0.71609  0.92342  1.0000
  H   H6037     1.0  0.97250  0.66839  0.73895  1.0000
  C   C3402     1.0  0.93704  0.70925  0.96029  1.0000
  H   H6038     1.0  0.55187  0.72100  0.84814  1.0000
  H   H6039     1.0  0.67106  0.68475  0.94060  1.0000
  C   C3403     1.0  0.87739  0.68767  0.94379  1.0000
  S   S763      1.0  0.99103  0.73610  0.92286  1.0000
  C   C3404     1.0  0.95457  0.88308  0.79750  1.0000
  H   H6040     1.0  0.92503  0.67670  0.94726  1.0000
  Fe  Fe383     1.0  0.57868  0.65363  0.74003  1.0000
  N   N191      1.0  0.83719  0.80775  0.83862  1.0000
  C   C3405     1.0  0.83453  0.82712  0.84756  1.0000
  C   C3406     1.0  0.86375  0.79373  0.83650  1.0000
  C   C3407     1.0  0.83216  0.82112  0.82374  1.0000
  C   C3408     1.0  0.81923  0.79019  0.84515  1.0000
  C   C3409     1.0  0.81159  0.78449  0.86197  1.0000
  C   C3410     1.0  0.80986  0.84648  0.84808  1.0000
  C   C3411     1.0  0.83736  0.80471  0.81215  1.0000
  C   C3412     1.0  0.87502  0.78202  0.85024  1.0000
  C   C3413     1.0  0.90251  0.77048  0.84623  1.0000
  C   C3414     1.0  0.79694  0.76351  0.86709  1.0000
  C   C3415     1.0  0.82873  0.81952  0.79818  1.0000
  H   H6041     1.0  0.84998  0.83762  0.84331  1.0000
  H   H6042     1.0  0.83657  0.81851  0.85893  1.0000
  H   H6043     1.0  0.86589  0.77828  0.83075  1.0000
  H   H6044     1.0  0.87610  0.80624  0.82943  1.0000
  H   H6045     1.0  0.84332  0.83598  0.81929  1.0000
  H   H6046     1.0  0.81238  0.83072  0.82447  1.0000
  H   H6047     1.0  0.80144  0.79744  0.84111  1.0000
  H   H6048     1.0  0.82677  0.77219  0.84147  1.0000
  H   H6049     1.0  0.79961  0.80099  0.86601  1.0000
  H   H6050     1.0  0.82787  0.77912  0.86725  1.0000
  H   H6051     1.0  0.79372  0.83767  0.84931  1.0000
  H   H6052     1.0  0.82768  0.78879  0.81625  1.0000
  H   H6053     1.0  0.85759  0.79747  0.80914  1.0000
  H   H6054     1.0  0.87402  0.79616  0.85664  1.0000
  H   H6055     1.0  0.86549  0.76699  0.85694  1.0000
  C   C3416     1.0  0.97012  0.74034  0.83085  1.0000
  H   H6056     1.0  0.91335  0.78491  0.83998  1.0000
  H   H6057     1.0  0.90990  0.76172  0.85631  1.0000
  H   H6058     1.0  0.80886  0.74589  0.86444  1.0000
  H   H6059     1.0  0.79064  0.76076  0.87908  1.0000
  H   H6060     1.0  0.78029  0.76797  0.86201  1.0000
  H   H6061     1.0  0.78827  0.87488  0.86016  1.0000
  H   H6062     1.0  0.83331  0.80743  0.78999  1.0000
  H   H6063     1.0  0.80834  0.82650  0.80026  1.0000
  H   H6064     1.0  0.83846  0.83537  0.79355  1.0000
  N   N192      1.0  0.64074  0.79218  0.95295  1.0000
  C   C3417     1.0  0.61639  0.78709  0.95161  1.0000
  C   C3418     1.0  0.50868  0.84603  0.75505  1.0000
  C   C3419     1.0  0.63935  0.81989  0.94870  1.0000
  C   C3420     1.0  0.66291  0.77960  0.94329  1.0000
  C   C3421     1.0  0.66158  0.75411  0.94051  1.0000
  C   C3422     1.0  0.60818  0.79820  0.93677  1.0000
  C   C3423     1.0  0.66216  0.82937  0.95000  1.0000
  H   H6065     1.0  0.94553  0.92723  0.75918  1.0000
  C   C3424     1.0  0.51353  0.69910  0.87573  1.0000
  C   C3425     1.0  0.68720  0.74099  0.93392  1.0000
  C   C3426     1.0  0.58701  0.78699  0.93530  1.0000
  C   C3427     1.0  0.65952  0.85726  0.94429  1.0000
  H   H6066     1.0  0.60123  0.79456  0.96000  1.0000
  H   H6067     1.0  0.61642  0.76698  0.95393  1.0000
  H   H6068     1.0  0.75281  0.73010  0.76647  1.0000
  H   H6069     1.0  0.87280  0.88700  0.75460  1.0000
  H   H6070     1.0  0.62254  0.82974  0.95530  1.0000
  H   H6071     1.0  0.63738  0.82661  0.93715  1.0000
  H   H6072     1.0  0.66656  0.79153  0.93231  1.0000
  H   H6073     1.0  0.68006  0.77732  0.94769  1.0000
  H   H6074     1.0  0.64904  0.75659  0.93277  1.0000
  H   H6075     1.0  0.65456  0.74161  0.95053  1.0000
  H   H6076     1.0  0.60113  0.81848  0.93586  1.0000
  H   H6077     1.0  0.62388  0.79514  0.92757  1.0000
  H   H6078     1.0  0.67952  0.82009  0.94371  1.0000
  H   H6079     1.0  0.66402  0.82599  0.96148  1.0000
  H   H6080     1.0  0.96773  0.80091  0.93459  1.0000
  C   C3428     1.0  0.54761  0.79924  0.97205  1.0000
  C   C3429     1.0  0.92367  0.88128  0.75388  1.0000
  H   H6081     1.0  0.54948  0.79893  0.89104  1.0000
  S   S764      1.0  0.51476  0.77332  0.94812  1.0000
  H   H6082     1.0  0.69990  0.73675  0.94176  1.0000
  H   H6083     1.0  0.68578  0.72333  0.93145  1.0000
  H   H6084     1.0  0.69527  0.75263  0.92372  1.0000
  H   H6085     1.0  0.57060  0.79077  0.94399  1.0000
  H   H6086     1.0  0.58142  0.79536  0.92465  1.0000
  H   H6087     1.0  0.59287  0.76667  0.93611  1.0000
  H   H6088     1.0  0.90244  0.95605  0.89517  1.0000
  H   H6089     1.0  0.92978  0.89775  0.77589  1.0000
  H   H6090     1.0  0.65890  0.86180  0.93252  1.0000
  H   H6091     1.0  0.93875  0.85532  0.91582  1.0000
  Fe  Fe384     1.0  0.58482  0.69520  0.75311  1.0000
  C   C3430     1.0  0.55260  0.78064  0.89842  1.0000
  H   H6092     1.0  0.57581  0.66643  0.89609  1.0000
  H   H6093     1.0  0.92418  0.73353  0.89667  1.0000
  H   H6094     1.0  0.96844  0.89027  0.73833  1.0000
  C   C3431     1.0  0.70880  0.66919  0.90259  1.0000
  H   H6095     1.0  0.87193  0.85443  0.75816  1.0000
  H   H6096     1.0  0.72976  0.69884  0.76414  1.0000
  H   H6097     1.0  0.96209  0.86963  0.93772  1.0000
  C   C3432     1.0  0.90641  0.86217  0.76052  1.0000
  S   S765      1.0  0.56896  0.73386  0.75725  1.0000
  H   H6098     1.0  0.82002  0.76242  0.76591  1.0000
  H   H6099     1.0  0.92861  0.76464  0.89493  1.0000
  S   S766      1.0  0.97266  0.70313  0.75748  1.0000
  H   H6100     1.0  0.72659  0.73317  0.97206  1.0000
  C   C3433     1.0  0.50523  0.73845  0.80406  1.0000
  C   C3434     1.0  0.95812  0.74173  0.88194  1.0000
  H   H6101     1.0  0.90502  0.75607  0.83968  1.0000
  H   H6102     1.0  0.61367  0.72035  0.77244  1.0000
  C   C3435     1.0  0.79532  0.74518  0.74952  1.0000
  C   C3436     1.0  0.67898  0.69289  0.73117  1.0000
  C   C3437     1.0  0.52408  0.85273  0.73986  1.0000
  C   C3438     1.0  0.86027  0.71353  0.94421  1.0000
  H   H6103     1.0  0.90711  0.71966  0.94874  1.0000
  C   C3439     1.0  0.97369  0.73868  0.84631  1.0000
  H   H6104     1.0  0.84318  0.74500  0.92957  1.0000
  H   H6105     1.0  0.71807  0.81091  0.95383  1.0000
  C   C3440     1.0  0.95422  0.80043  0.90259  1.0000
  H   H6106     1.0  0.96862  0.73312  0.89085  1.0000
  C   C3441     1.0  0.96894  0.76434  0.87223  1.0000
  H   H6107     1.0  0.62043  0.67421  0.94367  1.0000
  C   C3442     1.0  0.68476  0.66565  0.90329  1.0000
  H   H6108     1.0  0.98038  0.76674  0.96288  1.0000
  C   C3443     1.0  0.55414  0.82193  0.97152  1.0000
  C   C3444     1.0  0.88492  0.98210  0.85727  1.0000
  C   C3445     1.0  0.70254  0.80167  0.97661  1.0000
  H   H6109     1.0  0.97119  0.77508  0.87993  1.0000
  H   H6110     1.0  0.97025  0.87828  0.80342  1.0000
  H   H6111     1.0  0.83560  0.74553  0.74322  1.0000
  C   C3446     1.0  0.72494  0.71874  0.75914  1.0000
  H   H6112     1.0  0.57773  0.73467  0.83704  1.0000
  H   H6113     1.0  0.50440  0.71268  0.74555  1.0000
  H   H6114     1.0  0.95883  0.75862  0.82692  1.0000
  H   H6115     1.0  0.95901  0.72720  0.87586  1.0000
  H   H6116     1.0  0.65594  0.68072  0.95945  1.0000
  C   C3447     1.0  0.76964  0.71786  0.74579  1.0000
  H   H6117     1.0  0.50397  0.91679  0.92117  1.0000
  C   C3448     1.0  0.97338  0.81313  0.89528  1.0000
  H   H6118     1.0  0.83458  0.78358  0.75115  1.0000
  C   C3449     1.0  0.74746  0.73112  0.75594  1.0000
  H   H6119     1.0  0.53248  0.72417  0.82655  1.0000
  H   H6120     1.0  0.97781  0.88574  0.77641  1.0000
  H   H6121     1.0  0.80118  0.78888  0.75624  1.0000
  S   S767      1.0  0.51613  0.71489  0.96467  1.0000
  H   H6122     1.0  0.97825  0.82072  0.95400  1.0000
  C   C3450     1.0  0.97007  0.93810  0.73916  1.0000
  H   H6123     1.0  0.81415  0.96119  0.90319  1.0000
  H   H6124     1.0  0.98142  0.89156  0.75303  1.0000
  H   H6125     1.0  0.98175  0.83107  0.91767  1.0000
  H   H6126     1.0  0.90434  0.68416  0.75651  1.0000
  H   H6127     1.0  0.51716  0.89286  0.91042  1.0000
  C   C3451     1.0  0.50627  0.77710  0.74518  1.0000
  H   H6128     1.0  0.91763  0.97985  0.80431  1.0000
  C   C3452     1.0  0.95156  0.92200  0.74834  1.0000
  H   H6129     1.0  0.51719  0.83152  0.90353  1.0000
  H   H6130     1.0  0.49696  0.77694  0.79278  1.0000
  H   H6131     1.0  0.79674  0.68511  0.73049  1.0000
  H   H6132     1.0  0.49741  0.72163  0.80551  1.0000
  H   H6133     1.0  0.84212  0.96992  0.89145  1.0000
  H   H6134     1.0  0.50581  0.94891  0.89835  1.0000
  H   H6135     1.0  0.52688  0.87193  0.73854  1.0000
  C   C3453     1.0  0.68894  0.66826  0.72983  1.0000
  H   H6136     1.0  0.74789  0.65531  0.89610  1.0000
  H   H6137     1.0  0.54247  0.84030  0.73945  1.0000
  H   H6138     1.0  0.50284  0.96138  0.86296  1.0000
  H   H6139     1.0  0.50210  0.74370  0.81481  1.0000
  C   C3454     1.0  0.49415  0.92717  0.86098  1.0000
  H   H6140     1.0  0.98417  0.71986  0.84991  1.0000
  C   C3455     1.0  0.99259  0.81093  0.94610  1.0000
  H   H6141     1.0  0.96015  0.72570  0.83073  1.0000
  H   H6142     1.0  0.98835  0.73770  0.82332  1.0000
  S   S768      1.0  0.57969  0.85145  0.97857  1.0000
  H   H6143     1.0  0.55007  0.80670  0.72921  1.0000
  H   H6144     1.0  0.56261  0.73073  0.72906  1.0000
  C   C3456     1.0  0.72926  0.65269  0.89674  1.0000
