data_image0
_chemical_formula_structural       CHSC3HFeNSFeHSH2CS2C9H4CFeH2C5H5CH3C2HSHSH2CFeCHCHNHCH8CH3CH5CNH3CHCH2CH5CHCH2C2H6CH3SH11C3H2CH2SNH6SH3SH2SFeSFeSHC7H4C2H3C5H7C2H2CH2CH2C2SC3HC2HCH2NH4FeHCH4CH3C3H15C2HNC2FeHCSH6CSH3CHC3HCH3FeCH5CHCHC2H2CH8NH7FeS2FeS2Fe2S3HC2FeS2FeSFeH4C3H3C2H2C7H3C4HCH3SH5C6H6C2HCNC8H3CH2CH14C3H3CH2CH5CH4C2HSHC2HCH3SHC3H2CHCHFeH5C2H3SH3SH2CH2CH2CH3SHCH2C2NHCH3CHSHCH2CHCH2CH3NHCH8C2H2C4H5CH2SH2C2HCFeH2CH2CHC2H2SH2CHCH6CHCH2CS2FeS2FeSFeSCS2HFeS2FeHFeSCSH2SC7H7SC6H6C2FeCH2C3H3CH2C2H5CHC2H7CHCH2SH6CHCHCH3CH2CH5CHCH3CNC4H6C2H2CHCSHCH7CHCH2CH2C3H2C2HNHNH2FeCH2NH8SCNC11H15SHCH3C4H2C2H6CHCH6CH3CHCHCHCH2C3SHCHNCHCH2FeSFeS4H2SH2FeSC2HSHSH3SFeHCFeCSHCH3C3H3C2HC7H4CSC6H5C6H4NCHC6HC2H3CFeH8CH7CH8CHSH6C2H8C2HCHC2H2CH2CH3NH5C2NH3C2H2CH6C2H2CH2CNHCHFeCHC2H2C2NHSCH2CFeCH2CHCH2C2H3SCH5SH2CH2CSH3C2H2CH2CH6C4H2CHNCFeCH4CH3SHCH4CH3CH2CH2CSCSH2CFeSCHSFeSFeS3HFe2SH2FeSCHC6H4C6H6CH6C6H3C7H4CNHC2HC3HC2H4SCHCHCH3CHSH2CHCHCH4SH2SCH8CH4CHCH3CSCFeH4FeHCH3CNHNC8HC3H14CH6CSCH6C2HCH5CH3CH2SHCSH3FeSH6C3HCHS2HNCH2CH3CH3FeHSHSH5C2H2CFeH4CSH2CHNHSHC3HCHCH2CHFeSH2C2SNCHSH2SFeSFeSH2SHFeSFeSHCSC6H4SCHC5H2C6H4NC6H4CHC3H3CHCH4C2HSH5SH2FeH2CH2NH2CH2CHCH2CH2CNC8HSCFeH9SH4CHCHCH15SH3CSH3FeHFe2HSHCSCHCHCHCHCH2SC2HCH2C2HC2H2C2H2C2H6CHC2H2FeCH4CH3CHSCH2CH5CH4SHSCH2SH2CH3CSFeH2CSHSCFeSFeSFeHCSFeSCHSHS2FeSHSH2SH2C6H4CHC3HC3HCH6C6H4C6H5CH2CH5CHCH6CH3NC5HC2SH8CH3FeH3CHCSCH2CFeCHCHFeH2C2HC2FeH5C2NH7CS2HSHNC3H2C2FeH6CH4NH4CH2C2HCSCH2C3H3CH2C3H7FeSCH8SCHS2CSFeSHFeS2FeSFeSCSCSH4C6HCH6C9H3C6H4C6H7SHCH3CNH10C2SCH2FeH2CH2NHCH5CH3CH3C2NCH5CHC2HNCSHCHCH4CHCHCH2C5H4SNCH2C2H3C2HCH2FeCH6FeH2CHCHC2NHC3H2FeH2CH2CHC2HC4HCSH2FeH4CH5CHCH8SHCH3CH3CH6CH8C2H5FeS2CHSFeSFeSCFeS2FeSFeSC4HC6H4C6H5SHC6H4C6H4SH2CH3CH3SHNC10HCH19CH3C2H3NC8HCH17SH3CH6C2H4FeC2H8SHC2HCH3SHSC3NH2CFeH4CSHCH2CH11CH2CH2C2H2C2HFeHCHSHSFeSFeSH3SHCH2C2H3CHC7H4C2HCH2CHCH6C5NSCHCH8CH6CHC2H3C2NH2CHFeH2SH2CH5C2H3CHC2HC2H4CH3FeH8CH2CSCHCH2CHCH3SCSFeSFeSH2FeCSH5C2HCHC6H4C2HCHSH3C2HSC2H3CHCH5CH6C2H2CHC2H2CH3C2HNHCHC2HC2HC2H2CHCH18C2H4FeH3NHCH11CH3FeHCSH2
_chemical_formula_sum              "C864 H1536 S192 Fe96 N48"
_cell_length_a       55.116
_cell_length_b       35.6839
_cell_length_c       52.2046
_cell_angle_alpha    90.4426
_cell_angle_beta     103.414
_cell_angle_gamma    90.1645

_space_group_name_H-M_alt    "P 1"
_space_group_IT_number       1

loop_
  _space_group_symop_operation_xyz
  'x, y, z'

loop_
  _atom_site_type_symbol
  _atom_site_label
  _atom_site_symmetry_multiplicity
  _atom_site_fract_x
  _atom_site_fract_y
  _atom_site_fract_z
  _atom_site_occupancy
  C   C1        1.0  0.06686  0.45869  0.49257  1.0000
  H   H1        1.0  0.10022  0.41006  0.48930  1.0000
  S   S1        1.0  0.12844  0.09019  0.36449  1.0000
  C   C2        1.0  0.04693  0.23040  0.42010  1.0000
  C   C3        1.0  0.27028  0.05439  0.24492  1.0000
  C   C4        1.0  0.11830  0.39744  0.44688  1.0000
  H   H2        1.0  0.26475  0.02157  0.37868  1.0000
  Fe  Fe1       1.0  0.06114  0.37363  0.36571  1.0000
  N   N1        1.0  0.20272  0.49609  0.43880  1.0000
  S   S2        1.0  0.09220  0.41740  0.37065  1.0000
  Fe  Fe2       1.0  0.05051  0.28957  0.35231  1.0000
  H   H3        1.0  0.04454  0.11036  0.39669  1.0000
  S   S3        1.0  0.05964  0.23527  0.33225  1.0000
  H   H4        1.0  0.18326  0.40235  0.38951  1.0000
  H   H5        1.0  0.02816  0.18002  0.34492  1.0000
  C   C5        1.0  0.29296  0.05475  0.23191  1.0000
  S   S4        1.0  0.04602  0.34196  0.32764  1.0000
  S   S5        1.0  0.06851  0.32085  0.38968  1.0000
  C   C6        1.0  0.08427  0.40452  0.47221  1.0000
  C   C7        1.0  0.03902  0.12244  0.37654  1.0000
  C   C8        1.0  0.18940  0.47379  0.41489  1.0000
  C   C9        1.0  0.10883  0.13001  0.35518  1.0000
  C   C10       1.0  0.11104  0.16080  0.37267  1.0000
  C   C11       1.0  0.09615  0.19311  0.36616  1.0000
  C   C12       1.0  0.07882  0.19516  0.34194  1.0000
  C   C13       1.0  0.07639  0.16421  0.32457  1.0000
  C   C14       1.0  0.09119  0.13183  0.33113  1.0000
  H   H6        1.0  0.12456  0.15977  0.39134  1.0000
  H   H7        1.0  0.09834  0.21660  0.37974  1.0000
  H   H8        1.0  0.06308  0.16538  0.30578  1.0000
  H   H9        1.0  0.08918  0.10846  0.31747  1.0000
  C   C15       1.0  0.04276  0.42973  0.45036  1.0000
  Fe  Fe3       1.0  0.13081  0.03206  0.34572  1.0000
  H   H10       1.0  0.20308  0.46460  0.40339  1.0000
  H   H11       1.0  0.05019  0.46870  0.49922  1.0000
  C   C16       1.0  0.17424  0.43895  0.41968  1.0000
  C   C17       1.0  0.21187  0.06458  0.29106  1.0000
  C   C18       1.0  0.06884  0.47256  0.39377  1.0000
  C   C19       1.0  0.09048  0.46126  0.38630  1.0000
  C   C20       1.0  0.11147  0.48504  0.39185  1.0000
  H   H12       1.0  0.05238  0.45500  0.38908  1.0000
  H   H13       1.0  0.12794  0.47722  0.38532  1.0000
  H   H14       1.0  0.22064  0.00964  0.35535  1.0000
  H   H15       1.0  0.21728  0.05622  0.31206  1.0000
  H   H16       1.0  0.05106  0.44841  0.43785  1.0000
  C   C21       1.0  0.22134  0.47108  0.45650  1.0000
  H   H17       1.0  0.19141  0.48759  0.49175  1.0000
  H   H18       1.0  0.05579  0.04690  0.38258  1.0000
  H   H19       1.0  0.24517  0.09646  0.29283  1.0000
  C   C22       1.0  0.03648  0.08992  0.35605  1.0000
  C   C23       1.0  0.29137  0.07425  0.28956  1.0000
  H   H20       1.0  0.32950  0.10521  0.32855  1.0000
  S   S6        1.0  0.13318  0.01726  0.30421  1.0000
  H   H21       1.0  0.23286  0.45598  0.44479  1.0000
  S   S7        1.0  0.02289  0.32543  0.43676  1.0000
  H   H22       1.0  0.01590  0.23877  0.26065  1.0000
  H   H23       1.0  0.14791  0.49004  0.49708  1.0000
  C   C24       1.0  0.09285  0.41438  0.44674  1.0000
  Fe  Fe4       1.0  0.02957  0.32970  0.39546  1.0000
  C   C25       1.0  0.31116  0.10398  0.33391  1.0000
  H   H24       1.0  0.20574  0.01838  0.42364  1.0000
  C   C26       1.0  0.29550  0.07120  0.31991  1.0000
  H   H25       1.0  0.01305  0.31817  0.21344  1.0000
  N   N2        1.0  0.27587  0.04350  0.27355  1.0000
  H   H26       1.0  0.25565  0.03576  0.23294  1.0000
  C   C27       1.0  0.16658  0.41478  0.39473  1.0000
  H   H27       1.0  0.27098  0.04821  0.19159  1.0000
  H   H28       1.0  0.30555  0.04513  0.32692  1.0000
  H   H29       1.0  0.01177  0.47263  0.41248  1.0000
  H   H30       1.0  0.06418  0.49969  0.46059  1.0000
  H   H31       1.0  0.30777  0.07407  0.24251  1.0000
  H   H32       1.0  0.18479  0.42057  0.43529  1.0000
  H   H33       1.0  0.28323  0.10226  0.28366  1.0000
  H   H34       1.0  0.03775  0.10125  0.33662  1.0000
  C   C28       1.0  0.01644  0.26836  0.25433  1.0000
  H   H35       1.0  0.15684  0.44821  0.42502  1.0000
  H   H36       1.0  0.34102  0.02487  0.20715  1.0000
  H   H37       1.0  0.07590  0.07517  0.36766  1.0000
  C   C29       1.0  0.25158  0.03792  0.28167  1.0000
  H   H38       1.0  0.09561  0.48494  0.47572  1.0000
  H   H39       1.0  0.02720  0.49155  0.23975  1.0000
  H   H40       1.0  0.23981  0.01657  0.26884  1.0000
  H   H41       1.0  0.01857  0.07456  0.35341  1.0000
  H   H42       1.0  0.12313  0.40340  0.42781  1.0000
  C   C30       1.0  0.02207  0.17506  0.39679  1.0000
  N   N3        1.0  0.06077  0.42313  0.47649  1.0000
  H   H43       1.0  0.27767  0.07126  0.32628  1.0000
  H   H44       1.0  0.22858  0.08305  0.26012  1.0000
  H   H45       1.0  0.31457  0.10018  0.35557  1.0000
  C   C31       1.0  0.01721  0.44700  0.45131  1.0000
  H   H46       1.0  0.19995  0.08988  0.28959  1.0000
  C   C32       1.0  0.01116  0.16565  0.34783  1.0000
  H   H47       1.0  0.04958  0.21616  0.43939  1.0000
  H   H48       1.0  0.30175  0.06745  0.19449  1.0000
  C   C33       1.0  0.17596  0.48995  0.47392  1.0000
  H   H49       1.0  0.05536  0.13911  0.37396  1.0000
  H   H50       1.0  0.15623  0.43150  0.37787  1.0000
  H   H51       1.0  0.01961  0.43018  0.17455  1.0000
  H   H52       1.0  0.07942  0.40271  0.42920  1.0000
  H   H53       1.0  0.30953  0.01169  0.27514  1.0000
  C   C34       1.0  0.04450  0.20178  0.39771  1.0000
  H   H54       1.0  0.08185  0.37341  0.47112  1.0000
  C   C35       1.0  0.04838  0.39638  0.49188  1.0000
  H   H55       1.0  0.31030  0.07501  0.28544  1.0000
  H   H56       1.0  0.03146  0.40901  0.49646  1.0000
  C   C36       1.0  0.25307  0.46323  0.50010  1.0000
  C   C37       1.0  0.28523  0.06754  0.20331  1.0000
  H   H57       1.0  0.21189  0.44874  0.46518  1.0000
  H   H58       1.0  0.04213  0.21766  0.37918  1.0000
  H   H59       1.0  0.15418  0.39162  0.39807  1.0000
  H   H60       1.0  0.03897  0.40281  0.43912  1.0000
  H   H61       1.0  0.13292  0.40986  0.46302  1.0000
  H   H62       1.0  0.30120  0.13088  0.32873  1.0000
  C   C38       1.0  0.05738  0.06133  0.36426  1.0000
  H   H63       1.0  0.04186  0.37097  0.47976  1.0000
  H   H64       1.0  0.06229  0.18613  0.40127  1.0000
  H   H65       1.0  0.11782  0.36654  0.44917  1.0000
  S   S8        1.0  0.02335  0.38409  0.37369  1.0000
  H   H66       1.0  0.09423  0.44493  0.44413  1.0000
  H   H67       1.0  0.06331  0.24882  0.42064  1.0000
  H   H68       1.0  0.27763  0.09644  0.20220  1.0000
  H   H69       1.0  0.17555  0.49150  0.40147  1.0000
  H   H70       1.0  0.02571  0.16002  0.41594  1.0000
  H   H71       1.0  0.20073  0.04158  0.27943  1.0000
  H   H72       1.0  0.26211  0.08298  0.24241  1.0000
  H   H73       1.0  0.17033  0.46124  0.46701  1.0000
  H   H74       1.0  0.25499  0.02610  0.30183  1.0000
  H   H75       1.0  0.01860  0.37649  0.20355  1.0000
  H   H76       1.0  0.34192  0.18192  0.45268  1.0000
  C   C39       1.0  0.23977  0.49115  0.47956  1.0000
  C   C40       1.0  0.07712  0.49190  0.47933  1.0000
  C   C41       1.0  0.23502  0.07321  0.28068  1.0000
  H   H77       1.0  0.01491  0.28671  0.27122  1.0000
  H   H78       1.0  0.30115  0.02641  0.23175  1.0000
  C   C42       1.0  0.29042  0.00747  0.27807  1.0000
  H   H79       1.0  0.26322  0.44205  0.49093  1.0000
  H   H80       1.0  0.03003  0.24825  0.41702  1.0000
  S   S9        1.0  0.01212  0.29440  0.36024  1.0000
  N   N4        1.0  0.01630  0.14697  0.37435  1.0000
  H   H81       1.0  0.03471  0.27357  0.24940  1.0000
  H   H82       1.0  0.05620  0.03996  0.34843  1.0000
  H   H83       1.0  0.01974  0.47419  0.46206  1.0000
  H   H84       1.0  0.27508  0.03887  0.00703  1.0000
  H   H85       1.0  0.21832  0.08276  0.96480  1.0000
  H   H86       1.0  0.16466  0.30024  0.84866  1.0000
  S   S10       1.0  0.08115  0.44979  0.82214  1.0000
  H   H87       1.0  0.23951  0.44895  0.50953  1.0000
  H   H88       1.0  0.12350  0.37826  0.77259  1.0000
  H   H89       1.0  0.01501  0.04035  0.92920  1.0000
  S   S11       1.0  0.05651  0.19764  0.83164  1.0000
  H   H90       1.0  0.01449  0.21049  0.71330  1.0000
  H   H91       1.0  0.14666  0.05634  0.95405  1.0000
  S   S12       1.0  0.06526  0.18723  0.89542  1.0000
  Fe  Fe5       1.0  0.05556  0.23500  0.86647  1.0000
  S   S13       1.0  0.07826  0.28982  0.87702  1.0000
  Fe  Fe6       1.0  0.06322  0.14961  0.86045  1.0000
  S   S14       1.0  0.09104  0.10233  0.86033  1.0000
  H   H92       1.0  0.24264  0.35481  0.84425  1.0000
  C   C43       1.0  0.06459  0.38319  0.51871  1.0000
  C   C44       1.0  0.08104  0.40532  0.83761  1.0000
  C   C45       1.0  0.06460  0.37714  0.82475  1.0000
  C   C46       1.0  0.06340  0.34172  0.83639  1.0000
  C   C47       1.0  0.07839  0.33415  0.86133  1.0000
  C   C48       1.0  0.09446  0.36264  0.87441  1.0000
  C   C49       1.0  0.09596  0.39784  0.86261  1.0000
  H   H93       1.0  0.05273  0.38264  0.80556  1.0000
  H   H94       1.0  0.05083  0.32031  0.82609  1.0000
  H   H95       1.0  0.10585  0.35731  0.89387  1.0000
  H   H96       1.0  0.10844  0.41923  0.87297  1.0000
  C   C50       1.0  0.16025  0.35282  0.86973  1.0000
  C   C51       1.0  0.22105  0.05391  0.95758  1.0000
  H   H97       1.0  0.05615  0.12506  0.80269  1.0000
  H   H98       1.0  0.17855  0.43751  0.85038  1.0000
  H   H99       1.0  0.18804  0.34242  0.82867  1.0000
  C   C52       1.0  0.18104  0.06228  0.92641  1.0000
  C   C53       1.0  0.19207  0.07212  0.90251  1.0000
  C   C54       1.0  0.07486  0.06451  0.89934  1.0000
  C   C55       1.0  0.09161  0.06539  0.88295  1.0000
  C   C56       1.0  0.10840  0.03552  0.88377  1.0000
  H   H100      1.0  0.06194  0.08739  0.89906  1.0000
  H   H101      1.0  0.18871  0.05194  0.98384  1.0000
  H   H102      1.0  0.17023  0.12319  0.89260  1.0000
  H   H103      1.0  0.01254  0.03095  0.75599  1.0000
  H   H104      1.0  0.15750  0.43380  0.80993  1.0000
  H   H105      1.0  0.05278  0.05854  0.76424  1.0000
  H   H106      1.0  0.17557  0.34893  0.88760  1.0000
  C   C57       1.0  0.14899  0.28705  0.88167  1.0000
  C   C58       1.0  0.15143  0.31306  0.85925  1.0000
  H   H107      1.0  0.24281  0.46924  0.81277  1.0000
  H   H108      1.0  0.14471  0.36567  0.87698  1.0000
  C   C59       1.0  0.10788  0.00450  0.90024  1.0000
  H   H109      1.0  0.24527  0.39498  0.82434  1.0000
  H   H110      1.0  0.03295  0.36162  0.53284  1.0000
  C   C60       1.0  0.08389  0.48952  0.89650  1.0000
  H   H111      1.0  0.20977  0.08808  0.90886  1.0000
  H   H112      1.0  0.06293  0.34381  0.54979  1.0000
  C   C61       1.0  0.18892  0.41955  0.89105  1.0000
  C   C62       1.0  0.12691  0.47317  0.92352  1.0000
  S   S15       1.0  0.02260  0.13653  0.85523  1.0000
  C   C63       1.0  0.01607  0.44825  0.84118  1.0000
  C   C64       1.0  0.03680  0.00662  0.85089  1.0000
  C   C65       1.0  0.07449  0.03371  0.91590  1.0000
  H   H113      1.0  0.21942  0.41045  0.85509  1.0000
  C   C66       1.0  0.23215  0.37348  0.82863  1.0000
  C   C67       1.0  0.17409  0.09670  0.88297  1.0000
  H   H114      1.0  0.16195  0.05131  0.91813  1.0000
  C   C68       1.0  0.24792  0.49289  0.82603  1.0000
  H   H115      1.0  0.14433  0.35140  0.81676  1.0000
  H   H116      1.0  0.20558  0.40152  0.89279  1.0000
  N   N5        1.0  0.19605  0.03556  0.94620  1.0000
  H   H117      1.0  0.06801  0.40677  0.53312  1.0000
  H   H118      1.0  0.12050  0.44493  0.92801  1.0000
  H   H119      1.0  0.03138  0.11631  0.77373  1.0000
  H   H120      1.0  0.08286  0.37208  0.51680  1.0000
  Fe  Fe7       1.0  0.10800  0.50012  0.82670  1.0000
  H   H121      1.0  0.12138  0.03597  0.87112  1.0000
  C   C69       1.0  0.12901  0.40666  0.78080  1.0000
  H   H122      1.0  0.20868  0.47050  0.88466  1.0000
  H   H123      1.0  0.20168  0.41197  0.82196  1.0000
  H   H124      1.0  0.24383  0.00500  0.97388  1.0000
  H   H125      1.0  0.18245  0.10382  0.86620  1.0000
  C   C70       1.0  0.03531  0.45915  0.86626  1.0000
  H   H126      1.0  0.18173  0.47831  0.89827  1.0000
  H   H127      1.0  0.30251  0.42405  0.72956  1.0000
  H   H128      1.0  0.08115  0.45312  0.51098  1.0000
  C   C71       1.0  0.17163  0.41728  0.86296  1.0000
  C   C72       1.0  0.19783  0.45962  0.89852  1.0000
  C   C73       1.0  0.05148  0.11199  0.78277  1.0000
  H   H129      1.0  0.20347  0.34816  0.86208  1.0000
  H   H130      1.0  0.17860  0.40980  0.90572  1.0000
  H   H131      1.0  0.12384  0.01953  0.98096  1.0000
  H   H132      1.0  0.07812  0.06778  0.79231  1.0000
  H   H133      1.0  0.14133  0.25952  0.87344  1.0000
  H   H134      1.0  0.08516  0.00669  0.80175  1.0000
  H   H135      1.0  0.31989  0.46595  0.72588  1.0000
  H   H136      1.0  0.06132  0.03335  0.92831  1.0000
  H   H137      1.0  0.17826  0.08910  0.93644  1.0000
  H   H138      1.0  0.15617  0.08177  0.87506  1.0000
  H   H139      1.0  0.13021  0.38877  0.83064  1.0000
  H   H140      1.0  0.21008  0.46012  0.91867  1.0000
  H   H141      1.0  0.05023  0.06327  0.82268  1.0000
  H   H142      1.0  0.27285  0.05919  0.97516  1.0000
  H   H143      1.0  0.15314  0.42864  0.86433  1.0000
  C   C74       1.0  0.33911  0.42807  0.75668  1.0000
  C   C75       1.0  0.23858  0.03278  0.98054  1.0000
  H   H144      1.0  0.19558  0.04645  0.89183  1.0000
  N   N6        1.0  0.16856  0.37869  0.85055  1.0000
  C   C76       1.0  0.31539  0.44592  0.74031  1.0000
  C   C77       1.0  0.05140  0.35203  0.53026  1.0000
  Fe  Fe8       1.0  0.02398  0.17686  0.88881  1.0000
  H   H145      1.0  0.01032  0.41858  0.84244  1.0000
  C   C78       1.0  0.05766  0.07025  0.78452  1.0000
  S   S16       1.0  0.01418  0.22743  0.86294  1.0000
  H   H146      1.0  0.13271  0.42459  0.76481  1.0000
  H   H147      1.0  0.25874  0.08236  0.99911  1.0000
  H   H148      1.0  0.13597  0.29907  0.89289  1.0000
  H   H149      1.0  0.14661  0.00682  0.94751  1.0000
  H   H150      1.0  0.06256  0.12623  0.77041  1.0000
  H   H151      1.0  0.13435  0.47123  0.90554  1.0000
  C   C79       1.0  0.04351  0.05005  0.80291  1.0000
  S   S17       1.0  0.19819  0.49564  0.82581  1.0000
  H   H152      1.0  0.22481  0.35685  0.81039  1.0000
  H   H153      1.0  0.16738  0.39265  0.79472  1.0000
  H   H154      1.0  0.23187  0.05726  0.94222  1.0000
  C   C80       1.0  0.18331  0.02935  0.96865  1.0000
  H   H155      1.0  0.30577  0.46157  0.75352  1.0000
  C   C81       1.0  0.14796  0.37978  0.82577  1.0000
  C   C82       1.0  0.15433  0.02895  0.96202  1.0000
  C   C83       1.0  0.21088  0.39281  0.83772  1.0000
  H   H156      1.0  0.33307  0.40836  0.77031  1.0000
  C   C84       1.0  0.19245  0.36369  0.84484  1.0000
  H   H157      1.0  0.04868  0.32695  0.51711  1.0000
  H   H158      1.0  0.02663  0.45548  0.88325  1.0000
  H   H159      1.0  0.13266  0.31453  0.84566  1.0000
  Fe  Fe9       1.0  0.01570  0.18726  0.82968  1.0000
  C   C85       1.0  0.15242  0.40476  0.80319  1.0000
  H   H160      1.0  0.11328  0.41908  0.78789  1.0000
  H   H161      1.0  0.16745  0.28243  0.89526  1.0000
  H   H162      1.0  0.17749  0.49929  0.76947  1.0000
  H   H163      1.0  0.01979  0.48185  0.65526  1.0000
  H   H164      1.0  0.09190  0.48537  0.87891  1.0000
  C   C86       1.0  0.04458  0.50009  0.86487  1.0000
  H   H165      1.0  0.04898  0.48884  0.92132  1.0000
  C   C87       1.0  0.26273  0.05480  0.99098  1.0000
  H   H166      1.0  0.08144  0.01808  0.83342  1.0000
  C   C88       1.0  0.09076  0.00340  0.91626  1.0000
  C   C89       1.0  0.14449  0.02236  0.98666  1.0000
  H   H167      1.0  0.22969  0.02853  0.99730  1.0000
  H   H168      1.0  0.04336  0.02175  0.97015  1.0000
  C   C90       1.0  0.10551  0.50133  0.91979  1.0000
  H   H169      1.0  0.26685  0.47831  0.51568  1.0000
  H   H170      1.0  0.17720  0.50051  0.73476  1.0000
  H   H171      1.0  0.05088  0.43903  0.86814  1.0000
  H   H172      1.0  0.03234  0.03681  0.85218  1.0000
  H   H173      1.0  0.14229  0.48236  0.94017  1.0000
  H   H174      1.0  0.05304  0.48351  0.74045  1.0000
  H   H175      1.0  0.02344  0.05750  0.79693  1.0000
  H   H176      1.0  0.28708  0.49019  0.82560  1.0000
  N   N7        1.0  0.04667  0.00812  0.80467  1.0000
  H   H177      1.0  0.02424  0.45092  0.82370  1.0000
  H   H178      1.0  0.07803  0.46130  0.90172  1.0000
  H   H179      1.0  0.05380  0.50171  0.84800  1.0000
  H   H180      1.0  0.09909  0.50156  0.93838  1.0000
  H   H181      1.0  0.34154  0.38626  0.72704  1.0000
  H   H182      1.0  0.00905  0.50163  0.72188  1.0000
  H   H183      1.0  0.14936  0.04639  0.00058  1.0000
  Fe  Fe10      1.0  0.13968  0.69151  0.43164  1.0000
  S   S18       1.0  0.16609  0.69637  0.47142  1.0000
  S   S19       1.0  0.13807  0.73138  0.39696  1.0000
  Fe  Fe11      1.0  0.11958  0.61481  0.44510  1.0000
  S   S20       1.0  0.14474  0.61432  0.48585  1.0000
  S   S21       1.0  0.08882  0.57090  0.43266  1.0000
  Fe  Fe12      1.0  0.13390  0.67495  0.48741  1.0000
  Fe  Fe13      1.0  0.17486  0.63534  0.46672  1.0000
  S   S22       1.0  0.21501  0.61542  0.47009  1.0000
  S   S23       1.0  0.10690  0.67444  0.44793  1.0000
  S   S24       1.0  0.15021  0.63147  0.42564  1.0000
  H   H184      1.0  0.14621  0.92339  0.14885  1.0000
  C   C91       1.0  0.07002  0.84906  0.33789  1.0000
  C   C92       1.0  0.06481  0.93507  0.13092  1.0000
  Fe  Fe14      1.0  0.13613  0.94841  0.36279  1.0000
  S   S25       1.0  0.13811  0.92836  0.32263  1.0000
  S   S26       1.0  0.13846  0.91038  0.39819  1.0000
  Fe  Fe15      1.0  0.10731  0.96921  0.30741  1.0000
  S   S27       1.0  0.07032  0.95583  0.27876  1.0000
  Fe  Fe16      1.0  0.16405  0.97752  0.32310  1.0000
  H   H185      1.0  0.23559  0.98248  0.04945  1.0000
  H   H186      1.0  0.26258  0.92235  0.42224  1.0000
  H   H187      1.0  0.18211  0.91179  0.11538  1.0000
  H   H188      1.0  0.29350  0.99895  0.29894  1.0000
  C   C93       1.0  0.26703  0.96627  0.03392  1.0000
  C   C94       1.0  0.26059  0.00198  0.36230  1.0000
  C   C95       1.0  0.13361  0.83574  0.28472  1.0000
  H   H189      1.0  0.05498  0.78070  0.35186  1.0000
  H   H190      1.0  0.14588  0.81517  0.27790  1.0000
  H   H191      1.0  0.08099  0.90824  0.37524  1.0000
  C   C96       1.0  0.24963  0.95203  0.31984  1.0000
  C   C97       1.0  0.27463  0.95886  0.33299  1.0000
  H   H192      1.0  0.24550  0.93260  0.30338  1.0000
  H   H193      1.0  0.28958  0.94429  0.32698  1.0000
  C   C98       1.0  0.05747  0.87778  0.20639  1.0000
  C   C99       1.0  0.03766  0.89758  0.21245  1.0000
  C   C100      1.0  0.04193  0.92149  0.23465  1.0000
  C   C101      1.0  0.06606  0.92638  0.25064  1.0000
  C   C102      1.0  0.08594  0.90725  0.24422  1.0000
  C   C103      1.0  0.08160  0.88268  0.22238  1.0000
  C   C104      1.0  0.29588  0.93956  0.26528  1.0000
  H   H194      1.0  0.02645  0.93631  0.23947  1.0000
  H   H195      1.0  0.10459  0.91137  0.25621  1.0000
  H   H196      1.0  0.09698  0.86735  0.21789  1.0000
  C   C105      1.0  0.03912  0.82290  0.04463  1.0000
  C   C106      1.0  0.05605  0.84384  0.06341  1.0000
  C   C107      1.0  0.07923  0.85418  0.05862  1.0000
  C   C108      1.0  0.08586  0.84354  0.03526  1.0000
  H   H197      1.0  0.21154  0.96928  0.39253  1.0000
  C   C109      1.0  0.28029  0.98454  0.35391  1.0000
  H   H198      1.0  0.05134  0.85151  0.08173  1.0000
  H   H199      1.0  0.09219  0.87051  0.07298  1.0000
  H   H200      1.0  0.10631  0.99182  0.04335  1.0000
  S   S28       1.0  0.01315  0.78325  0.12612  1.0000
  H   H201      1.0  0.04753  0.81820  0.49713  1.0000
  H   H202      1.0  0.11030  0.85548  0.32460  1.0000
  H   H203      1.0  0.19332  0.54015  0.39008  1.0000
  H   H204      1.0  0.04071  0.53784  0.24343  1.0000
  H   H205      1.0  0.10290  0.79745  0.27951  1.0000
  C   C110      1.0  0.13852  0.78114  0.39806  1.0000
  C   C111      1.0  0.14194  0.80091  0.37593  1.0000
  C   C112      1.0  0.14177  0.84041  0.37561  1.0000
  C   C113      1.0  0.13820  0.86064  0.39746  1.0000
  C   C114      1.0  0.13511  0.84093  0.41973  1.0000
  C   C115      1.0  0.13520  0.80139  0.42004  1.0000
  H   H206      1.0  0.14500  0.78547  0.35907  1.0000
  H   H207      1.0  0.14507  0.85527  0.35881  1.0000
  H   H208      1.0  0.13260  0.85632  0.43686  1.0000
  H   H209      1.0  0.13267  0.78658  0.43725  1.0000
  H   H210      1.0  0.04894  0.85915  0.28613  1.0000
  H   H211      1.0  0.07055  0.95983  0.14397  1.0000
  C   C116      1.0  0.27310  0.87787  0.40000  1.0000
  C   C117      1.0  0.16303  0.92040  0.10498  1.0000
  H   H212      1.0  0.24111  0.85949  0.43824  1.0000
  C   C118      1.0  0.11395  0.81506  0.29559  1.0000
  N   N8        1.0  0.12455  0.87309  0.15113  1.0000
  C   C119      1.0  0.11572  0.83923  0.13384  1.0000
  C   C120      1.0  0.14497  0.89374  0.14178  1.0000
  C   C121      1.0  0.13563  0.85881  0.17854  1.0000
  C   C122      1.0  0.10348  0.89914  0.15285  1.0000
  C   C123      1.0  0.08768  0.91408  0.12655  1.0000
  C   C124      1.0  0.09339  0.81696  0.13967  1.0000
  C   C125      1.0  0.14724  0.88898  0.19951  1.0000
  C   C126      1.0  0.14348  0.89413  0.11167  1.0000
  H   H213      1.0  0.07930  0.93633  0.04244  1.0000
  H   H214      1.0  0.13247  0.90723  0.20405  1.0000
  H   H215      1.0  0.02196  0.83874  0.24265  1.0000
  C   C127      1.0  0.16063  0.87074  0.22530  1.0000
  H   H216      1.0  0.13152  0.81948  0.13467  1.0000
  H   H217      1.0  0.10964  0.84702  0.11292  1.0000
  C   C128      1.0  0.06852  0.50666  0.40741  1.0000
  H   H218      1.0  0.16356  0.88132  0.15058  1.0000
  H   H219      1.0  0.15024  0.83748  0.17788  1.0000
  H   H220      1.0  0.12129  0.84421  0.18669  1.0000
  H   H221      1.0  0.09073  0.88545  0.16361  1.0000
  H   H222      1.0  0.11065  0.92441  0.16485  1.0000
  H   H223      1.0  0.08088  0.89113  0.11236  1.0000
  H   H224      1.0  0.09878  0.93419  0.11781  1.0000
  H   H225      1.0  0.09718  0.80690  0.16021  1.0000
  H   H226      1.0  0.07644  0.83464  0.13596  1.0000
  H   H227      1.0  0.16181  0.91921  0.08343  1.0000
  H   H228      1.0  0.31095  0.87427  0.39455  1.0000
  H   H229      1.0  0.14708  0.86560  0.10469  1.0000
  H   H230      1.0  0.12504  0.90327  0.10025  1.0000
  H   H231      1.0  0.02882  0.95612  0.03260  1.0000
  C   C129      1.0  0.03055  0.51698  0.22890  1.0000
  C   C130      1.0  0.19710  0.85927  0.33289  1.0000
  C   C131      1.0  0.21727  0.52689  0.42920  1.0000
  H   H232      1.0  0.05713  0.77747  0.27096  1.0000
  H   H233      1.0  0.23290  0.57371  0.39284  1.0000
  H   H234      1.0  0.05066  0.71248  0.34939  1.0000
  C   C132      1.0  0.27838  0.97323  0.26122  1.0000
  H   H235      1.0  0.16101  0.90691  0.19284  1.0000
  H   H236      1.0  0.06717  0.77807  0.46919  1.0000
  C   C133      1.0  0.08413  0.94460  0.02379  1.0000
  H   H237      1.0  0.20688  0.60553  0.38833  1.0000
  H   H238      1.0  0.09191  0.86624  0.29316  1.0000
  H   H239      1.0  0.05337  0.94479  0.11174  1.0000
  H   H240      1.0  0.20998  0.92056  0.36736  1.0000
  H   H241      1.0  0.19637  0.91606  0.41821  1.0000
  C   C134      1.0  0.22998  0.97051  0.32762  1.0000
  H   H242      1.0  0.30084  0.93136  0.28629  1.0000
  H   H243      1.0  0.22542  0.91891  0.44173  1.0000
  H   H244      1.0  0.14533  0.85380  0.30014  1.0000
  H   H245      1.0  0.15974  0.94976  0.11049  1.0000
  C   C135      1.0  0.05197  0.82947  0.29243  1.0000
  C   C136      1.0  0.06743  0.89211  0.33399  1.0000
  H   H246      1.0  0.10336  0.76288  0.12525  1.0000
  S   S29       1.0  0.19910  0.96406  0.30862  1.0000
  H   H247      1.0  0.12455  0.85325  0.26780  1.0000
  C   C137      1.0  0.23791  0.59406  0.49544  1.0000
  C   C138      1.0  0.10856  0.96661  0.03152  1.0000
  H   H248      1.0  0.08268  0.79068  0.10067  1.0000
  C   C139      1.0  0.06581  0.72620  0.34203  1.0000
  H   H249      1.0  0.08417  0.90455  0.32896  1.0000
  H   H250      1.0  0.08438  0.64961  0.50062  1.0000
  H   H251      1.0  0.01292  0.79465  0.25472  1.0000
  S   S30       1.0  0.28843  0.99403  0.05726  1.0000
  H   H252      1.0  0.25249  0.92921  0.38769  1.0000
  C   C140      1.0  0.20393  0.83914  0.41985  1.0000
  C   C141      1.0  0.20789  0.80215  0.43481  1.0000
  C   C142      1.0  0.04850  0.78766  0.50107  1.0000
  H   H253      1.0  0.08310  0.72575  0.35806  1.0000
  H   H254      1.0  0.19337  0.85786  0.43033  1.0000
  C   C143      1.0  0.15395  0.50803  0.48243  1.0000
  H   H255      1.0  0.18956  0.79005  0.43586  1.0000
  C   C144      1.0  0.01322  0.68338  0.16738  1.0000
  H   H256      1.0  0.21903  0.80669  0.45524  1.0000
  Fe  Fe17      1.0  0.01690  0.83854  0.14799  1.0000
  H   H257      1.0  0.32555  0.81755  0.04755  1.0000
  H   H258      1.0  0.01068  0.60973  0.15758  1.0000
  H   H259      1.0  0.07094  0.76759  0.12587  1.0000
  H   H260      1.0  0.06894  0.70978  0.32493  1.0000
  H   H261      1.0  0.19236  0.83287  0.39991  1.0000
  C   C145      1.0  0.08733  0.78247  0.12172  1.0000
  C   C146      1.0  0.22918  0.85682  0.41789  1.0000
  H   H262      1.0  0.27380  0.97947  0.23989  1.0000
  H   H263      1.0  0.23846  0.83539  0.40808  1.0000
  H   H264      1.0  0.18695  0.56781  0.41685  1.0000
  S   S31       1.0  0.05298  0.84602  0.17949  1.0000
  H   H265      1.0  0.16752  0.89277  0.24044  1.0000
  H   H266      1.0  0.03011  0.67348  0.16122  1.0000
  H   H267      1.0  0.12401  0.79615  0.31129  1.0000
  S   S32       1.0  0.11647  0.85353  0.03198  1.0000
  H   H268      1.0  0.08532  0.84425  0.35576  1.0000
  H   H269      1.0  0.08814  0.78411  0.50105  1.0000
  C   C147      1.0  0.05851  0.76654  0.33410  1.0000
  H   H270      1.0  0.03110  0.77431  0.48969  1.0000
  H   H271      1.0  0.06675  0.82019  0.25748  1.0000
  C   C148      1.0  0.24157  0.96644  0.03438  1.0000
  H   H272      1.0  0.22781  0.60153  0.42018  1.0000
  H   H273      1.0  0.04096  0.76558  0.31856  1.0000
  C   C149      1.0  0.21883  0.96403  0.41374  1.0000
  H   H274      1.0  0.20438  0.94622  0.01627  1.0000
  H   H275      1.0  0.19227  0.54017  0.46305  1.0000
  H   H276      1.0  0.18098  0.84544  0.33838  1.0000
  S   S33       1.0  0.16365  0.99547  0.36420  1.0000
  H   H277      1.0  0.22301  0.83687  0.36594  1.0000
  C   C150      1.0  0.09740  0.84266  0.30718  1.0000
  H   H278      1.0  0.05092  0.89904  0.31813  1.0000
  H   H279      1.0  0.02454  0.56373  0.18848  1.0000
  C   C151      1.0  0.04521  0.81375  0.02062  1.0000
  C   C152      1.0  0.21663  0.92192  0.42034  1.0000
  N   N9        1.0  0.07469  0.82645  0.31489  1.0000
  H   H280      1.0  0.00899  0.89210  0.05231  1.0000
  C   C153      1.0  0.21847  0.58562  0.40222  1.0000
  H   H281      1.0  0.29245  0.91021  0.37556  1.0000
  H   H282      1.0  0.17685  0.85420  0.22241  1.0000
  H   H283      1.0  0.33370  0.84811  0.07591  1.0000
  C   C154      1.0  0.06393  0.91133  0.35916  1.0000
  H   H284      1.0  0.01900  0.89399  0.20032  1.0000
  S   S34       1.0  0.10340  0.98621  0.34792  1.0000
  H   H285      1.0  0.26576  0.85816  0.38358  1.0000
  C   C155      1.0  0.07957  0.78652  0.32415  1.0000
  H   H286      1.0  0.06258  0.53626  0.50063  1.0000
  H   H287      1.0  0.05308  0.91639  0.14006  1.0000
  C   C156      1.0  0.05271  0.80743  0.26700  1.0000
  H   H288      1.0  0.09662  0.78569  0.34052  1.0000
  C   C157      1.0  0.20189  0.55450  0.40892  1.0000
  H   H289      1.0  0.08371  0.76825  0.30847  1.0000
  H   H290      1.0  0.30461  0.91691  0.41054  1.0000
  C   C158      1.0  0.08982  0.52971  0.41386  1.0000
  H   H291      1.0  0.22714  0.54472  0.44601  1.0000
  H   H292      1.0  0.12746  0.53711  0.40992  1.0000
  H   H293      1.0  0.05169  0.51523  0.41307  1.0000
  N   N10       1.0  0.22777  0.89422  0.40422  1.0000
  H   H294      1.0  0.05246  0.83988  0.34299  1.0000
  C   C159      1.0  0.06853  0.82398  0.01594  1.0000
  H   H295      1.0  0.08876  0.54983  0.48761  1.0000
  H   H296      1.0  0.04772  0.89925  0.36553  1.0000
  H   H297      1.0  0.20344  0.84113  0.31837  1.0000
  H   H298      1.0  0.12327  0.94854  0.04343  1.0000
  H   H299      1.0  0.23211  0.51468  0.42039  1.0000
  H   H300      1.0  0.19108  0.88654  0.32347  1.0000
  H   H301      1.0  0.08758  0.91910  0.01295  1.0000
  H   H302      1.0  0.19129  0.88685  0.37798  1.0000
  C   C160      1.0  0.02759  0.80919  0.24706  1.0000
  C   C161      1.0  0.21091  0.89272  0.37693  1.0000
  H   H303      1.0  0.23852  0.97374  0.41905  1.0000
  H   H304      1.0  0.06042  0.94166  0.35552  1.0000
  C   C162      1.0  0.08073  0.52667  0.49717  1.0000
  C   C163      1.0  0.11123  0.51903  0.40571  1.0000
  C   C164      1.0  0.21833  0.86487  0.35726  1.0000
  C   C165      1.0  0.25366  0.90784  0.40341  1.0000
  H   H305      1.0  0.04283  0.91199  0.02917  1.0000
  H   H306      1.0  0.23457  0.87629  0.35055  1.0000
  H   H307      1.0  0.03484  0.82135  0.29891  1.0000
  H   H308      1.0  0.06010  0.99336  0.01817  1.0000
  H   H309      1.0  0.21750  0.78155  0.42458  1.0000
  C   C166      1.0  0.29667  0.89605  0.39490  1.0000
  H   H310      1.0  0.18417  0.98053  0.42413  1.0000
  H   H311      1.0  0.22999  0.51179  0.48946  1.0000
  S   S35       1.0  0.31155  0.99517  0.37034  1.0000
  H   H312      1.0  0.27879  0.86131  0.41836  1.0000
  H   H313      1.0  0.26675  0.60040  0.47404  1.0000
  C   C167      1.0  0.26225  0.58962  0.49170  1.0000
  C   C168      1.0  0.23556  0.99506  0.34922  1.0000
  H   H314      1.0  0.29397  0.94553  0.01345  1.0000
  C   C169      1.0  0.27451  0.94562  0.01423  1.0000
  Fe  Fe18      1.0  0.33095  0.98791  0.06758  1.0000
  H   H315      1.0  0.14769  0.85203  0.23269  1.0000
  H   H316      1.0  0.01762  0.58981  0.21462  1.0000
  C   C170      1.0  0.07002  0.77171  0.49047  1.0000
  H   H317      1.0  0.16744  0.52288  0.43807  1.0000
  H   H318      1.0  0.07098  0.74076  0.49279  1.0000
  C   C171      1.0  0.22383  0.94597  0.01555  1.0000
  H   H319      1.0  0.02908  0.79531  0.22836  1.0000
  C   C172      1.0  0.02960  0.93301  0.01829  1.0000
  C   C173      1.0  0.20424  0.98854  0.42902  1.0000
  H   H320      1.0  0.31322  0.94611  0.25878  1.0000
  H   H321      1.0  0.15958  0.53575  0.49173  1.0000
  S   S36       1.0  0.01037  0.80769  0.05060  1.0000
  H   H322      1.0  0.21182  0.98569  0.45056  1.0000
  H   H323      1.0  0.25436  0.50628  0.47211  1.0000
  C   C174      1.0  0.00950  0.56896  0.19905  1.0000
  H   H324      1.0  0.11468  0.97535  0.01368  1.0000
  C   C175      1.0  0.18440  0.51381  0.45274  1.0000
  H   H325      1.0  0.28657  0.91534  0.25348  1.0000
  H   H326      1.0  0.01808  0.70933  0.17939  1.0000
  H   H327      1.0  0.01910  0.64711  0.20073  1.0000
  H   H328      1.0  0.13788  0.51168  0.46529  1.0000
  H   H329      1.0  0.04229  0.50898  0.21510  1.0000
  H   H330      1.0  0.26099  0.96453  0.26681  1.0000
  C   C176      1.0  0.34069  0.83514  0.05960  1.0000
  H   H331      1.0  0.26486  0.80393  0.00976  1.0000
  C   C177      1.0  0.06318  0.96835  0.00638  1.0000
  H   H332      1.0  0.11179  0.92276  0.83955  1.0000
  H   H333      1.0  0.15247  0.99642  0.99674  1.0000
  C   C178      1.0  0.21542  0.63526  0.82984  1.0000
  S   S37       1.0  0.13063  0.50585  0.79645  1.0000
  S   S38       1.0  0.09823  0.85877  0.95299  1.0000
  Fe  Fe19      1.0  0.16862  0.88818  0.96842  1.0000
  S   S39       1.0  0.14335  0.88939  0.92781  1.0000
  S   S40       1.0  0.20977  0.90053  0.97084  1.0000
  Fe  Fe20      1.0  0.11464  0.91497  0.94666  1.0000
  S   S41       1.0  0.08810  0.96431  0.93618  1.0000
  Fe  Fe21      1.0  0.12950  0.83274  0.93749  1.0000
  S   S42       1.0  0.12797  0.78998  0.90388  1.0000
  C   C179      1.0  0.18296  0.55496  0.75463  1.0000
  S   S43       1.0  0.15611  0.83066  0.97738  1.0000
  S   S44       1.0  0.14038  0.51565  0.85990  1.0000
  H   H334      1.0  0.23082  0.62186  0.84434  1.0000
  Fe  Fe22      1.0  0.12776  0.57585  0.85202  1.0000
  S   S45       1.0  0.15222  0.58607  0.82359  1.0000
  S   S46       1.0  0.12572  0.61111  0.88843  1.0000
  Fe  Fe23      1.0  0.16238  0.52519  0.82910  1.0000
  H   H335      1.0  0.09378  0.52084  0.51635  1.0000
  Fe  Fe24      1.0  0.11904  0.56590  0.79256  1.0000
  S   S47       1.0  0.11251  0.58780  0.75079  1.0000
  C   C180      1.0  0.07990  0.95840  0.82449  1.0000
  S   S48       1.0  0.09368  0.55954  0.82038  1.0000
  H   H336      1.0  0.20489  0.58385  0.71161  1.0000
  H   H337      1.0  0.27688  0.56999  0.79571  1.0000
  S   S49       1.0  0.31114  0.55139  0.86002  1.0000
  C   C181      1.0  0.17156  0.51563  0.75111  1.0000
  C   C182      1.0  0.03895  0.64009  0.70592  1.0000
  C   C183      1.0  0.04172  0.62872  0.73215  1.0000
  C   C184      1.0  0.06416  0.61276  0.74616  1.0000
  C   C185      1.0  0.08402  0.60792  0.73399  1.0000
  C   C186      1.0  0.08121  0.61910  0.70769  1.0000
  C   C187      1.0  0.05878  0.63521  0.69371  1.0000
  H   H338      1.0  0.02646  0.63251  0.74174  1.0000
  H   H339      1.0  0.06613  0.60439  0.76641  1.0000
  H   H340      1.0  0.09653  0.61553  0.69817  1.0000
  H   H341      1.0  0.05691  0.64413  0.67359  1.0000
  H   H342      1.0  0.20062  0.58468  0.80955  1.0000
  H   H343      1.0  0.03398  0.58087  0.88018  1.0000
  H   H344      1.0  0.04397  0.64065  0.86198  1.0000
  S   S50       1.0  0.01848  0.71585  0.62328  1.0000
  C   C188      1.0  0.12720  0.74012  0.90021  1.0000
  C   C189      1.0  0.12272  0.71607  0.91968  1.0000
  C   C190      1.0  0.12229  0.67681  0.91569  1.0000
  C   C191      1.0  0.12622  0.66095  0.89219  1.0000
  C   C192      1.0  0.13060  0.68499  0.87268  1.0000
  C   C193      1.0  0.13109  0.72424  0.87670  1.0000
  H   H345      1.0  0.11931  0.72772  0.93771  1.0000
  H   H346      1.0  0.11874  0.65859  0.93089  1.0000
  H   H347      1.0  0.13356  0.67338  0.85445  1.0000
  H   H348      1.0  0.13436  0.74246  0.86137  1.0000
  H   H349      1.0  0.11711  0.95766  0.81664  1.0000
  H   H350      1.0  0.04625  0.51711  0.64084  1.0000
  C   C194      1.0  0.21260  0.62049  0.74706  1.0000
  C   C195      1.0  0.04656  0.54636  0.64819  1.0000
  Fe  Fe25      1.0  0.12581  0.86055  0.99211  1.0000
  C   C196      1.0  0.09789  0.68577  0.53410  1.0000
  H   H351      1.0  0.19406  0.66853  0.70534  1.0000
  H   H352      1.0  0.17563  0.56967  0.73582  1.0000
  C   C197      1.0  0.05525  0.66240  0.55122  1.0000
  C   C198      1.0  0.07221  0.68755  0.56656  1.0000
  C   C199      1.0  0.09341  0.69931  0.55794  1.0000
  H   H353      1.0  0.21450  0.00292  0.92125  1.0000
  H   H354      1.0  0.06923  0.69741  0.58521  1.0000
  H   H355      1.0  0.10649  0.71876  0.56984  1.0000
  C   C200      1.0  0.27526  0.55671  0.53332  1.0000
  H   H356      1.0  0.33391  0.60189  0.62984  1.0000
  H   H357      1.0  0.04309  0.55569  0.70082  1.0000
  C   C201      1.0  0.25088  0.56103  0.53701  1.0000
  C   C202      1.0  0.08108  0.66029  0.51897  1.0000
  H   H358      1.0  0.28547  0.53340  0.74509  1.0000
  H   H359      1.0  0.24290  0.62994  0.79523  1.0000
  H   H360      1.0  0.19911  0.63806  0.83883  1.0000
  H   H361      1.0  0.06692  0.75094  0.61925  1.0000
  H   H362      1.0  0.03879  0.95863  0.77984  1.0000
  C   C203      1.0  0.28086  0.57132  0.51056  1.0000
  H   H363      1.0  0.29943  0.56802  0.50733  1.0000
  C   C204      1.0  0.05949  0.62159  0.87085  1.0000
  C   C205      1.0  0.17790  0.97783  0.91709  1.0000
  H   H364      1.0  0.02958  0.90742  0.56247  1.0000
  H   H365      1.0  0.07212  0.56343  0.62432  1.0000
  H   H366      1.0  0.22143  0.66375  0.82542  1.0000
  H   H367      1.0  0.07845  0.78618  0.58335  1.0000
  H   H368      1.0  0.08350  0.55090  0.87006  1.0000
  H   H369      1.0  0.01569  0.99715  0.99583  1.0000
  H   H370      1.0  0.25182  0.72888  0.88632  1.0000
  C   C206      1.0  0.03764  0.77855  0.57166  1.0000
  H   H371      1.0  0.08177  0.79477  0.63094  1.0000
  C   C207      1.0  0.21197  0.55329  0.76152  1.0000
  H   H372      1.0  0.05685  0.75013  0.53450  1.0000
  H   H373      1.0  0.06120  0.82622  0.59044  1.0000
  S   S51       1.0  0.12428  0.70185  0.52346  1.0000
  H   H374      1.0  0.24213  0.58327  0.80657  1.0000
  H   H375      1.0  0.02299  0.84362  0.52188  1.0000
  H   H376      1.0  0.11320  0.52921  0.91659  1.0000
  H   H377      1.0  0.04317  0.87457  0.93176  1.0000
  H   H378      1.0  0.22997  0.76248  0.98474  1.0000
  H   H379      1.0  0.16581  0.99620  0.90257  1.0000
  C   C208      1.0  0.04333  0.91693  0.97732  1.0000
  H   H380      1.0  0.04245  0.57348  0.84928  1.0000
  C   C209      1.0  0.02978  0.83436  0.54261  1.0000
  H   H381      1.0  0.02728  0.95492  0.86834  1.0000
  C   C210      1.0  0.02101  0.90445  0.95481  1.0000
  H   H382      1.0  0.15089  0.51774  0.74625  1.0000
  H   H383      1.0  0.32436  0.64999  0.63086  1.0000
  H   H384      1.0  0.16692  0.96557  0.93025  1.0000
  C   C211      1.0  0.01211  0.85209  0.55859  1.0000
  H   H385      1.0  0.07121  0.97911  0.99012  1.0000
  H   H386      1.0  0.24630  0.54970  0.55447  1.0000
  C   C212      1.0  0.03911  0.98963  0.77784  1.0000
  H   H387      1.0  0.23268  0.68886  0.87371  1.0000
  H   H388      1.0  0.07252  0.93869  0.80799  1.0000
  H   H389      1.0  0.07028  0.79510  0.54047  1.0000
  H   H390      1.0  0.05851  0.92467  0.96747  1.0000
  H   H391      1.0  0.05480  0.60144  0.63418  1.0000
  C   C213      1.0  0.29153  0.54791  0.76443  1.0000
  H   H392      1.0  0.04002  0.74765  0.57210  1.0000
  C   C214      1.0  0.23113  0.60409  0.79299  1.0000
  H   H393      1.0  0.11641  0.97095  0.84999  1.0000
  H   H394      1.0  0.17577  0.56949  0.77011  1.0000
  H   H395      1.0  0.02103  0.72322  0.51450  1.0000
  C   C215      1.0  0.26035  0.82335  0.99281  1.0000
  N   N11       1.0  0.03874  0.94826  0.99527  1.0000
  C   C216      1.0  0.04772  0.51654  0.91139  1.0000
  C   C217      1.0  0.10804  0.95224  0.83317  1.0000
  C   C218      1.0  0.26140  0.55359  0.86032  1.0000
  C   C219      1.0  0.20976  0.61349  0.71711  1.0000
  H   H396      1.0  0.03022  0.96180  0.82140  1.0000
  H   H397      1.0  0.16911  0.84418  0.89629  1.0000
  H   H398      1.0  0.07174  0.95076  0.84129  1.0000
  H   H399      1.0  0.22224  0.55623  0.86079  1.0000
  H   H400      1.0  0.06761  0.63112  0.89137  1.0000
  H   H401      1.0  0.01866  0.84650  0.57996  1.0000
  C   C220      1.0  0.05263  0.78035  0.53102  1.0000
  C   C221      1.0  0.25104  0.58441  0.75811  1.0000
  H   H402      1.0  0.19319  0.62716  0.79097  1.0000
  H   H403      1.0  0.33063  0.53260  0.69411  1.0000
  C   C222      1.0  0.04976  0.58138  0.87031  1.0000
  H   H404      1.0  0.26104  0.61172  0.75846  1.0000
  C   C223      1.0  0.01082  0.89460  0.55531  1.0000
  S   S52       1.0  0.02833  0.64652  0.56092  1.0000
  H   H405      1.0  0.08215  0.56762  0.90121  1.0000
  C   C224      1.0  0.18589  0.94552  0.90150  1.0000
  H   H406      1.0  0.30197  0.57382  0.76196  1.0000
  H   H407      1.0  0.04700  0.62891  0.51568  1.0000
  H   H408      1.0  0.17982  0.81399  0.87337  1.0000
  H   H409      1.0  0.22252  0.64784  0.75189  1.0000
  H   H410      1.0  0.03214  0.84573  0.95521  1.0000
  H   H411      1.0  0.27761  0.83871  0.99165  1.0000
  H   H412      1.0  0.24647  0.84404  0.99637  1.0000
  C   C225      1.0  0.34026  0.63148  0.62976  1.0000
  H   H413      1.0  0.18873  0.63375  0.67937  1.0000
  C   C226      1.0  0.02728  0.86910  0.94100  1.0000
  H   H414      1.0  0.05044  0.89173  0.98914  1.0000
  H   H415      1.0  0.25356  0.68668  0.90577  1.0000
  C   C227      1.0  0.27988  0.53517  0.85043  1.0000
  H   H416      1.0  0.16067  0.68468  0.96366  1.0000
  H   H417      1.0  0.02746  0.51743  0.85923  1.0000
  C   C228      1.0  0.02927  0.00072  0.96033  1.0000
  C   C229      1.0  0.05533  0.54740  0.93299  1.0000
  C   C230      1.0  0.23626  0.54194  0.85296  1.0000
  H   H418      1.0  0.26660  0.57702  0.87378  1.0000
  H   H419      1.0  0.19744  0.92513  0.91501  1.0000
  C   C231      1.0  0.06162  0.79519  0.58998  1.0000
  C   C232      1.0  0.05363  0.57170  0.62752  1.0000
  H   H420      1.0  0.16913  0.93065  0.88993  1.0000
  N   N12       1.0  0.06175  0.51550  0.88967  1.0000
  H   H421      1.0  0.01647  0.54983  0.73005  1.0000
  N   N13       1.0  0.22603  0.59020  0.76485  1.0000
  H   H422      1.0  0.21705  0.53608  0.74567  1.0000
  H   H423      1.0  0.21372  0.58282  0.52144  1.0000
  Fe  Fe26      1.0  0.33987  0.52512  0.56290  1.0000
  C   C233      1.0  0.20819  0.61182  0.80455  1.0000
  H   H424      1.0  0.04929  0.57537  0.92481  1.0000
  H   H425      1.0  0.17110  0.63177  0.70439  1.0000
  N   N14       1.0  0.03181  0.79222  0.54362  1.0000
  H   H426      1.0  0.12030  0.98112  0.90020  1.0000
  H   H427      1.0  0.04849  0.84772  0.54929  1.0000
  H   H428      1.0  0.24842  0.57322  0.73768  1.0000
  H   H429      1.0  0.19375  0.62554  0.75045  1.0000
  H   H430      1.0  0.03967  0.56933  0.60842  1.0000
  H   H431      1.0  0.22764  0.62001  0.71164  1.0000
  H   H432      1.0  0.04927  0.51377  0.96570  1.0000
  H   H433      1.0  0.26472  0.78083  0.96534  1.0000
  S   S53       1.0  0.29742  0.53096  0.55691  1.0000
  C   C234      1.0  0.16891  0.70489  0.97960  1.0000
  N   N15       1.0  0.21213  0.76021  0.94299  1.0000
  C   C235      1.0  0.23088  0.74287  0.92948  1.0000
  C   C236      1.0  0.22527  0.78166  0.96754  1.0000
  C   C237      1.0  0.19758  0.72842  0.95141  1.0000
  C   C238      1.0  0.19388  0.78497  0.92474  1.0000
  C   C239      1.0  0.20510  0.81803  0.91223  1.0000
  C   C240      1.0  0.22002  0.71995  0.90396  1.0000
  C   C241      1.0  0.26922  0.55712  0.77603  1.0000
  C   C242      1.0  0.25025  0.80165  0.96714  1.0000
  C   C243      1.0  0.18967  0.63849  0.70064  1.0000
  C   C244      1.0  0.18576  0.83492  0.88950  1.0000
  C   C245      1.0  0.24088  0.70529  0.89179  1.0000
  H   H434      1.0  0.07394  0.62365  0.85920  1.0000
  H   H435      1.0  0.24356  0.72407  0.94345  1.0000
  H   H436      1.0  0.24326  0.76439  0.92403  1.0000
  H   H437      1.0  0.21259  0.80323  0.97282  1.0000
  H   H438      1.0  0.05678  0.00276  0.86027  1.0000
  H   H439      1.0  0.21066  0.70729  0.96260  1.0000
  H   H440      1.0  0.18608  0.71337  0.93400  1.0000
  H   H441      1.0  0.18178  0.76794  0.90878  1.0000
  H   H442      1.0  0.18063  0.79787  0.93533  1.0000
  H   H443      1.0  0.22112  0.80952  0.90414  1.0000
  H   H444      1.0  0.21115  0.84050  0.92721  1.0000
  H   H445      1.0  0.20932  0.69520  0.90801  1.0000
  H   H446      1.0  0.20766  0.73750  0.88898  1.0000
  H   H447      1.0  0.16286  0.75454  0.95611  1.0000
  H   H448      1.0  0.03790  0.98282  0.94744  1.0000
  S   S54       1.0  0.14086  0.91776  0.98654  1.0000
  H   H449      1.0  0.24810  0.82155  0.95063  1.0000
  C   C246      1.0  0.02040  0.97702  0.98128  1.0000
  H   H450      1.0  0.04845  0.79023  0.62612  1.0000
  H   H451      1.0  0.02160  0.78346  0.58089  1.0000
  H   H452      1.0  0.19389  0.85957  0.88161  1.0000
  C   C247      1.0  0.04297  0.54074  0.95593  1.0000
  C   C248      1.0  0.23133  0.92560  0.99575  1.0000
  C   C249      1.0  0.17897  0.73953  0.96838  1.0000
  C   C250      1.0  0.05989  0.64864  0.52754  1.0000
  H   H453      1.0  0.19672  0.95619  0.88759  1.0000
  H   H454      1.0  0.07337  0.81567  0.99779  1.0000
  C   C251      1.0  0.07059  0.55373  0.88344  1.0000
  C   C252      1.0  0.06476  0.78187  0.61827  1.0000
  H   H455      1.0  0.00974  0.71822  0.54389  1.0000
  H   H456      1.0  0.18981  0.00269  0.97899  1.0000
  H   H457      1.0  0.02233  0.54029  0.94891  1.0000
  H   H458      1.0  0.25976  0.53041  0.77860  1.0000
  H   H459      1.0  0.26272  0.91042  0.97975  1.0000
  H   H460      1.0  0.21005  0.97870  0.94910  1.0000
  C   C253      1.0  0.03030  0.99302  0.82175  1.0000
  H   H461      1.0  0.01634  0.92662  0.93970  1.0000
  C   C254      1.0  0.02192  0.98497  0.86729  1.0000
  H   H462      1.0  0.02739  0.52073  0.90306  1.0000
  H   H463      1.0  0.02259  0.58753  0.66004  1.0000
  H   H464      1.0  0.02605  0.99654  0.88768  1.0000
  H   H465      1.0  0.07570  0.54893  0.94106  1.0000
  H   H466      1.0  0.04041  0.50905  0.76423  1.0000
  H   H467      1.0  0.04818  0.56371  0.97070  1.0000
  C   C255      1.0  0.20086  0.99883  0.93374  1.0000
  H   H468      1.0  0.30443  0.52915  0.77800  1.0000
  H   H469      1.0  0.18761  0.75783  0.98531  1.0000
  H   H470      1.0  0.02155  0.98572  0.72302  1.0000
  C   C256      1.0  0.02086  0.55773  0.65326  1.0000
  H   H471      1.0  0.06163  0.54903  0.66637  1.0000
  C   C257      1.0  0.03146  0.52972  0.69710  1.0000
  H   H472      1.0  0.21775  0.53622  0.77969  1.0000
  C   C258      1.0  0.02374  0.52324  0.72351  1.0000
  H   H473      1.0  0.04441  0.50691  0.69435  1.0000
  C   C259      1.0  0.23235  0.57982  0.51832  1.0000
  H   H474      1.0  0.06146  0.53210  0.74766  1.0000
  H   H475      1.0  0.15419  0.71337  0.98983  1.0000
  C   C260      1.0  0.25672  0.92577  0.99512  1.0000
  C   C261      1.0  0.22942  0.51162  0.83569  1.0000
  C   C262      1.0  0.04606  0.51127  0.74520  1.0000
  S   S55       1.0  0.01021  0.65944  0.68916  1.0000
  H   H476      1.0  0.18409  0.69082  0.99401  1.0000
  C   C263      1.0  0.01321  0.00066  0.76069  1.0000
  H   H477      1.0  0.05320  0.99513  0.76609  1.0000
  N   N16       1.0  0.01087  0.53394  0.67242  1.0000
  C   C264      1.0  0.07382  0.99964  0.81614  1.0000
  H   H478      1.0  0.01054  0.00111  0.81371  1.0000
  C   C265      1.0  0.27302  0.50469  0.83325  1.0000
  H   H479      1.0  0.01092  0.86041  0.92529  1.0000
  H   H480      1.0  0.03210  0.79779  0.00589  1.0000
  Fe  Fe27      1.0  0.48043  0.22377  0.47447  1.0000
  S   S56       1.0  0.44556  0.18777  0.45972  1.0000
  Fe  Fe28      1.0  0.51842  0.28299  0.46553  1.0000
  S   S57       1.0  0.52596  0.32203  0.43405  1.0000
  S   S58       1.0  0.51739  0.21989  0.46365  1.0000
  S   S59       1.0  0.47978  0.28686  0.47257  1.0000
  S   S60       1.0  0.35962  0.03148  0.33065  1.0000
  H   H481      1.0  0.64771  0.40736  0.25372  1.0000
  H   H482      1.0  0.40307  0.02766  0.17398  1.0000
  S   S61       1.0  0.42772  0.06748  0.36562  1.0000
  H   H483      1.0  0.55799  0.37799  0.16774  1.0000
  H   H484      1.0  0.54463  0.43443  0.04188  1.0000
  Fe  Fe29      1.0  0.63038  0.44938  0.10518  1.0000
  S   S62       1.0  0.61716  0.41196  0.06893  1.0000
  C   C266      1.0  0.45384  0.10771  0.25353  1.0000
  C   C267      1.0  0.60689  0.20582  0.47650  1.0000
  H   H485      1.0  0.47808  0.13288  0.28852  1.0000
  S   S63       1.0  0.64381  0.44361  0.20405  1.0000
  H   H486      1.0  0.42678  0.32783  0.44951  1.0000
  S   S64       1.0  0.54059  0.27532  0.05135  1.0000
  H   H487      1.0  0.44051  0.03123  0.22239  1.0000
  H   H488      1.0  0.58955  0.47451  0.45582  1.0000
  H   H489      1.0  0.42449  0.29035  0.42574  1.0000
  S   S65       1.0  0.40778  0.07844  0.07935  1.0000
  Fe  Fe30      1.0  0.64203  0.47125  0.16410  1.0000
  H   H490      1.0  0.56109  0.15184  0.04508  1.0000
  C   C268      1.0  0.58823  0.19892  0.45022  1.0000
  Fe  Fe31      1.0  0.64030  0.42533  0.40336  1.0000
  C   C269      1.0  0.64188  0.48811  0.28719  1.0000
  S   S66       1.0  0.63260  0.36802  0.41832  1.0000
  H   H491      1.0  0.49545  0.44119  0.10134  1.0000
  C   C270      1.0  0.47803  0.12737  0.26752  1.0000
  H   H492      1.0  0.49502  0.33535  0.05461  1.0000
  H   H493      1.0  0.43481  0.01877  0.29351  1.0000
  H   H494      1.0  0.64687  0.43037  0.29862  1.0000
  C   C271      1.0  0.41694  0.10163  0.05309  1.0000
  C   C272      1.0  0.43522  0.13002  0.05893  1.0000
  C   C273      1.0  0.64013  0.50012  0.24043  1.0000
  H   H495      1.0  0.52666  0.45043  0.37534  1.0000
  H   H496      1.0  0.47967  0.15463  0.25791  1.0000
  H   H497      1.0  0.67037  0.33249  0.45496  1.0000
  C   C274      1.0  0.52366  0.39458  0.07993  1.0000
  C   C275      1.0  0.64296  0.46188  0.23577  1.0000
  H   H498      1.0  0.64001  0.28863  0.02022  1.0000
  C   C276      1.0  0.49717  0.35825  0.04097  1.0000
  C   C277      1.0  0.59541  0.37470  0.06481  1.0000
  C   C278      1.0  0.59397  0.35068  0.08542  1.0000
  C   C279      1.0  0.57705  0.32038  0.08099  1.0000
  C   C280      1.0  0.56146  0.31386  0.05596  1.0000
  C   C281      1.0  0.56311  0.33769  0.03529  1.0000
  C   C282      1.0  0.58014  0.36779  0.03967  1.0000
  H   H499      1.0  0.60626  0.35500  0.10464  1.0000
  H   H500      1.0  0.57611  0.30181  0.09703  1.0000
  H   H501      1.0  0.42980  0.05832  0.17725  1.0000
  H   H502      1.0  0.58149  0.38590  0.02353  1.0000
  C   C283      1.0  0.50987  0.11511  0.49834  1.0000
  S   S67       1.0  0.65053  0.46793  0.43578  1.0000
  C   C284      1.0  0.44143  0.15359  0.43406  1.0000
  C   C285      1.0  0.42023  0.13019  0.42935  1.0000
  C   C286      1.0  0.41593  0.10330  0.40880  1.0000
  C   C287      1.0  0.43271  0.09976  0.39252  1.0000
  C   C288      1.0  0.45395  0.12313  0.39726  1.0000
  C   C289      1.0  0.45839  0.14974  0.41799  1.0000
  H   H503      1.0  0.40703  0.13283  0.44168  1.0000
  H   H504      1.0  0.39953  0.08555  0.40541  1.0000
  H   H505      1.0  0.46703  0.12063  0.38479  1.0000
  H   H506      1.0  0.47475  0.16753  0.42137  1.0000
  H   H507      1.0  0.55586  0.36427  0.12024  1.0000
  C   C290      1.0  0.55585  0.33776  0.43215  1.0000
  C   C291      1.0  0.57753  0.32479  0.44924  1.0000
  C   C292      1.0  0.60106  0.33462  0.44502  1.0000
  C   C293      1.0  0.60306  0.35918  0.42472  1.0000
  C   C294      1.0  0.58139  0.37372  0.40854  1.0000
  C   C295      1.0  0.55789  0.36235  0.41189  1.0000
  H   H508      1.0  0.57611  0.30597  0.46500  1.0000
  H   H509      1.0  0.61776  0.32293  0.45735  1.0000
  H   H510      1.0  0.58270  0.39228  0.39261  1.0000
  H   H511      1.0  0.54118  0.37212  0.39840  1.0000
  N   N17       1.0  0.57317  0.22693  0.40322  1.0000
  C   C296      1.0  0.57799  0.26068  0.38776  1.0000
  H   H512      1.0  0.64629  0.33979  0.06540  1.0000
  C   C297      1.0  0.64774  0.20084  0.02599  1.0000
  C   C298      1.0  0.57709  0.19046  0.38997  1.0000
  C   C299      1.0  0.56134  0.18391  0.36165  1.0000
  C   C300      1.0  0.60486  0.26519  0.38372  1.0000
  C   C301      1.0  0.50038  0.23869  0.39071  1.0000
  C   C302      1.0  0.52632  0.24606  0.38597  1.0000
  H   H513      1.0  0.60934  0.39513  0.48142  1.0000
  C   C303      1.0  0.56966  0.14845  0.34952  1.0000
  C   C304      1.0  0.60622  0.29661  0.36434  1.0000
  H   H514      1.0  0.58770  0.36435  0.16183  1.0000
  H   H515      1.0  0.57380  0.28675  0.39777  1.0000
  H   H516      1.0  0.56511  0.26137  0.36803  1.0000
  C   C305      1.0  0.52406  0.46988  0.39119  1.0000
  Fe  Fe32      1.0  0.51342  0.26164  0.01246  1.0000
  H   H517      1.0  0.50404  0.41727  0.04107  1.0000
  H   H518      1.0  0.61106  0.22472  0.42713  1.0000
  H   H519      1.0  0.59711  0.18693  0.38984  1.0000
  H   H520      1.0  0.57266  0.16641  0.40155  1.0000
  H   H521      1.0  0.56304  0.20746  0.34847  1.0000
  H   H522      1.0  0.54148  0.17966  0.36205  1.0000
  H   H523      1.0  0.61798  0.27279  0.40263  1.0000
  H   H524      1.0  0.61138  0.23913  0.37584  1.0000
  C   C306      1.0  0.39885  0.29286  0.48113  1.0000
  H   H525      1.0  0.38348  0.13145  0.28258  1.0000
  H   H526      1.0  0.52890  0.27695  0.38552  1.0000
  H   H527      1.0  0.52650  0.23505  0.36620  1.0000
  H   H528      1.0  0.54084  0.20058  0.41276  1.0000
  H   H529      1.0  0.56845  0.43225  0.08555  1.0000
  H   H530      1.0  0.37491  0.17803  0.45478  1.0000
  H   H531      1.0  0.50957  0.12377  0.47788  1.0000
  C   C307      1.0  0.54305  0.42272  0.12297  1.0000
  H   H532      1.0  0.55772  0.14388  0.32945  1.0000
  H   H533      1.0  0.62587  0.30073  0.36297  1.0000
  H   H534      1.0  0.59477  0.28952  0.34443  1.0000
  H   H535      1.0  0.59952  0.32341  0.37112  1.0000
  H   H536      1.0  0.37977  0.30121  0.47040  1.0000
  H   H537      1.0  0.58197  0.41288  0.16771  1.0000
  H   H538      1.0  0.56786  0.12356  0.36164  1.0000
  H   H539      1.0  0.43052  0.26464  0.47036  1.0000
  C   C308      1.0  0.51723  0.39544  0.48995  1.0000
  H   H540      1.0  0.47996  0.35931  0.02491  1.0000
  S   S68       1.0  0.35424  0.02091  0.10200  1.0000
  H   H541      1.0  0.55133  0.33288  0.01591  1.0000
  H   H542      1.0  0.40860  0.31978  0.48773  1.0000
  H   H543      1.0  0.59226  0.17252  0.02089  1.0000
  H   H544      1.0  0.56600  0.48075  0.33476  1.0000
  H   H545      1.0  0.50953  0.01009  0.50399  1.0000
  H   H546      1.0  0.59130  0.25646  0.43878  1.0000
  C   C309      1.0  0.65681  0.31313  0.06934  1.0000
  C   C310      1.0  0.36069  0.18479  0.46611  1.0000
  H   H547      1.0  0.55868  0.47599  0.09492  1.0000
  H   H548      1.0  0.66543  0.31188  0.09077  1.0000
  H   H549      1.0  0.44104  0.02319  0.04725  1.0000
  H   H550      1.0  0.45469  0.01899  0.09669  1.0000
  H   H551      1.0  0.38409  0.11016  0.31394  1.0000
  H   H552      1.0  0.59150  0.17019  0.44353  1.0000
  H   H553      1.0  0.57945  0.39925  0.12056  1.0000
  H   H554      1.0  0.62788  0.43600  0.47821  1.0000
  C   C311      1.0  0.49821  0.08574  0.02500  1.0000
  C   C312      1.0  0.51502  0.49442  0.10837  1.0000
  H   H555      1.0  0.49611  0.01203  0.02895  1.0000
  C   C313      1.0  0.65954  0.17157  0.01115  1.0000
  H   H556      1.0  0.46591  0.06807  0.03796  1.0000
  C   C314      1.0  0.58245  0.19404  0.03005  1.0000
  C   C315      1.0  0.54209  0.45954  0.41705  1.0000
  H   H557      1.0  0.39664  0.31437  0.42918  1.0000
  H   H558      1.0  0.45743  0.17049  0.04349  1.0000
  C   C316      1.0  0.56330  0.39174  0.12869  1.0000
  H   H559      1.0  0.53969  0.38104  0.07393  1.0000
  H   H560      1.0  0.58933  0.15121  0.34790  1.0000
  C   C317      1.0  0.62585  0.28144  0.03158  1.0000
  H   H561      1.0  0.56541  0.20289  0.01566  1.0000
  H   H562      1.0  0.50033  0.46342  0.07279  1.0000
  H   H563      1.0  0.35253  0.00323  0.16620  1.0000
  N   N18       1.0  0.39801  0.26896  0.50468  1.0000
  H   H564      1.0  0.45457  0.10402  0.23260  1.0000
  H   H565      1.0  0.48390  0.40265  0.06167  1.0000
  H   H566      1.0  0.40467  0.21518  0.48811  1.0000
  H   H567      1.0  0.36222  0.24395  0.46003  1.0000
  H   H568      1.0  0.59004  0.16469  0.06759  1.0000
  C   C318      1.0  0.59961  0.22820  0.03980  1.0000
  C   C319      1.0  0.54024  0.48749  0.43942  1.0000
  N   N19       1.0  0.53192  0.43122  0.09428  1.0000
  H   H569      1.0  0.44327  0.13744  0.07927  1.0000
  H   H570      1.0  0.49864  0.25156  0.40963  1.0000
  H   H571      1.0  0.49661  0.20812  0.39104  1.0000
  C   C320      1.0  0.54713  0.22889  0.40806  1.0000
  C   C321      1.0  0.63939  0.27953  0.06116  1.0000
  H   H572      1.0  0.60532  0.18303  0.49041  1.0000
  H   H573      1.0  0.48648  0.02226  0.06912  1.0000
  C   C322      1.0  0.57384  0.17560  0.05276  1.0000
  H   H574      1.0  0.52614  0.47350  0.04799  1.0000
  H   H575      1.0  0.58859  0.24868  0.04853  1.0000
  H   H576      1.0  0.61428  0.21836  0.05665  1.0000
  H   H577      1.0  0.56928  0.19995  0.45406  1.0000
  H   H578      1.0  0.46695  0.05198  0.26201  1.0000
  H   H579      1.0  0.51983  0.47074  0.47973  1.0000
  C   C323      1.0  0.44323  0.14891  0.03869  1.0000
  C   C324      1.0  0.56359  0.48758  0.04684  1.0000
  H   H580      1.0  0.50749  0.08111  0.00853  1.0000
  H   H581      1.0  0.57424  0.43088  0.45514  1.0000
  C   C325      1.0  0.64495  0.44993  0.28255  1.0000
  H   H582      1.0  0.49121  0.10358  0.49870  1.0000
  H   H583      1.0  0.60347  0.47326  0.50428  1.0000
  C   C326      1.0  0.42829  0.01279  0.27203  1.0000
  N   N20       1.0  0.42689  0.04861  0.25643  1.0000
  H   H584      1.0  0.62547  0.28021  0.07354  1.0000
  C   C327      1.0  0.47827  0.02116  0.01572  1.0000
  H   H585      1.0  0.39240  0.07087  0.02197  1.0000
  Fe  Fe33      1.0  0.64623  0.48146  0.36050  1.0000
  C   C328      1.0  0.67306  0.35147  0.50130  1.0000
  H   H586      1.0  0.45568  0.07263  0.28771  1.0000
  C   C329      1.0  0.50136  0.39597  0.05542  1.0000
  C   C330      1.0  0.54467  0.46033  0.05380  1.0000
  H   H587      1.0  0.56354  0.19602  0.06240  1.0000
  H   H588      1.0  0.64133  0.18591  0.04175  1.0000
  C   C331      1.0  0.59511  0.44751  0.49372  1.0000
  C   C332      1.0  0.64542  0.43697  0.25702  1.0000
  N   N21       1.0  0.61069  0.24750  0.01947  1.0000
  H   H589      1.0  0.65615  0.36455  0.48860  1.0000
  S   S69       1.0  0.60688  0.47134  0.13176  1.0000
  C   C333      1.0  0.40520  0.07105  0.26138  1.0000
  H   H590      1.0  0.54798  0.39858  0.47156  1.0000
  H   H591      1.0  0.65056  0.25373  0.06584  1.0000
  C   C334      1.0  0.43297  0.13959  0.01232  1.0000
  Fe  Fe34      1.0  0.39799  0.02134  0.35567  1.0000
  C   C335      1.0  0.40581  0.08060  0.29059  1.0000
  H   H592      1.0  0.61366  0.30660  0.03031  1.0000
  H   H593      1.0  0.55202  0.44822  0.13353  1.0000
  C   C336      1.0  0.45136  0.06907  0.26591  1.0000
  H   H594      1.0  0.40094  0.25136  0.45011  1.0000
  C   C337      1.0  0.38333  0.10432  0.29282  1.0000
  H   H595      1.0  0.38751  0.05561  0.25321  1.0000
  H   H596      1.0  0.40306  0.09788  0.25061  1.0000
  C   C338      1.0  0.50974  0.45642  0.09332  1.0000
  C   C339      1.0  0.53795  0.45624  0.48135  1.0000
  H   H597      1.0  0.56125  0.46011  0.41357  1.0000
  H   H598      1.0  0.54811  0.09828  0.50535  1.0000
  H   H599      1.0  0.41083  0.01249  0.22318  1.0000
  S   S70       1.0  0.61356  0.46311  0.37675  1.0000
  C   C340      1.0  0.57813  0.45746  0.46654  1.0000
  H   H600      1.0  0.41559  0.09593  0.21126  1.0000
  H   H601      1.0  0.40501  0.05480  0.30207  1.0000
  H   H602      1.0  0.42289  0.09658  0.29995  1.0000
  H   H603      1.0  0.52807  0.41424  0.13295  1.0000
  H   H604      1.0  0.38833  0.06718  0.20751  1.0000
  S   S71       1.0  0.47186  0.26681  0.00747  1.0000
  H   H605      1.0  0.51754  0.37432  0.09336  1.0000
  H   H606      1.0  0.51107  0.07751  0.04379  1.0000
  C   C341      1.0  0.41508  0.30384  0.44004  1.0000
  H   H607      1.0  0.39877  0.07613  0.16487  1.0000
  H   H608      1.0  0.54717  0.24662  0.42576  1.0000
  C   C342      1.0  0.41190  0.27524  0.46067  1.0000
  S   S72       1.0  0.66493  0.44443  0.13800  1.0000
  H   H609      1.0  0.67192  0.31300  0.05847  1.0000
  H   H610      1.0  0.49446  0.10998  0.26642  1.0000
  H   H611      1.0  0.60287  0.23284  0.48538  1.0000
  C   C343      1.0  0.59168  0.22841  0.42959  1.0000
  C   C344      1.0  0.47393  0.06330  0.02063  1.0000
  H   H612      1.0  0.43829  0.12664  0.25491  1.0000
  H   H613      1.0  0.51862  0.41543  0.45194  1.0000
  C   C345      1.0  0.40663  0.09240  0.02674  1.0000
  H   H614      1.0  0.49407  0.11611  0.02610  1.0000
  H   H615      1.0  0.36569  0.08902  0.28423  1.0000
  C   C346      1.0  0.42251  0.03833  0.22750  1.0000
  H   H616      1.0  0.48602  0.25140  0.37468  1.0000
  H   H617      1.0  0.41891  0.39649  0.49014  1.0000
  H   H618      1.0  0.53783  0.43062  0.42189  1.0000
  H   H619      1.0  0.58260  0.47534  0.05171  1.0000
  H   H620      1.0  0.51205  0.36666  0.48231  1.0000
  H   H621      1.0  0.50446  0.46752  0.39312  1.0000
  C   C347      1.0  0.39019  0.22930  0.49652  1.0000
  C   C348      1.0  0.66639  0.31004  0.50578  1.0000
  C   C349      1.0  0.55174  0.45030  0.08332  1.0000
  C   C350      1.0  0.53121  0.41547  0.47185  1.0000
  H   H622      1.0  0.51298  0.35167  0.03195  1.0000
  H   H623      1.0  0.54647  0.45562  0.50288  1.0000
  C   C351      1.0  0.57323  0.38654  0.15832  1.0000
  H   H624      1.0  0.52298  0.49030  0.12968  1.0000
  N   N22       1.0  0.55432  0.47801  0.46713  1.0000
  C   C352      1.0  0.36441  0.22481  0.47700  1.0000
  Fe  Fe35      1.0  0.38222  0.02731  0.07670  1.0000
  C   C353      1.0  0.41019  0.05655  0.17918  1.0000
  H   H625      1.0  0.36218  0.16436  0.48235  1.0000
  H   H626      1.0  0.45452  0.35208  0.49728  1.0000
  H   H627      1.0  0.47782  0.50145  0.11549  1.0000
  H   H628      1.0  0.66256  0.22126  0.03490  1.0000
  C   C354      1.0  0.40843  0.06702  0.20716  1.0000
  H   H629      1.0  0.52596  0.06156  0.49367  1.0000
  H   H630      1.0  0.55849  0.49360  0.02544  1.0000
  H   H631      1.0  0.49983  0.41059  0.49078  1.0000
  S   S73       1.0  0.67241  0.43903  0.38459  1.0000
  H   H632      1.0  0.34926  0.23086  0.48721  1.0000
  C   C355      1.0  0.61663  0.42229  0.49061  1.0000
  H   H633      1.0  0.62632  0.20620  0.47389  1.0000
  H   H634      1.0  0.66188  0.29391  0.48700  1.0000
  H   H635      1.0  0.52767  0.49895  0.38553  1.0000
  H   H636      1.0  0.52012  0.49213  0.43877  1.0000
  C   C356      1.0  0.41460  0.11131  0.00649  1.0000
  H   H637      1.0  0.62727  0.32152  0.50515  1.0000
  H   H638      1.0  0.36103  0.28936  0.50430  1.0000
  H   H639      1.0  0.58455  0.43242  0.50615  1.0000
  C   C357      1.0  0.62614  0.22120  0.00706  1.0000
  H   H640      1.0  0.57602  0.27755  0.00657  1.0000
  H   H641      1.0  0.63888  0.27793  0.52030  1.0000
  C   C358      1.0  0.45534  0.47337  0.86880  1.0000
  H   H642      1.0  0.45359  0.23736  0.58564  1.0000
  H   H643      1.0  0.53757  0.09384  0.96709  1.0000
  C   C359      1.0  0.42382  0.26810  0.52257  1.0000
  S   S74       1.0  0.48798  0.32498  0.54568  1.0000
  C   C360      1.0  0.51984  0.08615  0.95299  1.0000
  S   S75       1.0  0.39612  0.43855  0.52525  1.0000
  H   H644      1.0  0.57258  0.06679  0.93856  1.0000
  H   H645      1.0  0.34836  0.34307  0.52950  1.0000
  C   C361      1.0  0.42617  0.24768  0.54920  1.0000
  Fe  Fe36      1.0  0.63704  0.07030  0.92278  1.0000
  S   S76       1.0  0.62418  0.11395  0.94861  1.0000
  C   C362      1.0  0.56149  0.45231  0.89767  1.0000
  H   H646      1.0  0.53707  0.06743  0.63306  1.0000
  S   S77       1.0  0.66086  0.02706  0.94748  1.0000
  Fe  Fe37      1.0  0.50849  0.23293  0.95646  1.0000
  S   S78       1.0  0.52765  0.21562  0.92419  1.0000
  Fe  Fe38      1.0  0.47244  0.29261  0.96824  1.0000
  S   S79       1.0  0.45468  0.34994  0.95810  1.0000
  S   S80       1.0  0.51419  0.29041  0.97476  1.0000
  S   S81       1.0  0.46670  0.23738  0.94674  1.0000
  H   H647      1.0  0.42821  0.37808  0.70500  1.0000
  Fe  Fe39      1.0  0.46935  0.21088  0.98653  1.0000
  Fe  Fe40      1.0  0.38105  0.46785  0.84018  1.0000
  S   S82       1.0  0.39341  0.40693  0.84619  1.0000
  H   H648      1.0  0.45451  0.28408  0.57310  1.0000
  H   H649      1.0  0.51804  0.03545  0.88015  1.0000
  Fe  Fe41      1.0  0.63597  0.06479  0.64100  1.0000
  S   S83       1.0  0.61630  0.12116  0.63455  1.0000
  C   C363      1.0  0.44978  0.36600  0.51391  1.0000
  H   H650      1.0  0.59710  0.01758  0.00134  1.0000
  C   C364      1.0  0.43634  0.36414  0.92711  1.0000
  C   C365      1.0  0.43119  0.34021  0.90512  1.0000
  C   C366      1.0  0.41778  0.35351  0.88052  1.0000
  C   C367      1.0  0.40933  0.39075  0.87767  1.0000
  C   C368      1.0  0.41435  0.41454  0.89972  1.0000
  C   C369      1.0  0.42778  0.40129  0.92426  1.0000
  H   H651      1.0  0.43757  0.31151  0.90707  1.0000
  H   H652      1.0  0.41398  0.33485  0.86364  1.0000
  H   H653      1.0  0.40795  0.44322  0.89787  1.0000
  H   H654      1.0  0.43161  0.42001  0.94112  1.0000
  C   C370      1.0  0.59564  0.13820  0.94050  1.0000
  C   C371      1.0  0.58558  0.15090  0.91499  1.0000
  C   C372      1.0  0.56440  0.17410  0.91010  1.0000
  C   C373      1.0  0.55311  0.18444  0.93060  1.0000
  C   C374      1.0  0.56255  0.17034  0.95582  1.0000
  C   C375      1.0  0.58382  0.14750  0.96076  1.0000
  H   H655      1.0  0.59465  0.14402  0.89928  1.0000
  H   H656      1.0  0.55707  0.18471  0.89048  1.0000
  H   H657      1.0  0.55362  0.17739  0.97154  1.0000
  H   H658      1.0  0.59138  0.13723  0.98041  1.0000
  H   H659      1.0  0.56335  0.08827  0.62337  1.0000
  H   H660      1.0  0.51284  0.07015  0.53922  1.0000
  C   C376      1.0  0.56330  0.03892  0.93773  1.0000
  H   H661      1.0  0.46684  0.24524  0.55766  1.0000
  H   H662      1.0  0.41229  0.25773  0.55995  1.0000
  H   H663      1.0  0.65549  0.14665  0.81719  1.0000
  H   H664      1.0  0.53812  0.09712  0.88003  1.0000
  H   H665      1.0  0.36362  0.32092  0.56018  1.0000
  H   H666      1.0  0.57176  0.07186  0.57980  1.0000
  C   C377      1.0  0.39612  0.34056  0.78765  1.0000
  C   C378      1.0  0.46350  0.35848  0.53943  1.0000
  C   C379      1.0  0.45714  0.37716  0.56078  1.0000
  C   C380      1.0  0.43709  0.40265  0.55678  1.0000
  C   C381      1.0  0.42306  0.40961  0.53130  1.0000
  C   C382      1.0  0.39968  0.50265  0.70576  1.0000
  H   H667      1.0  0.60935  0.30858  0.98438  1.0000
  H   H668      1.0  0.46764  0.37162  0.58060  1.0000
  H   H669      1.0  0.43223  0.41643  0.57342  1.0000
  C   C383      1.0  0.54988  0.07164  0.88155  1.0000
  C   C384      1.0  0.57906  0.16441  0.55188  1.0000
  C   C385      1.0  0.57123  0.17717  0.57403  1.0000
  C   C386      1.0  0.58275  0.16365  0.59925  1.0000
  C   C387      1.0  0.60186  0.13684  0.60248  1.0000
  C   C388      1.0  0.60943  0.12375  0.58025  1.0000
  C   C389      1.0  0.59822  0.13772  0.55514  1.0000
  H   H670      1.0  0.55654  0.19778  0.57180  1.0000
  H   H671      1.0  0.57682  0.17405  0.61632  1.0000
  H   H672      1.0  0.62429  0.10344  0.58247  1.0000
  H   H673      1.0  0.60457  0.12798  0.53816  1.0000
  C   C390      1.0  0.52053  0.00954  0.92713  1.0000
  N   N23       1.0  0.64440  0.13866  0.73402  1.0000
  H   H674      1.0  0.39124  0.44888  0.75677  1.0000
  C   C391      1.0  0.62011  0.11722  0.72879  1.0000
  C   C392      1.0  0.64182  0.17445  0.71840  1.0000
  H   H675      1.0  0.49924  0.12549  0.97187  1.0000
  C   C393      1.0  0.62060  0.20118  0.72184  1.0000
  C   C394      1.0  0.64370  0.30777  0.51793  1.0000
  C   C395      1.0  0.53209  0.07456  0.53648  1.0000
  H   H676      1.0  0.53693  0.10191  0.92211  1.0000
  C   C396      1.0  0.61835  0.23427  0.70302  1.0000
  C   C397      1.0  0.53735  0.03836  0.89263  1.0000
  H   H677      1.0  0.66647  0.18469  0.99495  1.0000
  H   H678      1.0  0.62299  0.08940  0.73834  1.0000
  H   H679      1.0  0.60634  0.13144  0.73810  1.0000
  H   H680      1.0  0.63924  0.16813  0.69697  1.0000
  S   S84       1.0  0.61807  0.02175  0.66198  1.0000
  C   C398      1.0  0.67217  0.00926  0.78295  1.0000
  H   H681      1.0  0.60154  0.02920  0.77147  1.0000
  C   C399      1.0  0.53878  0.05503  0.59275  1.0000
  H   H682      1.0  0.60223  0.18683  0.71766  1.0000
  C   C400      1.0  0.55142  0.06279  0.62157  1.0000
  H   H683      1.0  0.62038  0.09357  0.68991  1.0000
  H   H684      1.0  0.42365  0.21701  0.54585  1.0000
  H   H685      1.0  0.65990  0.11267  0.70380  1.0000
  C   C401      1.0  0.59671  0.28506  0.97607  1.0000
  H   H686      1.0  0.53376  0.39957  0.00074  1.0000
  S   S85       1.0  0.44342  0.16054  0.98600  1.0000
  H   H687      1.0  0.37198  0.36800  0.55312  1.0000
  H   H688      1.0  0.63609  0.25048  0.70671  1.0000
  C   C402      1.0  0.58976  0.00820  0.54448  1.0000
  H   H689      1.0  0.40888  0.35986  0.80126  1.0000
  C   C403      1.0  0.57055  0.03961  0.53460  1.0000
  H   H690      1.0  0.64575  0.14936  0.00270  1.0000
  C   C404      1.0  0.66773  0.12615  0.81023  1.0000
  H   H691      1.0  0.56934  0.02315  0.58553  1.0000
  H   H692      1.0  0.57836  0.23720  0.98728  1.0000
  H   H693      1.0  0.56042  0.27961  0.94862  1.0000
  H   H694      1.0  0.61950  0.03622  0.53064  1.0000
  S   S86       1.0  0.64206  0.02523  0.60968  1.0000
  H   H695      1.0  0.48164  0.01974  0.99556  1.0000
  H   H696      1.0  0.43717  0.25407  0.51260  1.0000
  S   S87       1.0  0.61163  0.02777  0.89847  1.0000
  C   C405      1.0  0.63597  0.02286  0.80074  1.0000
  H   H697      1.0  0.53400  0.46331  0.91967  1.0000
  H   H698      1.0  0.56536  0.03798  0.85400  1.0000
  H   H699      1.0  0.48344  0.11246  0.93893  1.0000
  H   H700      1.0  0.60713  0.01456  0.97093  1.0000
  H   H701      1.0  0.52915  0.39313  0.51019  1.0000
  H   H702      1.0  0.58083  0.06677  0.53777  1.0000
  H   H703      1.0  0.50068  0.01467  0.91699  1.0000
  H   H704      1.0  0.52653  0.03019  0.59226  1.0000
  C   C406      1.0  0.59441  0.02940  0.98127  1.0000
  H   H705      1.0  0.62443  0.21271  0.74219  1.0000
  H   H706      1.0  0.62049  0.01774  0.73321  1.0000
  H   H707      1.0  0.56435  0.32178  0.96883  1.0000
  H   H708      1.0  0.43053  0.38777  0.77657  1.0000
  C   C407      1.0  0.60764  0.10954  0.69945  1.0000
  H   H709      1.0  0.52067  0.00830  0.94836  1.0000
  C   C408      1.0  0.58933  0.26112  0.99788  1.0000
  H   H710      1.0  0.43461  0.47334  0.78295  1.0000
  H   H711      1.0  0.40652  0.10393  0.98616  1.0000
  H   H712      1.0  0.38316  0.02288  0.98278  1.0000
  C   C409      1.0  0.37937  0.28588  0.51847  1.0000
  S   S88       1.0  0.49708  0.22317  0.51814  1.0000
  C   C410      1.0  0.43412  0.00630  0.99793  1.0000
  Fe  Fe42      1.0  0.65682  0.00942  0.68553  1.0000
  H   H713      1.0  0.50954  0.14463  0.94439  1.0000
  H   H714      1.0  0.63716  0.16512  0.76891  1.0000
  H   H715      1.0  0.56655  0.48239  0.89707  1.0000
  H   H716      1.0  0.43589  0.43996  0.80933  1.0000
  Fe  Fe43      1.0  0.53426  0.22292  0.50738  1.0000
  H   H717      1.0  0.40441  0.29592  0.81635  1.0000
  C   C411      1.0  0.58372  0.08658  0.69666  1.0000
  H   H718      1.0  0.60259  0.13594  0.68846  1.0000
  H   H719      1.0  0.40284  0.35062  0.68514  1.0000
  H   H720      1.0  0.46491  0.47654  0.85241  1.0000
  C   C412      1.0  0.66144  0.01536  0.80470  1.0000
  N   N24       1.0  0.54848  0.04146  0.54710  1.0000
  H   H721      1.0  0.35924  0.34185  0.76139  1.0000
  N   N25       1.0  0.50217  0.39946  0.90800  1.0000
  C   C413      1.0  0.50195  0.41339  0.93535  1.0000
  C   C414      1.0  0.48070  0.41638  0.88800  1.0000
  C   C415      1.0  0.49863  0.35732  0.90767  1.0000
  C   C416      1.0  0.52675  0.40723  0.90101  1.0000
  C   C417      1.0  0.53475  0.44880  0.90104  1.0000
  C   C418      1.0  0.52242  0.39753  0.95818  1.0000
  C   C419      1.0  0.49206  0.33786  0.88016  1.0000
  C   C420      1.0  0.38650  0.32499  0.53134  1.0000
  H   H722      1.0  0.40749  0.35910  0.73994  1.0000
  C   C421      1.0  0.36628  0.33993  0.54431  1.0000
  C   C422      1.0  0.51914  0.41187  0.98481  1.0000
  C   C423      1.0  0.49132  0.29528  0.88292  1.0000
  H   H723      1.0  0.48349  0.40703  0.93962  1.0000
  H   H724      1.0  0.50373  0.44428  0.93696  1.0000
  H   H725      1.0  0.48431  0.41465  0.86789  1.0000
  H   H726      1.0  0.46334  0.39982  0.88698  1.0000
  H   H727      1.0  0.48362  0.34962  0.91772  1.0000
  H   H728      1.0  0.51572  0.34330  0.91907  1.0000
  H   H729      1.0  0.54202  0.39149  0.91423  1.0000
  H   H730      1.0  0.52645  0.39636  0.88093  1.0000
  H   H731      1.0  0.48915  0.47651  0.89873  1.0000
  H   H732      1.0  0.51689  0.00823  0.55171  1.0000
  H   H733      1.0  0.52156  0.36660  0.95875  1.0000
  H   H734      1.0  0.54126  0.40610  0.95617  1.0000
  H   H735      1.0  0.50596  0.34448  0.86855  1.0000
  H   H736      1.0  0.47339  0.34655  0.86867  1.0000
  C   C424      1.0  0.66382  0.11469  0.72567  1.0000
  H   H737      1.0  0.65934  0.19115  0.72372  1.0000
  H   H738      1.0  0.55532  0.03882  0.97750  1.0000
  H   H739      1.0  0.66881  0.16642  0.76736  1.0000
  H   H740      1.0  0.43874  0.45504  0.86221  1.0000
  H   H741      1.0  0.60613  0.26731  0.96378  1.0000
  H   H742      1.0  0.57478  0.43912  0.91444  1.0000
  C   C425      1.0  0.55333  0.06294  0.85388  1.0000
  S   S89       1.0  0.51098  0.20347  0.99476  1.0000
  C   C426      1.0  0.57374  0.30202  0.95776  1.0000
  H   H743      1.0  0.58779  0.05896  0.70635  1.0000
  H   H744      1.0  0.50999  0.28460  0.89295  1.0000
  H   H745      1.0  0.47756  0.28698  0.89441  1.0000
  H   H746      1.0  0.48582  0.28187  0.86314  1.0000
  H   H747      1.0  0.52084  0.44289  0.98608  1.0000
  H   H748      1.0  0.61363  0.22424  0.68222  1.0000
  C   C427      1.0  0.55849  0.04776  0.57633  1.0000
  C   C428      1.0  0.42426  0.41616  0.76982  1.0000
  H   H749      1.0  0.56249  0.08712  0.84663  1.0000
  C   C429      1.0  0.43945  0.44417  0.78944  1.0000
  H   H750      1.0  0.45965  0.43999  0.79074  1.0000
  H   H751      1.0  0.54747  0.01266  0.88884  1.0000
  H   H752      1.0  0.52698  0.07960  0.58544  1.0000
  H   H753      1.0  0.42927  0.42055  0.75066  1.0000
  H   H754      1.0  0.43140  0.29693  0.52676  1.0000
  C   C430      1.0  0.50198  0.11917  0.95189  1.0000
  H   H755      1.0  0.53912  0.10055  0.54793  1.0000
  H   H756      1.0  0.40643  0.32604  0.77466  1.0000
  H   H757      1.0  0.46316  0.45737  0.90934  1.0000
  C   C431      1.0  0.63201  0.01735  0.75302  1.0000
  H   H758      1.0  0.57458  0.01989  0.92816  1.0000
  H   H759      1.0  0.39223  0.42641  0.78679  1.0000
  S   S90       1.0  0.56567  0.18064  0.51970  1.0000
  H   H760      1.0  0.38878  0.34561  0.51629  1.0000
  C   C432      1.0  0.52497  0.07814  0.92550  1.0000
  S   S91       1.0  0.62187  0.03305  0.82742  1.0000
  H   H761      1.0  0.57006  0.10185  0.70545  1.0000
  H   H762      1.0  0.41902  0.49434  0.70906  1.0000
  H   H763      1.0  0.53500  0.05775  0.84006  1.0000
  Fe  Fe44      1.0  0.63875  0.02864  0.87178  1.0000
  S   S92       1.0  0.66255  0.07486  0.89472  1.0000
  H   H764      1.0  0.35071  0.45050  0.76825  1.0000
  H   H765      1.0  0.52257  0.46344  0.88419  1.0000
  H   H766      1.0  0.63818  0.10021  0.78171  1.0000
  H   H767      1.0  0.64781  0.32148  0.53766  1.0000
  H   H768      1.0  0.37251  0.39831  0.69381  1.0000
  H   H769      1.0  0.51117  0.06216  0.96081  1.0000
  C   C433      1.0  0.37346  0.36250  0.77176  1.0000
  C   C434      1.0  0.65190  0.14819  0.76300  1.0000
  C   C435      1.0  0.39574  0.42163  0.76681  1.0000
  H   H770      1.0  0.40411  0.32395  0.54678  1.0000
  C   C436      1.0  0.45187  0.25400  0.56743  1.0000
  H   H771      1.0  0.56454  0.03622  0.51293  1.0000
  S   S93       1.0  0.35817  0.47058  0.57870  1.0000
  S   S94       1.0  0.39878  0.49234  0.65334  1.0000
  H   H772      1.0  0.50699  0.08107  0.91053  1.0000
  N   N26       1.0  0.53680  0.04105  0.92146  1.0000
  C   C437      1.0  0.35396  0.40805  0.73880  1.0000
  H   H773      1.0  0.66281  0.08521  0.73217  1.0000
  H   H774      1.0  0.37544  0.26662  0.53367  1.0000
  C   C438      1.0  0.65626  0.11410  0.78184  1.0000
  H   H775      1.0  0.56310  0.03858  0.63011  1.0000
  H   H776      1.0  0.56330  0.43876  0.87896  1.0000
  H   H777      1.0  0.60326  0.25324  0.70597  1.0000
  C   C439      1.0  0.47306  0.45721  0.89307  1.0000
  H   H778      1.0  0.35680  0.42979  0.72455  1.0000
  H   H779      1.0  0.59955  0.05960  0.98308  1.0000
  H   H780      1.0  0.37523  0.28998  0.79244  1.0000
  Fe  Fe45      1.0  0.38538  0.48196  0.55328  1.0000
  H   H781      1.0  0.50063  0.40323  0.98790  1.0000
  S   S95       1.0  0.34321  0.48321  0.81530  1.0000
  H   H782      1.0  0.56843  0.07819  0.89438  1.0000
  S   S96       1.0  0.67439  0.05557  0.66659  1.0000
  H   H783      1.0  0.57943  0.31764  0.94178  1.0000
  H   H784      1.0  0.37803  0.32411  0.81889  1.0000
  H   H785      1.0  0.61404  0.19972  0.99473  1.0000
  H   H786      1.0  0.57525  0.08160  0.67547  1.0000
  H   H787      1.0  0.66971  0.10125  0.82321  1.0000
  C   C440      1.0  0.38782  0.31082  0.80480  1.0000
  C   C441      1.0  0.56725  0.02431  0.96629  1.0000
  H   H788      1.0  0.66877  0.09302  0.77610  1.0000
  H   H789      1.0  0.44884  0.50141  0.87364  1.0000
  C   C442      1.0  0.62132  0.02368  0.77478  1.0000
  Fe  Fe46      1.0  0.49887  0.28623  0.51527  1.0000
  H   H790      1.0  0.43807  0.00970  0.97813  1.0000
  H   H791      1.0  0.38910  0.21235  0.51400  1.0000
  H   H792      1.0  0.67273  0.01429  0.82455  1.0000
  H   H793      1.0  0.59900  0.01261  0.56549  1.0000
  C   C443      1.0  0.65757  0.01057  0.75695  1.0000
  S   S97       1.0  0.67233  0.00459  0.73025  1.0000
  H   H794      1.0  0.39751  0.42476  0.71400  1.0000
  H   H795      1.0  0.63487  0.23654  0.99302  1.0000
  C   C444      1.0  0.61034  0.00824  0.52926  1.0000
  H   H796      1.0  0.36542  0.37624  0.78709  1.0000
  N   N27       1.0  0.37867  0.39107  0.75248  1.0000
  H   H797      1.0  0.62894  0.41664  0.51024  1.0000
  S   S98       1.0  0.53785  0.28602  0.50828  1.0000
  H   H798      1.0  0.40933  0.39718  0.67515  1.0000
  C   C445      1.0  0.40899  0.37924  0.69240  1.0000
  C   C446      1.0  0.38895  0.37139  0.73157  1.0000
  C   C447      1.0  0.39107  0.39599  0.70770  1.0000
  H   H799      1.0  0.42791  0.03446  0.00291  1.0000
  C   C448      1.0  0.53370  0.00533  0.54352  1.0000
  H   H800      1.0  0.51363  0.14038  0.51124  1.0000
  C   C449      1.0  0.42962  0.39127  0.50992  1.0000
  H   H801      1.0  0.46082  0.07496  0.00309  1.0000
  H   H802      1.0  0.37693  0.34689  0.72345  1.0000
  C   C450      1.0  0.53015  0.08574  0.50735  1.0000
  H   H803      1.0  0.41062  0.89595  0.10869  1.0000
  Fe  Fe47      1.0  0.39055  0.93621  0.35200  1.0000
  S   S99       1.0  0.40800  0.87847  0.36151  1.0000
  H   H804      1.0  0.47405  0.88658  0.07588  1.0000
  H   H805      1.0  0.48676  0.97184  0.06759  1.0000
  C   C451      1.0  0.38467  0.76887  0.15791  1.0000
  C   C452      1.0  0.37607  0.66286  0.49574  1.0000
  S   S100      1.0  0.58779  0.57266  0.11210  1.0000
  N   N28       1.0  0.45728  0.99514  0.01799  1.0000
  C   C453      1.0  0.66013  0.62651  0.38048  1.0000
  H   H806      1.0  0.64734  0.91216  0.45881  1.0000
  S   S101      1.0  0.51113  0.72851  0.45933  1.0000
  H   H807      1.0  0.46948  0.74134  0.07044  1.0000
  H   H808      1.0  0.51368  0.53346  0.05227  1.0000
  S   S102      1.0  0.55456  0.78803  0.48707  1.0000
  Fe  Fe48      1.0  0.51263  0.78599  0.47779  1.0000
  S   S103      1.0  0.49132  0.84003  0.46508  1.0000
  Fe  Fe49      1.0  0.55310  0.72828  0.47251  1.0000
  S   S104      1.0  0.58242  0.70900  0.45081  1.0000
  H   H809      1.0  0.63826  0.51968  0.22438  1.0000
  H   H810      1.0  0.54861  0.87936  0.50340  1.0000
  S   S105      1.0  0.40245  0.97451  0.09187  1.0000
  H   H811      1.0  0.63973  0.64281  0.34224  1.0000
  Fe  Fe50      1.0  0.37294  0.96620  0.11487  1.0000
  S   S106      1.0  0.38504  0.94236  0.15651  1.0000
  Fe  Fe51      1.0  0.37609  0.94625  0.05819  1.0000
  S   S107      1.0  0.38611  0.90375  0.02992  1.0000
  H   H812      1.0  0.55490  0.87277  0.47120  1.0000
  C   C454      1.0  0.39218  0.80084  0.14197  1.0000
  S   S108      1.0  0.59302  0.53830  0.41806  1.0000
  C   C455      1.0  0.58581  0.66088  0.44362  1.0000
  C   C456      1.0  0.56558  0.63610  0.43988  1.0000
  C   C457      1.0  0.56821  0.59877  0.43205  1.0000
  C   C458      1.0  0.59117  0.58548  0.42842  1.0000
  C   C459      1.0  0.61159  0.61000  0.43269  1.0000
  C   C460      1.0  0.60882  0.64767  0.43995  1.0000
  H   H813      1.0  0.54774  0.64598  0.44245  1.0000
  H   H814      1.0  0.55221  0.58029  0.42861  1.0000
  H   H815      1.0  0.62943  0.60007  0.43021  1.0000
  H   H816      1.0  0.62456  0.66667  0.44275  1.0000
  S   S109      1.0  0.48901  0.65508  0.50210  1.0000
  C   C461      1.0  0.40354  0.78086  0.42771  1.0000
  H   H817      1.0  0.40510  0.80919  0.43700  1.0000
  C   C462      1.0  0.45025  0.75263  0.06437  1.0000
  C   C463      1.0  0.49096  0.51672  0.10601  1.0000
  C   C464      1.0  0.37807  0.95188  0.23243  1.0000
  C   C465      1.0  0.38472  0.93981  0.20917  1.0000
  C   C466      1.0  0.37559  0.95819  0.18509  1.0000
  H   H818      1.0  0.38508  0.93731  0.25072  1.0000
  H   H819      1.0  0.39697  0.91604  0.20982  1.0000
  C   C467      1.0  0.43141  0.86833  0.39026  1.0000
  C   C468      1.0  0.43896  0.89475  0.41048  1.0000
  C   C469      1.0  0.45729  0.88550  0.43319  1.0000
  C   C470      1.0  0.46833  0.84982  0.43597  1.0000
  C   C471      1.0  0.46084  0.82334  0.41576  1.0000
  C   C472      1.0  0.44246  0.83260  0.39303  1.0000
  H   H820      1.0  0.43065  0.92232  0.40865  1.0000
  H   H821      1.0  0.46297  0.90619  0.44870  1.0000
  H   H822      1.0  0.46925  0.79586  0.41759  1.0000
  H   H823      1.0  0.43679  0.81199  0.37747  1.0000
  N   N29       1.0  0.40860  0.81391  0.10006  1.0000
  C   C473      1.0  0.56990  0.65296  0.04120  1.0000
  C   C474      1.0  0.55749  0.65602  0.06165  1.0000
  C   C475      1.0  0.56343  0.63154  0.08331  1.0000
  C   C476      1.0  0.58168  0.60359  0.08475  1.0000
  C   C477      1.0  0.59398  0.60043  0.06421  1.0000
  C   C478      1.0  0.58814  0.62503  0.04262  1.0000
  H   H824      1.0  0.54349  0.67742  0.06091  1.0000
  H   H825      1.0  0.55383  0.63429  0.09910  1.0000
  H   H826      1.0  0.60805  0.57912  0.06500  1.0000
  H   H827      1.0  0.59792  0.62246  0.02697  1.0000
  C   C479      1.0  0.46374  0.85173  0.04112  1.0000
  H   H828      1.0  0.40797  0.87286  0.13820  1.0000
  C   C480      1.0  0.41622  0.88457  0.03459  1.0000
  C   C481      1.0  0.43545  0.89481  0.05608  1.0000
  C   C482      1.0  0.45920  0.87857  0.05924  1.0000
  H   H829      1.0  0.43200  0.91505  0.07029  1.0000
  H   H830      1.0  0.39083  0.80580  0.38915  1.0000
  H   H831      1.0  0.38376  0.75661  0.39015  1.0000
  C   C483      1.0  0.51638  0.58197  0.02802  1.0000
  H   H832      1.0  0.45324  0.88425  0.15759  1.0000
  C   C484      1.0  0.51362  0.56438  0.05377  1.0000
  H   H833      1.0  0.36603  0.79093  0.40396  1.0000
  H   H834      1.0  0.40494  0.65937  0.47468  1.0000
  H   H835      1.0  0.36034  0.68119  0.49770  1.0000
  H   H836      1.0  0.59579  0.61772  0.25859  1.0000
  C   C485      1.0  0.44312  0.90025  0.14023  1.0000
  C   C486      1.0  0.58159  0.59744  0.26210  1.0000
  H   H837      1.0  0.63388  0.86147  0.48452  1.0000
  S   S110      1.0  0.35734  0.99947  0.04129  1.0000
  H   H838      1.0  0.52936  0.57319  0.07012  1.0000
  H   H839      1.0  0.40937  0.00015  0.26943  1.0000
  H   H840      1.0  0.62347  0.82143  0.05065  1.0000
  H   H841      1.0  0.37692  0.68330  0.45760  1.0000
  H   H842      1.0  0.58003  0.53479  0.31380  1.0000
  S   S111      1.0  0.64055  0.50689  0.09362  1.0000
  H   H843      1.0  0.45739  0.96832  0.09655  1.0000
  H   H844      1.0  0.37729  0.78066  0.17433  1.0000
  Fe  Fe52      1.0  0.61879  0.52877  0.12168  1.0000
  H   H845      1.0  0.49596  0.57363  0.05856  1.0000
  H   H846      1.0  0.36985  0.75128  0.14532  1.0000
  C   C487      1.0  0.36235  0.98271  0.23189  1.0000
  H   H847      1.0  0.37892  0.76436  0.45235  1.0000
  H   H848      1.0  0.44546  0.75578  0.10385  1.0000
  N   N30       1.0  0.41487  0.74010  0.46960  1.0000
  H   H849      1.0  0.40103  0.75109  0.16643  1.0000
  H   H850      1.0  0.56491  0.59912  0.24547  1.0000
  C   C488      1.0  0.42061  0.87791  0.12495  1.0000
  H   H851      1.0  0.45602  0.90687  0.12737  1.0000
  H   H852      1.0  0.58995  0.82256  0.03837  1.0000
  C   C489      1.0  0.41778  0.79303  0.07880  1.0000
  H   H853      1.0  0.46503  0.99194  0.26791  1.0000
  C   C490      1.0  0.35317  0.00098  0.20782  1.0000
  H   H854      1.0  0.37774  0.85156  0.10110  1.0000
  H   H855      1.0  0.40470  0.76988  0.07041  1.0000
  C   C491      1.0  0.42532  0.77558  0.48417  1.0000
  H   H856      1.0  0.44257  0.82670  0.12949  1.0000
  H   H857      1.0  0.46777  0.67942  0.43788  1.0000
  C   C492      1.0  0.53991  0.54222  0.48235  1.0000
  N   N31       1.0  0.59221  0.60793  0.33858  1.0000
  C   C493      1.0  0.58072  0.64551  0.34166  1.0000
  C   C494      1.0  0.59742  0.60533  0.31149  1.0000
  C   C495      1.0  0.57431  0.57770  0.34267  1.0000
  C   C496      1.0  0.61657  0.60294  0.35862  1.0000
  C   C497      1.0  0.63547  0.63597  0.36139  1.0000
  C   C498      1.0  0.57568  0.65370  0.36921  1.0000
  C   C499      1.0  0.58051  0.53738  0.33509  1.0000
  C   C500      1.0  0.57429  0.60644  0.28799  1.0000
  H   H858      1.0  0.40620  0.97665  0.01453  1.0000
  S   S112      1.0  0.38447  0.97945  0.38146  1.0000
  C   C501      1.0  0.56595  0.69348  0.37088  1.0000
  Fe  Fe53      1.0  0.51213  0.70753  0.50030  1.0000
  H   H859      1.0  0.56237  0.64804  0.32739  1.0000
  H   H860      1.0  0.59237  0.66858  0.33658  1.0000
  H   H861      1.0  0.60965  0.62883  0.30836  1.0000
  H   H862      1.0  0.60833  0.57957  0.30962  1.0000
  H   H863      1.0  0.55492  0.58414  0.33180  1.0000
  H   H864      1.0  0.57346  0.57674  0.36378  1.0000
  H   H865      1.0  0.61330  0.59730  0.37849  1.0000
  H   H866      1.0  0.62630  0.57753  0.35369  1.0000
  H   H867      1.0  0.62812  0.66150  0.36913  1.0000
  S   S113      1.0  0.35407  0.00037  0.26064  1.0000
  H   H868      1.0  0.56145  0.63410  0.37344  1.0000
  H   H869      1.0  0.59283  0.65091  0.38497  1.0000
  H   H870      1.0  0.55978  0.58593  0.29015  1.0000
  H   H871      1.0  0.39079  0.76295  0.10885  1.0000
  C   C502      1.0  0.65991  0.92172  0.47758  1.0000
  H   H872      1.0  0.56588  0.63482  0.28625  1.0000
  C   C503      1.0  0.40328  0.78552  0.11934  1.0000
  H   H873      1.0  0.43895  0.97105  0.24502  1.0000
  C   C504      1.0  0.47495  0.99662  0.06868  1.0000
  H   H874      1.0  0.43671  0.92706  0.14731  1.0000
  H   H875      1.0  0.43130  0.65158  0.02057  1.0000
  H   H876      1.0  0.56342  0.59245  0.48774  1.0000
  H   H877      1.0  0.56200  0.69817  0.39058  1.0000
  H   H878      1.0  0.58013  0.71440  0.36827  1.0000
  H   H879      1.0  0.54841  0.69778  0.35571  1.0000
  H   H880      1.0  0.63728  0.54267  0.26927  1.0000
  H   H881      1.0  0.37530  0.81796  0.13460  1.0000
  H   H882      1.0  0.43704  0.72882  0.05866  1.0000
  H   H883      1.0  0.44539  0.70083  0.47924  1.0000
  H   H884      1.0  0.47181  0.62135  0.02684  1.0000
  H   H885      1.0  0.54821  0.91879  0.48198  1.0000
  H   H886      1.0  0.48204  0.94768  0.02797  1.0000
  H   H887      1.0  0.45415  0.95652  0.30459  1.0000
  H   H888      1.0  0.41815  0.81211  0.06207  1.0000
  S   S114      1.0  0.65742  0.52721  0.39118  1.0000
  H   H889      1.0  0.38703  0.72738  0.43359  1.0000
  H   H890      1.0  0.45088  0.73774  0.45912  1.0000
  H   H891      1.0  0.42203  0.77362  0.42415  1.0000
  C   C505      1.0  0.44566  0.98162  0.26551  1.0000
  S   S115      1.0  0.64099  0.50634  0.31892  1.0000
  H   H892      1.0  0.66945  0.60296  0.37259  1.0000
  H   H893      1.0  0.45866  0.92595  0.27847  1.0000
  H   H894      1.0  0.59648  0.84378  0.49163  1.0000
  Fe  Fe54      1.0  0.36731  0.98502  0.30421  1.0000
  H   H895      1.0  0.48393  0.99690  0.11142  1.0000
  Fe  Fe55      1.0  0.50136  0.79333  0.01368  1.0000
  Fe  Fe56      1.0  0.34632  0.98628  0.35403  1.0000
  H   H896      1.0  0.65702  0.61878  0.40005  1.0000
  S   S116      1.0  0.65240  0.53039  0.15618  1.0000
  H   H897      1.0  0.42068  0.77087  0.12912  1.0000
  C   C506      1.0  0.42907  0.69305  0.43734  1.0000
  S   S117      1.0  0.49349  0.83107  0.04599  1.0000
  C   C507      1.0  0.55765  0.89192  0.48853  1.0000
  H   H898      1.0  0.44495  0.64910  0.41741  1.0000
  C   C508      1.0  0.38538  0.83494  0.08677  1.0000
  H   H899      1.0  0.62501  0.75842  0.03127  1.0000
  C   C509      1.0  0.60836  0.77588  0.02337  1.0000
  H   H900      1.0  0.45783  0.59184  0.50459  1.0000
  C   C510      1.0  0.39505  0.75180  0.44590  1.0000
  H   H901      1.0  0.58925  0.56859  0.26250  1.0000
  C   C511      1.0  0.38482  0.78356  0.40115  1.0000
  H   H902      1.0  0.59934  0.52936  0.34628  1.0000
  H   H903      1.0  0.52985  0.55009  0.46217  1.0000
  S   S118      1.0  0.40654  0.97738  0.32778  1.0000
  C   C512      1.0  0.46472  0.95540  0.01336  1.0000
  C   C513      1.0  0.35970  0.98881  0.18455  1.0000
  H   H904      1.0  0.66406  0.95196  0.47584  1.0000
  C   C514      1.0  0.44650  0.94807  0.28374  1.0000
  H   H905      1.0  0.41173  0.67683  0.43609  1.0000
  H   H906      1.0  0.67278  0.65122  0.38311  1.0000
  C   C515      1.0  0.44444  0.84140  0.01975  1.0000
  C   C516      1.0  0.56167  0.50923  0.34112  1.0000
  H   H907      1.0  0.48060  0.55583  0.01053  1.0000
  C   C517      1.0  0.42887  0.84101  0.11354  1.0000
  C   C518      1.0  0.60630  0.80397  0.04503  1.0000
  H   H908      1.0  0.66100  0.69655  0.01890  1.0000
  H   H909      1.0  0.42631  0.71045  0.41938  1.0000
  C   C519      1.0  0.39038  0.67989  0.47678  1.0000
  C   C520      1.0  0.43594  0.71845  0.46237  1.0000
  H   H910      1.0  0.38880  0.73484  0.49461  1.0000
  H   H911      1.0  0.45150  0.64454  0.45264  1.0000
  C   C521      1.0  0.54969  0.57842  0.49708  1.0000
  C   C522      1.0  0.44965  0.66491  0.43632  1.0000
  H   H912      1.0  0.57562  0.52977  0.47344  1.0000
  H   H913      1.0  0.52628  0.52977  0.49252  1.0000
  H   H914      1.0  0.42753  0.93604  0.28178  1.0000
  H   H915      1.0  0.51437  0.61275  0.02980  1.0000
  H   H916      1.0  0.39025  0.85607  0.07323  1.0000
  H   H917      1.0  0.43983  0.85066  0.09947  1.0000
  C   C523      1.0  0.44413  0.77515  0.08711  1.0000
  H   H918      1.0  0.40637  0.81788  0.15578  1.0000
  C   C524      1.0  0.40286  0.71745  0.48773  1.0000
  C   C525      1.0  0.58544  0.89894  0.50021  1.0000
  H   H919      1.0  0.43597  0.79200  0.47229  1.0000
  H   H920      1.0  0.43945  0.97402  0.04785  1.0000
  Fe  Fe57      1.0  0.62589  0.50726  0.40811  1.0000
  C   C526      1.0  0.42082  0.85791  0.01644  1.0000
  H   H921      1.0  0.52810  0.51194  0.10031  1.0000
  H   H922      1.0  0.45884  0.79694  0.09288  1.0000
  H   H923      1.0  0.63037  0.93310  0.49688  1.0000
  H   H924      1.0  0.48178  0.52170  0.08503  1.0000
  C   C527      1.0  0.46715  0.99513  0.09489  1.0000
  H   H925      1.0  0.60384  0.78864  0.06270  1.0000
  H   H926      1.0  0.53567  0.57665  0.02575  1.0000
  H   H927      1.0  0.54242  0.51649  0.33042  1.0000
  C   C528      1.0  0.46001  0.62173  0.00650  1.0000
  H   H928      1.0  0.45044  0.93527  0.01683  1.0000
  S   S119      1.0  0.49614  0.73067  0.01270  1.0000
  C   C529      1.0  0.63954  0.51306  0.26595  1.0000
  H   H929      1.0  0.40990  0.79413  0.48705  1.0000
  H   H930      1.0  0.49535  0.54431  0.11606  1.0000
  C   C530      1.0  0.45188  0.99749  0.04507  1.0000
  H   H931      1.0  0.59149  0.75794  0.01967  1.0000
  H   H932      1.0  0.64366  0.65422  0.00809  1.0000
  H   H933      1.0  0.41695  0.70925  0.50570  1.0000
  H   H934      1.0  0.53395  0.59803  0.49661  1.0000
  H   H935      1.0  0.54715  0.51446  0.43312  1.0000
  C   C531      1.0  0.56158  0.51454  0.48189  1.0000
  H   H936      1.0  0.56269  0.50875  0.36262  1.0000
  H   H937      1.0  0.50456  0.94286  0.49369  1.0000
  H   H938      1.0  0.57073  0.50929  0.50288  1.0000
  H   H939      1.0  0.59308  0.91155  0.48443  1.0000
  S   S120      1.0  0.56344  0.68312  0.01350  1.0000
  H   H940      1.0  0.36841  0.63502  0.48821  1.0000
  S   S121      1.0  0.34820  0.93281  0.08213  1.0000
  C   C532      1.0  0.64749  0.91604  0.50058  1.0000
  H   H941      1.0  0.56394  0.51446  0.05787  1.0000
  H   H942      1.0  0.53927  0.98822  0.50443  1.0000
  S   S122      1.0  0.35146  0.94040  0.32611  1.0000
  H   H943      1.0  0.44937  0.77072  0.04697  1.0000
  H   H944      1.0  0.63662  0.79767  0.49792  1.0000
  C   C533      1.0  0.64222  0.87386  0.50428  1.0000
  H   H945      1.0  0.36890  0.79770  0.05331  1.0000
  H   H946      1.0  0.35783  0.78891  0.08272  1.0000
  H   H947      1.0  0.45190  0.68149  0.00768  1.0000
  C   C534      1.0  0.36356  0.81098  0.07048  1.0000
  S   S123      1.0  0.54023  0.79054  0.00664  1.0000
  Fe  Fe58      1.0  0.67346  0.50353  0.12844  1.0000
  H   H948      1.0  0.61514  0.70731  0.00625  1.0000
  H   H949      1.0  0.34531  0.85760  0.04685  1.0000
  C   C535      1.0  0.61133  0.79629  0.99820  1.0000
  S   S124      1.0  0.51698  0.73193  0.95854  1.0000
  H   H950      1.0  0.43415  0.54616  0.91815  1.0000
  S   S125      1.0  0.48260  0.80136  0.97118  1.0000
  C   C536      1.0  0.38943  0.51127  0.72744  1.0000
  Fe  Fe59      1.0  0.48019  0.73846  0.96923  1.0000
  S   S126      1.0  0.44380  0.70892  0.95048  1.0000
  Fe  Fe60      1.0  0.52097  0.79452  0.96389  1.0000
  S   S127      1.0  0.53230  0.82910  0.93204  1.0000
  Fe  Fe61      1.0  0.38369  0.50595  0.60966  1.0000
  H   H951      1.0  0.36712  0.66929  0.65258  1.0000
  C   C537      1.0  0.51182  0.95230  0.51441  1.0000
  S   S128      1.0  0.36389  0.55921  0.59557  1.0000
  Fe  Fe62      1.0  0.39081  0.56457  0.56931  1.0000
  S   S129      1.0  0.40921  0.62203  0.57013  1.0000
  C   C538      1.0  0.65930  0.92728  0.58297  1.0000
  H   H952      1.0  0.42820  0.65405  0.98555  1.0000
  S   S130      1.0  0.36532  0.53438  0.53536  1.0000
  H   H953      1.0  0.46813  0.80310  0.54191  1.0000
  S   S131      1.0  0.62480  0.94047  0.94821  1.0000
  S   S132      1.0  0.58107  0.78318  0.56321  1.0000
  Fe  Fe63      1.0  0.39858  0.54902  0.84662  1.0000
  S   S133      1.0  0.43429  0.58208  0.86242  1.0000
  H   H954      1.0  0.45326  0.53238  0.65425  1.0000
  S   S134      1.0  0.36250  0.57091  0.82204  1.0000
  H   H955      1.0  0.63673  0.84641  0.97238  1.0000
  H   H956      1.0  0.54638  0.75285  0.91784  1.0000
  S   S135      1.0  0.59229  0.95195  0.60488  1.0000
  H   H957      1.0  0.52515  0.57689  0.97044  1.0000
  H   H958      1.0  0.52148  0.96663  0.89696  1.0000
  C   C539      1.0  0.58304  0.82961  0.57580  1.0000
  C   C540      1.0  0.56567  0.85690  0.56477  1.0000
  C   C541      1.0  0.56859  0.89402  0.57435  1.0000
  C   C542      1.0  0.58894  0.90434  0.59489  1.0000
  C   C543      1.0  0.60614  0.87697  0.60622  1.0000
  C   C544      1.0  0.60313  0.83973  0.59674  1.0000
  H   H959      1.0  0.55002  0.84936  0.54883  1.0000
  H   H960      1.0  0.55507  0.91489  0.56570  1.0000
  H   H961      1.0  0.62178  0.88450  0.62217  1.0000
  H   H962      1.0  0.61657  0.81872  0.60546  1.0000
  C   C545      1.0  0.53677  0.63844  0.94381  1.0000
  H   H963      1.0  0.48941  0.89457  0.99868  1.0000
  C   C546      1.0  0.43161  0.63086  0.55142  1.0000
  C   C547      1.0  0.44436  0.66542  0.55428  1.0000
  C   C548      1.0  0.46216  0.67332  0.53949  1.0000
  H   H964      1.0  0.45066  0.53716  0.97827  1.0000
  C   C549      1.0  0.47674  0.62577  0.98637  1.0000
  C   C550      1.0  0.43654  0.60448  0.53338  1.0000
  C   C551      1.0  0.63966  0.75631  0.52830  1.0000
  H   H965      1.0  0.40097  0.51034  0.74724  1.0000
  C   C552      1.0  0.62865  0.79258  0.51526  1.0000
  H   H966      1.0  0.62555  0.92088  0.53890  1.0000
  H   H967      1.0  0.44469  0.72323  0.66994  1.0000
  H   H968      1.0  0.57125  0.77688  0.96181  1.0000
  H   H969      1.0  0.56458  0.73181  0.89719  1.0000
  H   H970      1.0  0.48527  0.54557  0.95200  1.0000
  H   H971      1.0  0.43140  0.57986  0.72375  1.0000
  C   C553      1.0  0.55663  0.86268  0.93693  1.0000
  C   C554      1.0  0.56332  0.87829  0.91487  1.0000
  C   C555      1.0  0.58342  0.90370  0.91794  1.0000
  C   C556      1.0  0.59724  0.91320  0.94315  1.0000
  C   C557      1.0  0.59016  0.89826  0.96520  1.0000
  C   C558      1.0  0.56968  0.87359  0.96213  1.0000
  H   H972      1.0  0.55317  0.87017  0.89529  1.0000
  H   H973      1.0  0.58882  0.91478  0.90083  1.0000
  H   H974      1.0  0.60074  0.90558  0.98477  1.0000
  H   H975      1.0  0.56424  0.86255  0.97921  1.0000
  C   C559      1.0  0.43596  0.61840  0.88599  1.0000
  C   C560      1.0  0.41713  0.62370  0.89956  1.0000
  C   C561      1.0  0.41961  0.65196  0.91899  1.0000
  C   C562      1.0  0.44082  0.67523  0.92488  1.0000
  C   C563      1.0  0.45945  0.67028  0.91102  1.0000
  C   C564      1.0  0.45712  0.64176  0.89182  1.0000
  H   H976      1.0  0.40073  0.60589  0.89521  1.0000
  H   H977      1.0  0.40506  0.65572  0.92955  1.0000
  H   H978      1.0  0.47558  0.68859  0.91497  1.0000
  H   H979      1.0  0.47167  0.63800  0.88125  1.0000
  H   H980      1.0  0.37251  0.97560  0.97452  1.0000
  C   C565      1.0  0.62949  0.89191  0.54600  1.0000
  H   H981      1.0  0.47061  0.57561  0.65370  1.0000
  H   H982      1.0  0.49305  0.94538  0.92623  1.0000
  C   C566      1.0  0.58588  0.75478  0.96463  1.0000
  H   H983      1.0  0.58102  0.73653  0.97976  1.0000
  H   H984      1.0  0.44756  0.50475  0.93563  1.0000
  H   H985      1.0  0.66027  0.75852  0.53494  1.0000
  H   H986      1.0  0.63947  0.73743  0.96265  1.0000
  H   H987      1.0  0.54706  0.65550  0.96071  1.0000
  C   C567      1.0  0.44319  0.77039  0.51157  1.0000
  H   H988      1.0  0.58841  0.84786  0.52255  1.0000
  C   C568      1.0  0.63391  0.82613  0.53491  1.0000
  H   H989      1.0  0.65421  0.82551  0.54425  1.0000
  H   H990      1.0  0.39761  0.58549  0.74899  1.0000
  H   H991      1.0  0.42678  0.57786  0.53092  1.0000
  H   H992      1.0  0.43620  0.57843  0.96131  1.0000
  H   H993      1.0  0.52632  0.61886  0.98933  1.0000
  H   H994      1.0  0.43569  0.72568  0.63452  1.0000
  C   C569      1.0  0.34998  0.52432  0.69748  1.0000
  H   H995      1.0  0.44066  0.68597  0.56820  1.0000
  H   H996      1.0  0.62476  0.98742  0.53790  1.0000
  H   H997      1.0  0.40422  0.63506  0.75296  1.0000
  N   N32       1.0  0.40765  0.61953  0.67428  1.0000
  C   C570      1.0  0.38469  0.61387  0.65232  1.0000
  C   C571      1.0  0.42756  0.59163  0.67154  1.0000
  C   C572      1.0  0.40023  0.61204  0.69995  1.0000
  C   C573      1.0  0.41741  0.65924  0.67538  1.0000
  C   C574      1.0  0.42489  0.67391  0.65043  1.0000
  H   H998      1.0  0.54474  0.98256  0.55522  1.0000
  C   C575      1.0  0.43012  0.58177  0.64323  1.0000
  C   C576      1.0  0.45381  0.55931  0.64383  1.0000
  S   S136      1.0  0.66328  0.96468  0.65670  1.0000
  H   H999      1.0  0.37831  0.58414  0.65215  1.0000
  H   H1000     1.0  0.38884  0.61809  0.63275  1.0000
  H   H1001     1.0  0.44610  0.60110  0.68332  1.0000
  H   H1002     1.0  0.42386  0.56409  0.67987  1.0000
  H   H1003     1.0  0.38855  0.58616  0.69821  1.0000
  H   H1004     1.0  0.38831  0.63508  0.70455  1.0000
  H   H1005     1.0  0.43435  0.66255  0.69159  1.0000
  H   H1006     1.0  0.44257  0.66058  0.64855  1.0000
  C   C577      1.0  0.45413  0.61251  0.51845  1.0000
  H   H1007     1.0  0.45684  0.88871  0.98230  1.0000
  H   H1008     1.0  0.41405  0.56422  0.63314  1.0000
  H   H1009     1.0  0.43044  0.60657  0.63084  1.0000
  Fe  Fe64      1.0  0.55294  0.76410  0.52612  1.0000
  H   H1010     1.0  0.44876  0.59570  0.00352  1.0000
  H   H1011     1.0  0.41027  0.66863  0.63226  1.0000
  H   H1012     1.0  0.40599  0.84974  0.99982  1.0000
  C   C578      1.0  0.36437  0.52150  0.72344  1.0000
  H   H1013     1.0  0.45359  0.95476  0.96974  1.0000
  C   C579      1.0  0.63943  0.82263  0.95946  1.0000
  S   S137      1.0  0.51109  0.76499  0.51808  1.0000
  C   C580      1.0  0.52717  0.96976  0.91873  1.0000
  H   H1014     1.0  0.53405  0.65577  0.92579  1.0000
  H   H1015     1.0  0.63160  0.74990  0.54544  1.0000
  C   C581      1.0  0.46962  0.94672  0.98580  1.0000
  Fe  Fe65      1.0  0.53339  0.72810  0.00223  1.0000
  C   C582      1.0  0.42190  0.60708  0.72473  1.0000
  H   H1016     1.0  0.63499  0.73273  0.51394  1.0000
  C   C583      1.0  0.44891  0.55458  0.96048  1.0000
  H   H1017     1.0  0.48652  0.96175  0.98320  1.0000
  Fe  Fe66      1.0  0.62579  0.98128  0.63148  1.0000
  H   H1018     1.0  0.60010  0.72285  0.93424  1.0000
  H   H1019     1.0  0.65993  0.95252  0.57083  1.0000
  C   C584      1.0  0.47411  0.90489  0.98249  1.0000
  C   C585      1.0  0.51337  0.93956  0.93049  1.0000
  H   H1020     1.0  0.58079  0.98012  0.54212  1.0000
  C   C586      1.0  0.41221  0.60728  0.74992  1.0000
  C   C587      1.0  0.45537  0.80761  0.52235  1.0000
  Fe  Fe67      1.0  0.63652  0.98441  0.92181  1.0000
  H   H1021     1.0  0.34891  0.51804  0.65591  1.0000
  H   H1022     1.0  0.57295  0.70383  0.94199  1.0000
  H   H1023     1.0  0.62868  0.85581  0.92369  1.0000
  H   H1024     1.0  0.61530  0.88629  0.55745  1.0000
  H   H1025     1.0  0.61656  0.78109  0.93487  1.0000
  C   C588      1.0  0.43640  0.53027  0.93678  1.0000
  C   C589      1.0  0.38848  0.99520  0.97592  1.0000
  N   N33       1.0  0.61141  0.77216  0.97431  1.0000
  H   H1026     1.0  0.43602  0.62968  0.72665  1.0000
  H   H1027     1.0  0.47224  0.69963  0.54224  1.0000
  H   H1028     1.0  0.65599  0.80642  0.96957  1.0000
  H   H1029     1.0  0.50206  0.61055  0.93012  1.0000
  H   H1030     1.0  0.35522  0.63413  0.67127  1.0000
  H   H1031     1.0  0.39228  0.99813  0.95604  1.0000
  H   H1032     1.0  0.61377  0.68818  0.97435  1.0000
  C   C590      1.0  0.61564  0.79768  0.95273  1.0000
  S   S138      1.0  0.38034  0.51167  0.87119  1.0000
  S   S139      1.0  0.35015  0.53144  0.74997  1.0000
  H   H1033     1.0  0.54752  0.96445  0.92500  1.0000
  S   S140      1.0  0.55400  0.70432  0.51219  1.0000
  H   H1034     1.0  0.52087  0.93789  0.95212  1.0000
  N   N34       1.0  0.49019  0.59098  0.98051  1.0000
  C   C591      1.0  0.36208  0.63926  0.65324  1.0000
  C   C592      1.0  0.47447  0.56954  0.95741  1.0000
  C   C593      1.0  0.51419  0.60222  0.97314  1.0000
  H   H1035     1.0  0.49595  0.95331  0.52420  1.0000
  H   H1036     1.0  0.42776  0.60147  0.76717  1.0000
  C   C594      1.0  0.56560  0.74952  0.91499  1.0000
  C   C595      1.0  0.51139  0.62636  0.94808  1.0000
  Fe  Fe68      1.0  0.36404  0.52276  0.79435  1.0000
  H   H1037     1.0  0.66094  0.86057  0.51035  1.0000
  H   H1038     1.0  0.47936  0.89964  0.96349  1.0000
  H   H1039     1.0  0.62435  0.81995  0.55103  1.0000
  H   H1040     1.0  0.67073  0.88969  0.55550  1.0000
  H   H1041     1.0  0.65645  0.86744  0.57915  1.0000
  H   H1042     1.0  0.54812  0.61359  0.94132  1.0000
  C   C596      1.0  0.65530  0.89184  0.56580  1.0000
  H   H1043     1.0  0.46507  0.63696  0.96780  1.0000
  H   H1044     1.0  0.46959  0.58766  0.93973  1.0000
  H   H1045     1.0  0.52556  0.93134  0.52444  1.0000
  H   H1046     1.0  0.59952  0.81691  0.94636  1.0000
  N   N35       1.0  0.62634  0.86432  0.52342  1.0000
  H   H1047     1.0  0.50054  0.65190  0.94990  1.0000
  H   H1048     1.0  0.51592  0.91191  0.92164  1.0000
  H   H1049     1.0  0.58674  0.91921  0.51667  1.0000
  H   H1050     1.0  0.41241  0.73143  0.65339  1.0000
  C   C597      1.0  0.42969  0.71617  0.65233  1.0000
  H   H1051     1.0  0.57295  0.77751  0.91146  1.0000
  H   H1052     1.0  0.40371  0.67904  0.68055  1.0000
  C   C598      1.0  0.38515  0.50481  0.67981  1.0000
  C   C599      1.0  0.58218  0.73065  0.93897  1.0000
  H   H1053     1.0  0.66035  0.92757  0.51852  1.0000
  C   C600      1.0  0.41131  0.97978  0.99533  1.0000
  S   S141      1.0  0.66180  0.98149  0.89339  1.0000
  C   C601      1.0  0.36030  0.51615  0.67576  1.0000
  H   H1054     1.0  0.64842  0.75543  0.99502  1.0000
  H   H1055     1.0  0.45522  0.55296  0.62336  1.0000
  C   C602      1.0  0.62556  0.70483  0.99061  1.0000
  C   C603      1.0  0.46710  0.64682  0.52149  1.0000
  C   C604      1.0  0.49724  0.56532  0.00387  1.0000
  H   H1056     1.0  0.49019  0.64884  0.99407  1.0000
  H   H1057     1.0  0.41757  0.52144  0.93874  1.0000
  H   H1058     1.0  0.50545  0.53893  0.99812  1.0000
  C   C605      1.0  0.63213  0.74357  0.98041  1.0000
  H   H1059     1.0  0.60831  0.78768  0.50834  1.0000
  H   H1060     1.0  0.41519  0.95160  0.98810  1.0000
  C   C606      1.0  0.64902  0.68201  0.00160  1.0000
  C   C607      1.0  0.64499  0.83971  0.93465  1.0000
  C   C608      1.0  0.59905  0.86184  0.50953  1.0000
  H   H1061     1.0  0.43289  0.76019  0.52610  1.0000
  H   H1062     1.0  0.64410  0.93053  0.59354  1.0000
  H   H1063     1.0  0.55864  0.57255  0.51799  1.0000
  H   H1064     1.0  0.64965  0.81751  0.92158  1.0000
  H   H1065     1.0  0.66109  0.85932  0.94022  1.0000
  H   H1066     1.0  0.56295  0.99386  0.96613  1.0000
  H   H1067     1.0  0.65979  0.67753  0.98630  1.0000
  Fe  Fe69      1.0  0.34398  0.53012  0.84432  1.0000
  S   S142      1.0  0.41232  0.51317  0.58530  1.0000
  C   C609      1.0  0.52403  0.99095  0.51491  1.0000
  H   H1068     1.0  0.44098  0.82828  0.52465  1.0000
  H   H1069     1.0  0.59638  0.81768  0.99319  1.0000
  H   H1070     1.0  0.45802  0.75003  0.51033  1.0000
  H   H1071     1.0  0.60257  0.00086  0.50824  1.0000
  H   H1072     1.0  0.38859  0.65887  0.51549  1.0000
  H   H1073     1.0  0.62912  0.81213  0.00447  1.0000
  H   H1074     1.0  0.46642  0.81930  0.50896  1.0000
  H   H1075     1.0  0.34572  0.63709  0.61094  1.0000
  S   S143      1.0  0.40158  0.50402  0.81704  1.0000
  C   C610      1.0  0.44181  0.65427  0.00493  1.0000
  H   H1076     1.0  0.44764  0.82053  0.00579  1.0000
  S   S144      1.0  0.87194  0.12456  0.04530  1.0000
  S   S145      1.0  0.92074  0.15892  0.02770  1.0000
  C   C611      1.0  0.99457  0.12208  0.37671  1.0000
  S   S146      1.0  0.92929  0.05466  0.03657  1.0000
  Fe  Fe70      1.0  0.88973  0.18152  0.04476  1.0000
  S   S147      1.0  0.89740  0.21618  0.08315  1.0000
  H   H1077     1.0  0.98386  0.46776  0.42448  1.0000
  Fe  Fe71      1.0  0.88903  0.43599  0.12343  1.0000
  S   S148      1.0  0.88400  0.42487  0.16406  1.0000
  S   S149      1.0  0.88425  0.39415  0.08915  1.0000
  Fe  Fe72      1.0  0.91468  0.46693  0.17846  1.0000
  S   S150      1.0  0.95083  0.46379  0.21001  1.0000
  Fe  Fe73      1.0  0.85824  0.47490  0.15719  1.0000
  S   S151      1.0  0.92192  0.47406  0.13814  1.0000
  C   C612      1.0  0.99572  0.31643  0.22083  1.0000
  S   S152      1.0  0.91330  0.34489  0.45514  1.0000
  C   C613      1.0  0.97426  0.13952  0.38936  1.0000
  S   S153      1.0  0.80772  0.37994  0.48047  1.0000
  H   H1078     1.0  0.92854  0.37689  0.19769  1.0000
  H   H1079     1.0  0.80243  0.45963  0.49386  1.0000
  H   H1080     1.0  0.92228  0.19093  0.17490  1.0000
  H   H1081     1.0  0.91349  0.40661  0.40907  1.0000
  C   C614      1.0  0.78463  0.41447  0.46889  1.0000
  C   C615      1.0  0.78620  0.45108  0.47897  1.0000
  C   C616      1.0  0.76643  0.47644  0.47010  1.0000
  C   C617      1.0  0.74492  0.46552  0.45112  1.0000
  C   C618      1.0  0.74361  0.42917  0.44073  1.0000
  C   C619      1.0  0.76332  0.40387  0.44960  1.0000
  H   H1082     1.0  0.95736  0.08754  0.08905  1.0000
  C   C620      1.0  0.80771  0.50275  0.06786  1.0000
  H   H1083     1.0  0.72746  0.42064  0.42576  1.0000
  H   H1084     1.0  0.76216  0.37581  0.44141  1.0000
  H   H1085     1.0  0.98244  0.06007  0.16030  1.0000
  H   H1086     1.0  0.72635  0.44561  0.06695  1.0000
  H   H1087     1.0  0.80043  0.34408  0.06425  1.0000
  H   H1088     1.0  0.72170  0.35704  0.44792  1.0000
  C   C621      1.0  0.79044  0.47822  0.15342  1.0000
  C   C622      1.0  0.80664  0.37382  0.06384  1.0000
  C   C623      1.0  0.92992  0.01384  0.05592  1.0000
  C   C624      1.0  0.96554  0.38854  0.28279  1.0000
  C   C625      1.0  0.94123  0.39179  0.26703  1.0000
  C   C626      1.0  0.93614  0.41595  0.24526  1.0000
  C   C627      1.0  0.95539  0.43703  0.23910  1.0000
  C   C628      1.0  0.97954  0.43470  0.25537  1.0000
  C   C629      1.0  0.98465  0.41037  0.27704  1.0000
  H   H1089     1.0  0.92632  0.37516  0.27152  1.0000
  H   H1090     1.0  0.91744  0.41776  0.23302  1.0000
  H   H1091     1.0  0.99452  0.45095  0.25077  1.0000
  C   C630      1.0  0.99255  0.33227  0.44191  1.0000
  C   C631      1.0  0.97193  0.33552  0.42071  1.0000
  C   C632      1.0  0.94787  0.33925  0.42526  1.0000
  C   C633      1.0  0.94417  0.34058  0.45100  1.0000
  C   C634      1.0  0.96486  0.33819  0.47229  1.0000
  C   C635      1.0  0.98896  0.33381  0.46774  1.0000
  H   H1092     1.0  0.97440  0.33430  0.40075  1.0000
  H   H1093     1.0  0.93196  0.34074  0.40867  1.0000
  H   H1094     1.0  0.96220  0.33883  0.49218  1.0000
  H   H1095     1.0  0.72841  0.41605  0.24410  1.0000
  C   C636      1.0  0.89294  0.26556  0.08456  1.0000
  C   C637      1.0  0.88715  0.28730  0.06179  1.0000
  C   C638      1.0  0.88452  0.32648  0.06368  1.0000
  C   C639      1.0  0.88763  0.34455  0.08828  1.0000
  C   C640      1.0  0.89307  0.32281  0.11111  1.0000
  C   C641      1.0  0.89568  0.28354  0.10922  1.0000
  H   H1096     1.0  0.88498  0.27398  0.04269  1.0000
  H   H1097     1.0  0.88030  0.34294  0.04589  1.0000
  H   H1098     1.0  0.89516  0.33624  0.13011  1.0000
  H   H1099     1.0  0.89979  0.26695  0.12691  1.0000
  H   H1100     1.0  0.75423  0.39345  0.11066  1.0000
  H   H1101     1.0  0.94482  0.03219  0.11021  1.0000
  H   H1102     1.0  0.71687  0.39828  0.07277  1.0000
  S   S154      1.0  0.86508  0.32138  0.49832  1.0000
  H   H1103     1.0  0.96750  0.16674  0.38052  1.0000
  C   C642      1.0  0.80233  0.46783  0.23432  1.0000
  H   H1104     1.0  0.97389  0.41335  0.49251  1.0000
  H   H1105     1.0  0.78752  0.45706  0.04593  1.0000
  H   H1106     1.0  0.76381  0.43964  0.10398  1.0000
  C   C643      1.0  0.00191  0.38155  0.18742  1.0000
  N   N36       1.0  0.79608  0.39718  0.08292  1.0000
  H   H1107     1.0  0.98864  0.04599  0.12911  1.0000
  H   H1108     1.0  0.92612  0.42331  0.45705  1.0000
  H   H1109     1.0  0.99003  0.30263  0.17127  1.0000
  H   H1110     1.0  0.94554  0.29675  0.21326  1.0000
  H   H1111     1.0  0.89317  0.01995  0.06295  1.0000
  H   H1112     1.0  0.81032  0.41370  0.03333  1.0000
  H   H1113     1.0  0.94487  0.41742  0.40617  1.0000
  H   H1114     1.0  0.96959  0.13891  0.06360  1.0000
  H   H1115     1.0  0.97748  0.26931  0.23683  1.0000
  H   H1116     1.0  0.69199  0.37765  0.43378  1.0000
  C   C644      1.0  0.95856  0.10510  0.10711  1.0000
  C   C645      1.0  0.97629  0.04143  0.14288  1.0000
  S   S155      1.0  0.82088  0.46119  0.16726  1.0000
  C   C646      1.0  0.97117  0.30950  0.17426  1.0000
  H   H1117     1.0  0.93508  0.15108  0.08700  1.0000
  H   H1118     1.0  0.70551  0.33655  0.40205  1.0000
  Fe  Fe74      1.0  0.84861  0.37795  0.50355  1.0000
  H   H1119     1.0  0.78398  0.48422  0.26460  1.0000
  H   H1120     1.0  0.72249  0.45904  0.30594  1.0000
  C   C647      1.0  0.95522  0.27306  0.16965  1.0000
  H   H1121     1.0  0.71247  0.40538  0.47490  1.0000
  H   H1122     1.0  0.69695  0.46522  0.26035  1.0000
  N   N37       1.0  0.97350  0.32989  0.20024  1.0000
  H   H1123     1.0  0.00491  0.22999  0.31636  1.0000
  C   C648      1.0  0.80315  0.37835  0.10948  1.0000
  H   H1124     1.0  0.69486  0.48613  0.30505  1.0000
  H   H1125     1.0  0.85631  0.34765  0.15466  1.0000
  H   H1126     1.0  0.79859  0.45155  0.21560  1.0000
  H   H1127     1.0  0.69199  0.47623  0.48537  1.0000
  H   H1128     1.0  0.83254  0.37792  0.16188  1.0000
  C   C649      1.0  0.93814  0.44714  0.45370  1.0000
  H   H1129     1.0  0.91852  0.43981  0.38499  1.0000
  H   H1130     1.0  0.93524  0.27953  0.16798  1.0000
  H   H1131     1.0  0.71554  0.46531  0.19467  1.0000
  C   C650      1.0  0.83641  0.35571  0.14836  1.0000
  H   H1132     1.0  0.76098  0.36753  0.07036  1.0000
  H   H1133     1.0  0.74290  0.41661  0.21627  1.0000
  H   H1134     1.0  0.82651  0.43547  0.08271  1.0000
  C   C651      1.0  0.97211  0.15763  0.08115  1.0000
  C   C652      1.0  0.92605  0.42923  0.40521  1.0000
  N   N38       1.0  0.94016  0.47605  0.47546  1.0000
  C   C653      1.0  0.69792  0.32389  0.41795  1.0000
  H   H1135     1.0  0.82480  0.33062  0.14969  1.0000
  H   H1136     1.0  0.83130  0.35520  0.02476  1.0000
  H   H1137     1.0  0.74573  0.33848  0.48431  1.0000
  H   H1138     1.0  0.81726  0.45334  0.24877  1.0000
  H   H1139     1.0  0.72959  0.45818  0.15377  1.0000
  C   C654      1.0  0.94869  0.04882  0.12882  1.0000
  H   H1140     1.0  0.95858  0.16534  0.11582  1.0000
  C   C655      1.0  0.73375  0.48996  0.26077  1.0000
  C   C656      1.0  0.93515  0.16697  0.17508  1.0000
  H   H1141     1.0  0.77267  0.43440  0.17080  1.0000
  N   N39       1.0  0.73224  0.49303  0.23158  1.0000
  C   C657      1.0  0.91471  0.49376  0.47254  1.0000
  S   S156      1.0  0.86262  0.48478  0.11611  1.0000
  H   H1142     1.0  0.92378  0.33998  0.17363  1.0000
  C   C658      1.0  0.72538  0.42169  0.22276  1.0000
  H   H1143     1.0  0.97168  0.23313  0.31193  1.0000
  C   C659      1.0  0.95047  0.32648  0.21107  1.0000
  H   H1144     1.0  0.92627  0.16370  0.13288  1.0000
  H   H1145     1.0  0.93787  0.12620  0.39625  1.0000
  H   H1146     1.0  0.85582  0.06210  0.11435  1.0000
  H   H1147     1.0  0.00475  0.33087  0.48426  1.0000
  C   C660      1.0  0.98769  0.21347  0.31576  1.0000
  H   H1148     1.0  0.86556  0.10783  0.10607  1.0000
  C   C661      1.0  0.00221  0.42320  0.18079  1.0000
  H   H1149     1.0  0.90806  0.11873  0.10274  1.0000
  C   C662      1.0  0.76976  0.45946  0.15898  1.0000
  H   H1150     1.0  0.79745  0.39595  0.12481  1.0000
  H   H1151     1.0  0.76132  0.41152  0.05548  1.0000
  C   C663      1.0  0.86891  0.07725  0.10476  1.0000
  C   C664      1.0  0.92676  0.34606  0.19498  1.0000
  C   C665      1.0  0.70159  0.35119  0.44124  1.0000
  C   C666      1.0  0.79255  0.46663  0.06667  1.0000
  C   C667      1.0  0.74530  0.47290  0.14942  1.0000
  H   H1152     1.0  0.70795  0.29727  0.42399  1.0000
  H   H1153     1.0  0.86492  0.06843  0.08375  1.0000
  H   H1154     1.0  0.69748  0.30595  0.46746  1.0000
  H   H1155     1.0  0.97791  0.38700  0.21444  1.0000
  S   S157      1.0  0.97129  0.35568  0.30863  1.0000
  N   N40       1.0  0.94144  0.08933  0.12317  1.0000
  C   C668      1.0  0.75818  0.49344  0.22633  1.0000
  H   H1156     1.0  0.89839  0.07311  0.13979  1.0000
  H   H1157     1.0  0.74363  0.46417  0.26900  1.0000
  C   C669      1.0  0.95710  0.25370  0.14393  1.0000
  C   C670      1.0  0.89575  0.06758  0.11839  1.0000
  H   H1158     1.0  0.90753  0.13484  0.14822  1.0000
  H   H1159     1.0  0.89802  0.03699  0.11565  1.0000
  H   H1160     1.0  0.67975  0.40787  0.46957  1.0000
  C   C671      1.0  0.70617  0.39321  0.20827  1.0000
  C   C672      1.0  0.95441  0.14637  0.09843  1.0000
  H   H1161     1.0  0.98505  0.11056  0.35703  1.0000
  C   C673      1.0  0.91498  0.08970  0.10675  1.0000
  H   H1162     1.0  0.71796  0.43453  0.09731  1.0000
  H   H1163     1.0  0.91426  0.07777  0.08682  1.0000
  Fe  Fe75      1.0  0.89856  0.35336  0.49213  1.0000
  C   C674      1.0  0.71299  0.48584  0.29923  1.0000
  H   H1164     1.0  0.79296  0.35120  0.10894  1.0000
  H   H1165     1.0  0.69677  0.46464  0.21767  1.0000
  H   H1166     1.0  0.94264  0.10891  0.36528  1.0000
  H   H1167     1.0  0.77264  0.44143  0.24774  1.0000
  H   H1168     1.0  0.70202  0.39784  0.18667  1.0000
  H   H1169     1.0  0.95419  0.33846  0.23143  1.0000
  Fe  Fe76      1.0  0.90146  0.10280  0.02561  1.0000
  H   H1170     1.0  0.97134  0.17859  0.34032  1.0000
  H   H1171     1.0  0.83749  0.34756  0.10826  1.0000
  C   C675      1.0  0.98926  0.19369  0.34199  1.0000
  H   H1172     1.0  0.97638  0.24364  0.14516  1.0000
  C   C676      1.0  0.95173  0.11341  0.38641  1.0000
  H   H1173     1.0  0.95745  0.08595  0.39574  1.0000
  C   C677      1.0  0.92694  0.14442  0.14950  1.0000
  C   C678      1.0  0.80080  0.38665  0.03483  1.0000
  N   N41       1.0  0.69527  0.35747  0.48936  1.0000
  H   H1174     1.0  0.90827  0.47225  0.42281  1.0000
  C   C679      1.0  0.90362  0.33386  0.20425  1.0000
  C   C680      1.0  0.83125  0.36996  0.12011  1.0000
  C   C681      1.0  0.75432  0.41387  0.09470  1.0000
  H   H1175     1.0  0.89938  0.30383  0.19944  1.0000
  H   H1176     1.0  0.97831  0.10402  0.11831  1.0000
  Fe  Fe77      1.0  0.68130  0.48359  0.41609  1.0000
  H   H1177     1.0  0.93716  0.03597  0.14135  1.0000
  H   H1178     1.0  0.80919  0.49620  0.23078  1.0000
  C   C682      1.0  0.76796  0.39684  0.07443  1.0000
  H   H1179     1.0  0.67776  0.31795  0.41002  1.0000
  H   H1180     1.0  0.84266  0.39550  0.11966  1.0000
  C   C683      1.0  0.97768  0.37106  0.19607  1.0000
  H   H1181     1.0  0.96404  0.12012  0.15608  1.0000
  C   C684      1.0  0.69681  0.39892  0.48422  1.0000
  C   C685      1.0  0.69072  0.33524  0.46378  1.0000
  H   H1182     1.0  0.98503  0.19283  0.29930  1.0000
  C   C686      1.0  0.80705  0.43635  0.08543  1.0000
  C   C687      1.0  0.94439  0.11031  0.14903  1.0000
  C   C688      1.0  0.70608  0.46519  0.50236  1.0000
  C   C689      1.0  0.81077  0.35842  0.01764  1.0000
  H   H1183     1.0  0.90646  0.33833  0.22584  1.0000
  C   C690      1.0  0.77875  0.47034  0.24493  1.0000
  S   S158      1.0  0.72001  0.49785  0.44129  1.0000
  H   H1184     1.0  0.80891  0.44774  0.10575  1.0000
  H   H1185     1.0  0.96807  0.18684  0.07424  1.0000
  Fe  Fe78      1.0  0.00874  0.34832  0.33758  1.0000
  H   H1186     1.0  0.96097  0.25290  0.18587  1.0000
  H   H1187     1.0  0.88738  0.35082  0.19434  1.0000
  H   H1188     1.0  0.78050  0.38945  0.02650  1.0000
  H   H1189     1.0  0.00686  0.14431  0.33176  1.0000
  C   C691      1.0  0.71648  0.46222  0.21603  1.0000
  H   H1190     1.0  0.82739  0.37349  0.06979  1.0000
  H   H1191     1.0  0.00341  0.40817  0.28912  1.0000
  H   H1192     1.0  0.68862  0.39544  0.21517  1.0000
  H   H1193     1.0  0.95663  0.43475  0.45375  1.0000
  H   H1194     1.0  0.99874  0.33527  0.23852  1.0000
  C   C692      1.0  0.92744  0.46114  0.42519  1.0000
  H   H1195     1.0  0.71354  0.36439  0.21230  1.0000
  C   C693      1.0  0.72722  0.42354  0.08203  1.0000
  H   H1196     1.0  0.98195  0.14425  0.41080  1.0000
  H   H1197     1.0  0.74634  0.38360  0.50053  1.0000
  H   H1198     1.0  0.96266  0.32811  0.15751  1.0000
  H   H1199     1.0  0.94417  0.22934  0.13991  1.0000
  H   H1200     1.0  0.93468  0.14917  0.19233  1.0000
  H   H1201     1.0  0.96202  0.38271  0.18081  1.0000
  H   H1202     1.0  0.77499  0.47405  0.07238  1.0000
  H   H1203     1.0  0.99182  0.15623  0.09242  1.0000
  S   S159      1.0  0.88107  0.40966  0.49468  1.0000
  H   H1204     1.0  0.94116  0.09123  0.16472  1.0000
  C   C694      1.0  0.94770  0.45561  0.50130  1.0000
  H   H1205     1.0  0.95170  0.27318  0.12706  1.0000
  H   H1206     1.0  0.95432  0.17822  0.17708  1.0000
  H   H1207     1.0  0.00586  0.19340  0.39681  1.0000
  C   C695      1.0  0.00164  0.45403  0.42349  1.0000
  H   H1208     1.0  0.99720  0.42707  0.41256  1.0000
  H   H1209     1.0  0.97402  0.48648  0.13375  1.0000
  H   H1210     1.0  0.97669  0.49091  0.47005  1.0000
  C   C696      1.0  0.70860  0.48944  0.26933  1.0000
  H   H1211     1.0  0.00135  0.09711  0.38902  1.0000
  H   H1212     1.0  0.72474  0.46610  0.49772  1.0000
  H   H1213     1.0  0.93933  0.48347  0.41986  1.0000
  H   H1214     1.0  0.00361  0.36517  0.16977  1.0000
  H   H1215     1.0  0.75739  0.48428  0.20573  1.0000
  H   H1216     1.0  0.99129  0.21563  0.35746  1.0000
  C   C697      1.0  0.99488  0.27563  0.23053  1.0000
  H   H1217     1.0  0.00148  0.44053  0.19836  1.0000
  H   H1218     1.0  0.00617  0.42775  0.46080  1.0000
  H   H1219     1.0  0.98600  0.43026  0.16453  1.0000
  H   H1220     1.0  0.80168  0.33062  0.01785  1.0000
  H   H1221     1.0  0.82538  0.49742  0.06167  1.0000
  H   H1222     1.0  0.99691  0.25573  0.21475  1.0000
  H   H1223     1.0  0.93347  0.43383  0.50249  1.0000
  H   H1224     1.0  0.89969  0.47288  0.46452  1.0000
  C   C698      1.0  0.91007  0.00351  0.06698  1.0000
  C   C699      1.0  0.74377  0.35302  0.50252  1.0000
  H   H1225     1.0  0.67553  0.15813  0.02485  1.0000
  H   H1226     1.0  0.73601  0.03670  0.67032  1.0000
  H   H1227     1.0  0.98844  0.21834  0.66803  1.0000
  H   H1228     1.0  0.71867  0.35391  0.52888  1.0000
  H   H1229     1.0  0.73167  0.08318  0.89605  1.0000
  Fe  Fe79      1.0  0.89579  0.16890  0.98795  1.0000
  S   S160      1.0  0.90817  0.19752  0.95427  1.0000
  S   S161      1.0  0.87814  0.11161  0.98430  1.0000
  C   C700      1.0  0.97952  0.41844  0.53424  1.0000
  H   H1230     1.0  0.72850  0.11373  0.73133  1.0000
  S   S162      1.0  0.86482  0.37885  0.54753  1.0000
  Fe  Fe80      1.0  0.89863  0.40646  0.53815  1.0000
  S   S163      1.0  0.92661  0.44904  0.56142  1.0000
  Fe  Fe81      1.0  0.88306  0.32369  0.54164  1.0000
  S   S164      1.0  0.88046  0.27980  0.57308  1.0000
  C   C701      1.0  0.79377  0.03944  0.65626  1.0000
  Fe  Fe82      1.0  0.89752  0.06726  0.62598  1.0000
  S   S165      1.0  0.88979  0.08747  0.66425  1.0000
  S   S166      1.0  0.90572  0.10605  0.59407  1.0000
  Fe  Fe83      1.0  0.91695  0.04330  0.68315  1.0000
  S   S167      1.0  0.94578  0.04552  0.72241  1.0000
  Fe  Fe84      1.0  0.86074  0.04132  0.65761  1.0000
  S   S168      1.0  0.92714  0.02572  0.64542  1.0000
  C   C702      1.0  0.77117  0.09156  0.86900  1.0000
  C   C703      1.0  0.80759  0.11423  0.90537  1.0000
  C   C704      1.0  0.70887  0.10546  0.72261  1.0000
  C   C705      1.0  0.72764  0.09192  0.87512  1.0000
  H   H1231     1.0  0.89539  0.24368  0.69520  1.0000
  C   C706      1.0  0.97326  0.14942  0.77357  1.0000
  C   C707      1.0  0.95526  0.15327  0.74980  1.0000
  C   C708      1.0  0.94649  0.12176  0.73384  1.0000
  C   C709      1.0  0.95529  0.08605  0.74193  1.0000
  C   C710      1.0  0.97227  0.08211  0.76638  1.0000
  C   C711      1.0  0.98143  0.11363  0.78203  1.0000
  H   H1232     1.0  0.94821  0.18078  0.74368  1.0000
  H   H1233     1.0  0.93296  0.12500  0.71535  1.0000
  H   H1234     1.0  0.97825  0.05448  0.77328  1.0000
  H   H1235     1.0  0.94715  0.30871  0.59345  1.0000
  C   C712      1.0  0.88533  0.23046  0.57632  1.0000
  C   C713      1.0  0.89864  0.21020  0.56107  1.0000
  C   C714      1.0  0.90423  0.17199  0.56641  1.0000
  C   C715      1.0  0.89645  0.15342  0.58687  1.0000
  C   C716      1.0  0.88252  0.17339  0.60160  1.0000
  C   C717      1.0  0.87698  0.21158  0.59628  1.0000
  H   H1236     1.0  0.90510  0.22416  0.54555  1.0000
  H   H1237     1.0  0.91491  0.15683  0.55478  1.0000
  H   H1238     1.0  0.87619  0.15953  0.61723  1.0000
  H   H1239     1.0  0.86646  0.22682  0.60805  1.0000
  H   H1240     1.0  0.76924  0.06519  0.81739  1.0000
  S   S169      1.0  0.82504  0.05146  0.67190  1.0000
  H   H1241     1.0  0.69764  0.12486  0.75698  1.0000
  C   C718      1.0  0.93671  0.18559  0.94637  1.0000
  C   C719      1.0  0.94994  0.15362  0.95669  1.0000
  C   C720      1.0  0.97190  0.14376  0.94891  1.0000
  C   C721      1.0  0.98098  0.16595  0.93104  1.0000
  C   C722      1.0  0.96804  0.19833  0.92113  1.0000
  C   C723      1.0  0.94585  0.20790  0.92858  1.0000
  H   H1242     1.0  0.94307  0.13626  0.97041  1.0000
  H   H1243     1.0  0.98192  0.11883  0.95684  1.0000
  H   H1244     1.0  0.97528  0.21618  0.90799  1.0000
  H   H1245     1.0  0.93582  0.23285  0.92073  1.0000
  C   C724      1.0  0.74860  0.05281  0.94728  1.0000
  C   C725      1.0  0.74156  0.08801  0.95489  1.0000
  C   C726      1.0  0.75981  0.11335  0.96848  1.0000
  C   C727      1.0  0.78527  0.10387  0.97463  1.0000
  C   C728      1.0  0.79232  0.06863  0.96702  1.0000
  C   C729      1.0  0.77403  0.04323  0.95344  1.0000
  H   H1246     1.0  0.72207  0.09572  0.95032  1.0000
  H   H1247     1.0  0.80379  0.14405  0.89999  1.0000
  H   H1248     1.0  0.81181  0.06096  0.97165  1.0000
  H   H1249     1.0  0.70735  0.18136  0.88852  1.0000
  S   S170      1.0  0.86686  0.02331  0.61812  1.0000
  H   H1250     1.0  0.87984  0.19905  0.69483  1.0000
  H   H1251     1.0  0.82128  0.10279  0.89478  1.0000
  C   C730      1.0  0.76524  0.33973  0.52468  1.0000
  H   H1252     1.0  0.77077  0.12094  0.86191  1.0000
  H   H1253     1.0  0.77102  0.10314  0.91086  1.0000
  H   H1254     1.0  0.97337  0.17830  0.70339  1.0000
  C   C731      1.0  0.88917  0.21801  0.68328  1.0000
  H   H1255     1.0  0.99475  0.11028  0.80062  1.0000
  H   H1256     1.0  0.77965  0.01606  0.94760  1.0000
  H   H1257     1.0  0.68184  0.42636  0.51514  1.0000
  S   S171      1.0  0.98491  0.18988  0.79220  1.0000
  H   H1258     1.0  0.97126  0.41498  0.66874  1.0000
  N   N42       1.0  0.92892  0.13751  0.84642  1.0000
  C   C732      1.0  0.91258  0.11297  0.82559  1.0000
  C   C733      1.0  0.91650  0.14453  0.86908  1.0000
  C   C734      1.0  0.93185  0.17472  0.83374  1.0000
  C   C735      1.0  0.95459  0.12120  0.85628  1.0000
  C   C736      1.0  0.95572  0.08183  0.86865  1.0000
  C   C737      1.0  0.92286  0.10363  0.80101  1.0000
  C   C738      1.0  0.94499  0.20637  0.85251  1.0000
  C   C739      1.0  0.89992  0.11270  0.87610  1.0000
  C   C740      1.0  0.89267  0.12082  0.90214  1.0000
  C   C741      1.0  0.98208  0.06586  0.87384  1.0000
  H   H1259     1.0  0.98824  0.06278  0.85514  1.0000
  C   C742      1.0  0.94586  0.24286  0.83760  1.0000
  H   H1260     1.0  0.89402  0.12644  0.81856  1.0000
  H   H1261     1.0  0.90857  0.08567  0.83372  1.0000
  H   H1262     1.0  0.93075  0.15214  0.88728  1.0000
  H   H1263     1.0  0.90383  0.16918  0.86495  1.0000
  H   H1264     1.0  0.91325  0.18549  0.82323  1.0000
  H   H1265     1.0  0.94295  0.17146  0.81857  1.0000
  H   H1266     1.0  0.96494  0.12075  0.84033  1.0000
  H   H1267     1.0  0.96604  0.13951  0.87186  1.0000
  H   H1268     1.0  0.94327  0.06158  0.85570  1.0000
  H   H1269     1.0  0.95055  0.08373  0.88796  1.0000
  H   H1270     1.0  0.92516  0.12929  0.78994  1.0000
  H   H1271     1.0  0.94106  0.08914  0.80674  1.0000
  H   H1272     1.0  0.96446  0.19854  0.86164  1.0000
  H   H1273     1.0  0.93521  0.21242  0.86838  1.0000
  H   H1274     1.0  0.88238  0.11033  0.86053  1.0000
  H   H1275     1.0  0.90927  0.08516  0.87784  1.0000
  H   H1276     1.0  0.87938  0.09916  0.90575  1.0000
  H   H1277     1.0  0.90942  0.12020  0.91873  1.0000
  H   H1278     1.0  0.88370  0.14872  0.90182  1.0000
  C   C743      1.0  0.76230  0.01412  0.61948  1.0000
  H   H1279     1.0  0.70971  0.13982  0.90833  1.0000
  H   H1280     1.0  0.96856  0.09614  0.66675  1.0000
  H   H1281     1.0  0.70868  0.01947  0.86786  1.0000
  C   C744      1.0  0.69963  0.42516  0.50863  1.0000
  C   C745      1.0  0.74923  0.05735  0.81338  1.0000
  H   H1282     1.0  0.95620  0.23887  0.82189  1.0000
  H   H1283     1.0  0.92670  0.25276  0.82867  1.0000
  H   H1284     1.0  0.95564  0.26479  0.85146  1.0000
  N   N43       1.0  0.94868  0.20900  0.65400  1.0000
  C   C746      1.0  0.94857  0.16669  0.65232  1.0000
  C   C747      1.0  0.92448  0.22304  0.65959  1.0000
  C   C748      1.0  0.95058  0.22369  0.62741  1.0000
  C   C749      1.0  0.97081  0.22381  0.67431  1.0000
  C   C750      1.0  0.97378  0.20930  0.70269  1.0000
  C   C751      1.0  0.97209  0.14833  0.64620  1.0000
  C   C752      1.0  0.94668  0.26658  0.62312  1.0000
  C   C753      1.0  0.91143  0.19800  0.67662  1.0000
  H   H1285     1.0  0.99990  0.21186  0.74078  1.0000
  C   C754      1.0  0.97046  0.10562  0.64707  1.0000
  H   H1286     1.0  0.87539  0.22575  0.66496  1.0000
  H   H1287     1.0  0.93216  0.15695  0.63692  1.0000
  H   H1288     1.0  0.94602  0.15382  0.67079  1.0000
  H   H1289     1.0  0.92707  0.25162  0.66859  1.0000
  H   H1290     1.0  0.91017  0.22641  0.64091  1.0000
  H   H1291     1.0  0.93662  0.20930  0.61145  1.0000
  H   H1292     1.0  0.96913  0.21714  0.62354  1.0000
  H   H1293     1.0  0.71546  0.07162  0.82579  1.0000
  H   H1294     1.0  0.96991  0.25481  0.67589  1.0000
  H   H1295     1.0  0.74006  0.09609  0.78052  1.0000
  H   H1296     1.0  0.95876  0.22100  0.71123  1.0000
  H   H1297     1.0  0.97403  0.15584  0.62618  1.0000
  H   H1298     1.0  0.74786  0.02664  0.81585  1.0000
  H   H1299     1.0  0.95977  0.28312  0.63837  1.0000
  H   H1300     1.0  0.92736  0.27482  0.62353  1.0000
  H   H1301     1.0  0.90415  0.17206  0.66552  1.0000
  H   H1302     1.0  0.92421  0.18971  0.69529  1.0000
  S   S172      1.0  0.00839  0.15183  0.92160  1.0000
  H   H1303     1.0  0.71463  0.41558  0.52526  1.0000
  H   H1304     1.0  0.68206  0.29598  0.51947  1.0000
  H   H1305     1.0  0.95424  0.09526  0.63183  1.0000
  C   C755      1.0  0.69128  0.12816  0.73535  1.0000
  H   H1306     1.0  0.88414  0.50066  0.55644  1.0000
  H   H1307     1.0  0.90261  0.05071  0.79153  1.0000
  H   H1308     1.0  0.70676  0.07495  0.72575  1.0000
  H   H1309     1.0  0.75417  0.14049  0.97437  1.0000
  H   H1310     1.0  0.70499  0.11110  0.70116  1.0000
  H   H1311     1.0  0.71769  0.31249  0.51010  1.0000
  C   C756      1.0  0.00331  0.49655  0.65928  1.0000
  C   C757      1.0  0.72682  0.13540  0.87468  1.0000
  H   H1312     1.0  0.96476  0.44472  0.64027  1.0000
  H   H1313     1.0  0.76488  0.35422  0.54350  1.0000
  H   H1314     1.0  0.96518  0.39713  0.53570  1.0000
  H   H1315     1.0  0.99539  0.08437  0.88756  1.0000
  Fe  Fe85      1.0  0.67905  0.01184  0.63698  1.0000
  C   C758      1.0  0.75014  0.03337  0.65917  1.0000
  C   C759      1.0  0.73776  0.06591  0.78448  1.0000
  H   H1316     1.0  0.98234  0.03789  0.88304  1.0000
  H   H1317     1.0  0.72270  0.14605  0.85426  1.0000
  H   H1318     1.0  0.67603  0.36558  0.52087  1.0000
  H   H1319     1.0  0.77992  0.05529  0.69016  1.0000
  H   H1320     1.0  0.99870  0.04079  0.95531  1.0000
  H   H1321     1.0  0.73651  0.10932  0.82666  1.0000
  H   H1322     1.0  0.69345  0.15800  0.73061  1.0000
  H   H1323     1.0  0.99986  0.25319  0.72119  1.0000
  S   S173      1.0  0.91794  0.35142  0.53501  1.0000
  H   H1324     1.0  0.93818  0.26283  0.58020  1.0000
  C   C760      1.0  0.95098  0.27829  0.59641  1.0000
  C   C761      1.0  0.78344  0.09129  0.89897  1.0000
  H   H1325     1.0  0.74485  0.14759  0.88555  1.0000
  C   C762      1.0  0.77507  0.04386  0.67037  1.0000
  H   H1326     1.0  0.70658  0.48371  0.51966  1.0000
  H   H1327     1.0  0.97547  0.48143  0.68203  1.0000
  H   H1328     1.0  0.78332  0.34629  0.51974  1.0000
  S   S174      1.0  0.72652  0.02078  0.92875  1.0000
  H   H1329     1.0  0.76421  0.30894  0.52728  1.0000
  S   S175      1.0  0.86604  0.19586  0.00502  1.0000
  C   C763      1.0  0.73563  0.07922  0.83171  1.0000
  C   C764      1.0  0.78722  0.02480  0.63065  1.0000
  C   C765      1.0  0.97965  0.43518  0.65716  1.0000
  N   N44       1.0  0.74559  0.07385  0.86092  1.0000
  H   H1330     1.0  0.97055  0.27288  0.59534  1.0000
  H   H1331     1.0  0.70828  0.08180  0.86674  1.0000
  C   C766      1.0  0.71826  0.34354  0.50862  1.0000
  Fe  Fe86      1.0  0.68423  0.02779  0.91785  1.0000
  H   H1332     1.0  0.80135  0.02162  0.61947  1.0000
  H   H1333     1.0  0.91270  0.07163  0.76450  1.0000
  H   H1334     1.0  0.81597  0.11309  0.92690  1.0000
  H   H1335     1.0  0.68789  0.14140  0.87648  1.0000
  C   C767      1.0  0.74777  0.03283  0.86780  1.0000
  S   S176      1.0  0.80723  0.13722  0.99175  1.0000
  H   H1336     1.0  0.94793  0.47459  0.51825  1.0000
  C   C768      1.0  0.70668  0.15026  0.88782  1.0000
  H   H1337     1.0  0.90458  0.48557  0.51023  1.0000
  H   H1338     1.0  0.88654  0.09123  0.77501  1.0000
  C   C769      1.0  0.90501  0.07772  0.78196  1.0000
  H   H1339     1.0  0.74724  0.04920  0.77166  1.0000
  H   H1340     1.0  0.78825  0.06223  0.90563  1.0000
  H   H1341     1.0  0.98012  0.44015  0.54976  1.0000
  H   H1342     1.0  0.78446  0.07680  0.85939  1.0000
  H   H1343     1.0  0.98920  0.15700  0.66083  1.0000
  H   H1344     1.0  0.75363  0.02941  0.88950  1.0000
  H   H1345     1.0  0.99928  0.46622  0.83859  1.0000
  H   H1346     1.0  0.99793  0.40446  0.53781  1.0000
  H   H1347     1.0  0.68645  0.13878  0.81181  1.0000
  H   H1348     1.0  0.71760  0.05851  0.77923  1.0000
  H   H1349     1.0  0.69187  0.00332  0.78626  1.0000
  C   C770      1.0  0.74364  0.01824  0.63367  1.0000
  H   H1350     1.0  0.98760  0.09307  0.64300  1.0000
  H   H1351     1.0  0.76290  0.01946  0.86011  1.0000
  C   C771      1.0  0.72360  0.00919  0.85855  1.0000
  H   H1352     1.0  0.80686  0.36842  0.99700  1.0000
  H   H1353     1.0  0.00494  0.45716  0.69150  1.0000
  C   C772      1.0  0.00775  0.02236  0.94304  1.0000
  C   C773      1.0  0.99856  0.22211  0.72045  1.0000
  H   H1354     1.0  0.99430  0.42048  0.64951  1.0000
  H   H1355     1.0  0.71669  0.01014  0.83691  1.0000
  C   C774      1.0  0.92421  0.49790  0.56691  1.0000
  C   C775      1.0  0.99080  0.46845  0.67466  1.0000
  H   H1356     1.0  0.99061  0.50063  0.63951  1.0000
  Fe  Fe87      1.0  0.84990  0.13755  0.00415  1.0000
  H   H1357     1.0  0.98863  0.45647  0.50637  1.0000
  C   C776      1.0  0.97352  0.43614  0.50695  1.0000
  H   H1358     1.0  0.92376  0.74379  0.09056  1.0000
  S   S177      1.0  0.95978  0.81408  0.09122  1.0000
  H   H1359     1.0  0.76581  0.52258  0.22782  1.0000
  S   S178      1.0  0.97783  0.83635  0.15361  1.0000
  Fe  Fe88      1.0  0.97307  0.78300  0.12932  1.0000
  S   S179      1.0  0.95250  0.73685  0.14678  1.0000
  Fe  Fe89      1.0  0.96703  0.86731  0.11516  1.0000
  S   S180      1.0  0.93630  0.91133  0.11023  1.0000
  H   H1360     1.0  0.97805  0.61022  0.21528  1.0000
  H   H1361     1.0  0.98540  0.57191  0.47215  1.0000
  H   H1362     1.0  0.86808  0.51440  0.47998  1.0000
  S   S181      1.0  0.90714  0.57314  0.11303  1.0000
  H   H1363     1.0  0.91764  0.68963  0.06001  1.0000
  C   C777      1.0  0.90844  0.71670  0.05355  1.0000
  H   H1364     1.0  0.81112  0.75475  0.07935  1.0000
  H   H1365     1.0  0.99452  0.53906  0.22857  1.0000
  C   C778      1.0  0.88377  0.53203  0.49103  1.0000
  C   C779      1.0  0.70937  0.58086  0.18794  1.0000
  H   H1366     1.0  0.98816  0.66607  0.19078  1.0000
  H   H1367     1.0  0.98890  0.50305  0.10872  1.0000
  H   H1368     1.0  0.81956  0.72033  0.10493  1.0000
  C   C780      1.0  0.91015  0.80342  0.16663  1.0000
  H   H1369     1.0  0.85422  0.73121  0.08366  1.0000
  C   C781      1.0  0.87788  0.89457  0.05095  1.0000
  C   C782      1.0  0.94021  0.69128  0.13693  1.0000
  C   C783      1.0  0.92630  0.67276  0.15256  1.0000
  C   C784      1.0  0.91627  0.63654  0.14578  1.0000
  C   C785      1.0  0.91986  0.61842  0.12309  1.0000
  C   C786      1.0  0.93364  0.63705  0.10739  1.0000
  C   C787      1.0  0.94395  0.67304  0.11436  1.0000
  H   H1370     1.0  0.92325  0.68652  0.17007  1.0000
  H   H1371     1.0  0.90550  0.62286  0.15791  1.0000
  H   H1372     1.0  0.93647  0.62342  0.08973  1.0000
  H   H1373     1.0  0.95473  0.68669  0.10221  1.0000
  C   C788      1.0  0.93405  0.95018  0.08880  1.0000
  C   C789      1.0  0.91230  0.97212  0.08363  1.0000
  H   H1374     1.0  0.95923  0.52226  0.11097  1.0000
  C   C790      1.0  0.95366  0.96013  0.07738  1.0000
  H   H1375     1.0  0.95766  0.56922  0.14682  1.0000
  H   H1376     1.0  0.97056  0.94373  0.08149  1.0000
  C   C791      1.0  0.89420  0.81622  0.14018  1.0000
  H   H1377     1.0  0.90540  0.82002  0.18285  1.0000
  C   C792      1.0  0.95932  0.50490  0.47236  1.0000
  H   H1378     1.0  0.96748  0.53181  0.16843  1.0000
  H   H1379     1.0  0.81904  0.76922  0.11367  1.0000
  H   H1380     1.0  0.89411  0.72163  0.08830  1.0000
  H   H1381     1.0  0.92017  0.80032  0.11690  1.0000
  H   H1382     1.0  0.87692  0.77278  0.05175  1.0000
  H   H1383     1.0  0.97752  0.88935  0.03270  1.0000
  C   C793      1.0  0.97737  0.51157  0.12260  1.0000
  C   C794      1.0  0.85088  0.75248  0.09803  1.0000
  C   C795      1.0  0.98910  0.55779  0.49156  1.0000
  C   C796      1.0  0.99497  0.61778  0.16653  1.0000
  C   C797      1.0  0.90784  0.50928  0.49779  1.0000
  N   N45       1.0  0.98673  0.58481  0.18055  1.0000
  S   S182      1.0  0.71108  0.52490  0.12291  1.0000
  C   C798      1.0  0.96816  0.59885  0.19568  1.0000
  H   H1384     1.0  0.96707  0.99964  0.05269  1.0000
  C   C799      1.0  0.78636  0.51018  0.13772  1.0000
  H   H1385     1.0  0.73820  0.54051  0.18934  1.0000
  H   H1386     1.0  0.84531  0.79529  0.06888  1.0000
  H   H1387     1.0  0.99566  0.56470  0.12908  1.0000
  H   H1388     1.0  0.87441  0.81248  0.14092  1.0000
  H   H1389     1.0  0.75900  0.54892  0.11659  1.0000
  H   H1390     1.0  0.90680  0.77328  0.16985  1.0000
  H   H1391     1.0  0.92378  0.61369  0.21101  1.0000
  H   H1392     1.0  0.84930  0.81320  0.10113  1.0000
  C   C800      1.0  0.90498  0.73910  0.07753  1.0000
  H   H1393     1.0  0.97444  0.98113  0.13510  1.0000
  H   H1394     1.0  0.99996  0.99597  0.16152  1.0000
  H   H1395     1.0  0.95744  0.62281  0.18531  1.0000
  H   H1396     1.0  0.97949  0.62659  0.14988  1.0000
  H   H1397     1.0  0.70010  0.52990  0.22395  1.0000
  H   H1398     1.0  0.99051  0.93414  0.04515  1.0000
  C   C801      1.0  0.76192  0.52376  0.12832  1.0000
  H   H1399     1.0  0.87921  0.85954  0.09784  1.0000
  C   C802      1.0  0.90048  0.79366  0.11703  1.0000
  C   C803      1.0  0.00414  0.91235  0.01206  1.0000
  H   H1400     1.0  0.93432  0.56545  0.18070  1.0000
  H   H1401     1.0  0.86214  0.74567  0.11791  1.0000
  H   H1402     1.0  0.00571  0.53951  0.49354  1.0000
  C   C804      1.0  0.94774  0.57103  0.19980  1.0000
  C   C805      1.0  0.97456  0.55664  0.15971  1.0000
  N   N46       1.0  0.88388  0.80032  0.09005  1.0000
  H   H1403     1.0  0.92037  0.73246  0.04284  1.0000
  H   H1404     1.0  0.94555  0.59240  0.23846  1.0000
  C   C806      1.0  0.88619  0.84129  0.08378  1.0000
  H   H1405     1.0  0.90067  0.76367  0.12245  1.0000
  Fe  Fe90      1.0  0.00032  0.81848  0.08988  1.0000
  H   H1406     1.0  0.99862  0.69047  0.14956  1.0000
  H   H1407     1.0  0.89814  0.89830  0.05212  1.0000
  S   S183      1.0  0.00670  0.87380  0.11133  1.0000
  H   H1408     1.0  0.87229  0.91325  0.06567  1.0000
  H   H1409     1.0  0.99616  0.51049  0.20026  1.0000
  C   C807      1.0  0.71943  0.54118  0.19367  1.0000
  H   H1410     1.0  0.93026  0.80766  0.16733  1.0000
  H   H1411     1.0  0.95075  0.55490  0.49313  1.0000
  H   H1412     1.0  0.67772  0.90599  0.48083  1.0000
  H   H1413     1.0  0.72931  0.55315  0.23567  1.0000
  H   H1414     1.0  0.72443  0.50964  0.30937  1.0000
  C   C808      1.0  0.99479  0.90669  0.03714  1.0000
  C   C809      1.0  0.00560  0.53281  0.21384  1.0000
  H   H1415     1.0  0.85156  0.85150  0.05369  1.0000
  H   H1416     1.0  0.90624  0.84885  0.08616  1.0000
  H   H1417     1.0  0.90694  0.79332  0.06169  1.0000
  C   C810      1.0  0.93304  0.58715  0.21878  1.0000
  H   H1418     1.0  0.89011  0.71054  0.04001  1.0000
  C   C811      1.0  0.89260  0.77751  0.06926  1.0000
  C   C812      1.0  0.82345  0.74917  0.09901  1.0000
  H   H1419     1.0  0.89808  0.84653  0.13844  1.0000
  C   C813      1.0  0.87202  0.85373  0.05584  1.0000
  C   C814      1.0  0.85685  0.79211  0.08925  1.0000
  H   H1420     1.0  0.95275  0.52076  0.45382  1.0000
  H   H1421     1.0  0.72206  0.60165  0.20023  1.0000
  H   H1422     1.0  0.87721  0.83658  0.04014  1.0000
  H   H1423     1.0  0.96876  0.99455  0.16667  1.0000
  C   C815      1.0  0.00373  0.65345  0.18352  1.0000
  H   H1424     1.0  0.76768  0.50455  0.47820  1.0000
  H   H1425     1.0  0.84887  0.68111  0.49031  1.0000
  H   H1426     1.0  0.91845  0.56677  0.22113  1.0000
  Fe  Fe91      1.0  0.89528  0.52233  0.13430  1.0000
  H   H1427     1.0  0.95559  0.54397  0.20770  1.0000
  H   H1428     1.0  0.89708  0.96481  0.09254  1.0000
  H   H1429     1.0  0.81202  0.51468  0.08813  1.0000
  H   H1430     1.0  0.70805  0.58735  0.16687  1.0000
  H   H1431     1.0  0.88609  0.55683  0.47909  1.0000
  H   H1432     1.0  0.69794  0.51560  0.26378  1.0000
  H   H1433     1.0  0.97819  0.73136  0.48794  1.0000
  H   H1434     1.0  0.86745  0.90301  0.03101  1.0000
  C   C816      1.0  0.99101  0.54183  0.14143  1.0000
  H   H1435     1.0  0.91214  0.51667  0.45780  1.0000
  H   H1436     1.0  0.80206  0.52498  0.13337  1.0000
  C   C817      1.0  0.71995  0.52998  0.22254  1.0000
  S   S184      1.0  0.88886  0.51644  0.17525  1.0000
  C   C818      1.0  0.98000  0.00080  0.15208  1.0000
  H   H1437     1.0  0.79679  0.52376  0.05439  1.0000
  C   C819      1.0  0.95163  0.99185  0.06112  1.0000
  H   H1438     1.0  0.69047  0.58340  0.19184  1.0000
  H   H1439     1.0  0.70712  0.52195  0.17963  1.0000
  C   C820      1.0  0.96638  0.53494  0.49446  1.0000
  H   H1440     1.0  0.74517  0.51359  0.27142  1.0000
  C   C821      1.0  0.74128  0.50548  0.13432  1.0000
  H   H1441     1.0  0.00852  0.52936  0.15297  1.0000
  H   H1442     1.0  0.71041  0.95204  0.85952  1.0000
  H   H1443     1.0  0.81940  0.75952  0.61234  1.0000
  S   S185      1.0  0.96193  0.70065  0.63262  1.0000
  C   C822      1.0  0.73485  0.92420  0.66667  1.0000
  S   S186      1.0  0.97113  0.69892  0.57314  1.0000
  Fe  Fe92      1.0  0.97951  0.73874  0.60797  1.0000
  S   S187      1.0  0.97453  0.80249  0.60239  1.0000
  Fe  Fe93      1.0  0.95680  0.65881  0.59915  1.0000
  S   S188      1.0  0.92122  0.62463  0.58435  1.0000
  H   H1444     1.0  0.86137  0.67768  0.56336  1.0000
  H   H1445     1.0  0.92647  0.81353  0.55806  1.0000
  Fe  Fe94      1.0  0.89609  0.98317  0.64038  1.0000
  C   C823      1.0  0.86136  0.70896  0.52828  1.0000
  S   S189      1.0  0.89640  0.91907  0.63276  1.0000
  H   H1446     1.0  0.89088  0.65677  0.65353  1.0000
  H   H1447     1.0  0.94442  0.78099  0.54357  1.0000
  H   H1448     1.0  0.96279  0.57292  0.58707  1.0000
  H   H1449     1.0  0.74222  0.95577  0.85630  1.0000
  H   H1450     1.0  0.92263  0.52721  0.50980  1.0000
  C   C824      1.0  0.85735  0.67358  0.51106  1.0000
  C   C825      1.0  0.72812  0.96805  0.86600  1.0000
  H   H1451     1.0  0.95699  0.53196  0.64872  1.0000
  C   C826      1.0  0.87351  0.69924  0.55732  1.0000
  H   H1452     1.0  0.83364  0.91645  0.72271  1.0000
  C   C827      1.0  0.95337  0.83451  0.61238  1.0000
  C   C828      1.0  0.93330  0.82238  0.62251  1.0000
  C   C829      1.0  0.91623  0.84859  0.62870  1.0000
  C   C830      1.0  0.91924  0.88745  0.62555  1.0000
  C   C831      1.0  0.93958  0.89960  0.61588  1.0000
  C   C832      1.0  0.95632  0.87331  0.60913  1.0000
  H   H1453     1.0  0.93092  0.79281  0.62546  1.0000
  H   H1454     1.0  0.90068  0.83874  0.63622  1.0000
  H   H1455     1.0  0.94218  0.92924  0.61316  1.0000
  H   H1456     1.0  0.97170  0.88319  0.60132  1.0000
  C   C833      1.0  0.92275  0.57592  0.57737  1.0000
  C   C834      1.0  0.90060  0.55518  0.56845  1.0000
  H   H1457     1.0  0.87837  0.77673  0.54920  1.0000
  C   C835      1.0  0.94560  0.55744  0.58069  1.0000
  H   H1458     1.0  0.88279  0.56911  0.56575  1.0000
  S   S190      1.0  0.88753  0.99862  0.67928  1.0000
  H   H1459     1.0  0.97105  0.57243  0.63793  1.0000
  H   H1460     1.0  0.84210  0.94417  0.59517  1.0000
  H   H1461     1.0  0.84178  0.75675  0.56159  1.0000
  C   C836      1.0  0.89413  0.71809  0.60225  1.0000
  C   C837      1.0  0.78194  0.93118  0.67473  1.0000
  H   H1462     1.0  0.87898  0.54202  0.50943  1.0000
  S   S191      1.0  0.99364  0.63165  0.61423  1.0000
  C   C838      1.0  0.88197  0.68901  0.61750  1.0000
  C   C839      1.0  0.85384  0.77608  0.60158  1.0000
  H   H1463     1.0  0.82239  0.97513  0.67828  1.0000
  H   H1464     1.0  0.00630  0.88410  0.00378  1.0000
  H   H1465     1.0  0.83427  0.96602  0.63728  1.0000
  C   C840      1.0  0.90045  0.67585  0.64230  1.0000
  H   H1466     1.0  0.86898  0.96048  0.72506  1.0000
  C   C841      1.0  0.94631  0.51868  0.57573  1.0000
  H   H1467     1.0  0.99502  0.58268  0.68691  1.0000
  H   H1468     1.0  0.80964  0.95562  0.59147  1.0000
  H   H1469     1.0  0.90113  0.74201  0.61576  1.0000
  H   H1470     1.0  0.91122  0.70470  0.59855  1.0000
  H   H1471     1.0  0.86159  0.80255  0.59569  1.0000
  C   C842      1.0  0.91625  0.75470  0.56045  1.0000
  H   H1472     1.0  0.73462  0.96518  0.88770  1.0000
  H   H1473     1.0  0.93022  0.58763  0.64557  1.0000
  H   H1474     1.0  0.93036  0.74985  0.57907  1.0000
  H   H1475     1.0  0.00236  0.96389  0.97149  1.0000
  H   H1476     1.0  0.87558  0.66381  0.60519  1.0000
  H   H1477     1.0  0.86578  0.70120  0.62378  1.0000
  C   C843      1.0  0.94640  0.58480  0.66268  1.0000
  C   C844      1.0  0.98138  0.71966  0.50809  1.0000
  H   H1478     1.0  0.95432  0.61321  0.66825  1.0000
  H   H1479     1.0  0.91279  0.79152  0.52663  1.0000
  C   C845      1.0  0.82457  0.93579  0.60070  1.0000
  H   H1480     1.0  0.89125  0.68431  0.55752  1.0000
  C   C846      1.0  0.82952  0.94511  0.71490  1.0000
  C   C847      1.0  0.90130  0.51636  0.56313  1.0000
  H   H1481     1.0  0.89481  0.78681  0.58173  1.0000
  H   H1482     1.0  0.98168  0.54040  0.69408  1.0000
  C   C848      1.0  0.98889  0.55448  0.67851  1.0000
  H   H1483     1.0  0.91534  0.72949  0.54774  1.0000
  H   H1484     1.0  0.91592  0.66008  0.63695  1.0000
  H   H1485     1.0  0.90823  0.70003  0.65517  1.0000
  C   C849      1.0  0.96595  0.55947  0.65508  1.0000
  C   C850      1.0  0.00710  0.77570  0.52926  1.0000
  H   H1486     1.0  0.84783  0.99985  0.72144  1.0000
  N   N47       1.0  0.80653  0.92034  0.66856  1.0000
  H   H1487     1.0  0.81541  0.79406  0.58641  1.0000
  C   C851      1.0  0.80446  0.92609  0.63940  1.0000
  H   H1488     1.0  0.84502  0.93991  0.68084  1.0000
  C   C852      1.0  0.81138  0.87973  0.67573  1.0000
  C   C853      1.0  0.83649  0.86354  0.67232  1.0000
  H   H1489     1.0  0.99255  0.78153  0.54038  1.0000
  C   C854      1.0  0.75796  0.91411  0.65658  1.0000
  C   C855      1.0  0.82862  0.93694  0.63066  1.0000
  H   H1490     1.0  0.67731  0.92551  0.59784  1.0000
  C   C856      1.0  0.84021  0.82354  0.68274  1.0000
  C   C857      1.0  0.92544  0.78725  0.54628  1.0000
  H   H1491     1.0  0.93974  0.57274  0.67938  1.0000
  H   H1492     1.0  0.84462  0.65373  0.51783  1.0000
  C   C858      1.0  0.89081  0.76387  0.56679  1.0000
  H   H1493     1.0  0.79604  0.90093  0.62793  1.0000
  C   C859      1.0  0.82770  0.78469  0.60524  1.0000
  H   H1494     1.0  0.84164  0.72110  0.58479  1.0000
  H   H1495     1.0  0.78161  0.92317  0.69521  1.0000
  H   H1496     1.0  0.80994  0.87479  0.69634  1.0000
  H   H1497     1.0  0.79668  0.86162  0.66350  1.0000
  H   H1498     1.0  0.85264  0.88038  0.68306  1.0000
  H   H1499     1.0  0.83664  0.86224  0.65114  1.0000
  H   H1500     1.0  0.82879  0.80749  0.62005  1.0000
  H   H1501     1.0  0.98883  0.98793  0.72262  1.0000
  H   H1502     1.0  0.75886  0.88316  0.65560  1.0000
  H   H1503     1.0  0.75498  0.92511  0.63625  1.0000
  H   H1504     1.0  0.71782  0.91365  0.65263  1.0000
  H   H1505     1.0  0.84441  0.91836  0.63902  1.0000
  H   H1506     1.0  0.81952  0.90702  0.59303  1.0000
  H   H1507     1.0  0.87344  0.72811  0.52003  1.0000
  H   H1508     1.0  0.98943  0.92785  0.99820  1.0000
  H   H1509     1.0  0.82479  0.80499  0.67229  1.0000
  H   H1510     1.0  0.85807  0.81238  0.67949  1.0000
  H   H1511     1.0  0.84107  0.82312  0.70422  1.0000
  C   C860      1.0  0.00661  0.73267  0.52476  1.0000
  C   C861      1.0  0.82641  0.94574  0.68461  1.0000
  H   H1512     1.0  0.00159  0.98737  0.85869  1.0000
  H   H1513     1.0  0.96600  0.72847  0.51726  1.0000
  H   H1514     1.0  0.86541  0.76775  0.62101  1.0000
  H   H1515     1.0  0.85241  0.97077  0.75024  1.0000
  Fe  Fe95      1.0  0.00018  0.67545  0.64601  1.0000
  H   H1516     1.0  0.79145  0.94939  0.63203  1.0000
  H   H1517     1.0  0.97104  0.52250  0.51436  1.0000
  H   H1518     1.0  0.73576  0.91142  0.68620  1.0000
  N   N48       1.0  0.87786  0.73163  0.57668  1.0000
  H   H1519     1.0  0.00406  0.89856  0.96199  1.0000
  C   C862      1.0  0.85294  0.74505  0.58031  1.0000
  H   H1520     1.0  0.84294  0.72239  0.52654  1.0000
  H   H1521     1.0  0.87543  0.65942  0.51173  1.0000
  H   H1522     1.0  0.99816  0.90646  0.56702  1.0000
  H   H1523     1.0  0.77968  0.96224  0.67385  1.0000
  H   H1524     1.0  0.73315  0.95508  0.66843  1.0000
  H   H1525     1.0  0.99812  0.99410  0.77079  1.0000
  H   H1526     1.0  0.99367  0.00274  0.93140  1.0000
  H   H1527     1.0  0.00340  0.90199  0.53432  1.0000
  H   H1528     1.0  0.98116  0.68857  0.50657  1.0000
  H   H1529     1.0  0.99285  0.84093  0.55197  1.0000
  H   H1530     1.0  0.00030  0.78939  0.50984  1.0000
  C   C863      1.0  0.85102  0.97062  0.72868  1.0000
  H   H1531     1.0  0.81246  0.95553  0.72041  1.0000
  H   H1532     1.0  0.00768  0.55751  0.63361  1.0000
  H   H1533     1.0  0.96412  0.50472  0.57861  1.0000
  Fe  Fe96      1.0  0.00868  0.67359  0.59005  1.0000
  H   H1534     1.0  0.00691  0.94863  0.73774  1.0000
  C   C864      1.0  0.00741  0.97932  0.73446  1.0000
  S   S192      1.0  0.71280  0.00269  0.61920  1.0000
  H   H1535     1.0  0.75745  0.00265  0.59971  1.0000
  H   H1536     1.0  0.99341  0.57967  0.50727  1.0000
