data_image0
_chemical_formula_structural       HC2H2FeHS2H2Fe2S2FeS2C7H4C6H6C2HCH2CHCH2CHCH3CHCHCHNC2H4SH2CH6N2CHCH3C3HCHCH2CH3C2H3SHC3HCH4CH2CH4C2NH5SH5CH2CH14SH4CHCH2CNC2H3C2H2CHCH4CH7C3HCH3CFeSFeS2FeSFeHS2HFeS2FeSH3SHFeHSFeS2C6H5CH2C6H5C3H5C7H5C2H4NH2C2H2CH2SHC2H2CSHCH2C3HCHCH2C2H15CH3C2NH2C2H2CH2SH6CH2C3H4CSNC5H6CH5CHCHCNC10HCH11CH7SH4C2FeHC2H7CHCH2CHCHNH4CSFeH2C2H2C2H3CSHC2H5CHCSHC2HFeSH3CHSCSFe2SCFeS2Fe2S3HSHC7H5SC7H6C2HC3H3CH2CHC2HC2H7CHCHC2SHC2HCH3CH2CHCHCHCFeHNH6CHCHCH2C2H2CH7CH2SHCH10C2HC2H3C2SH4CH4CHCH8C2H4FeNH3CHCHNHFeH2FeCH6FeH3S2H2SHSCFeS2FeS2Fe2S3HSH2FeS2FeSHCHC3H5C2H4C7H5C2HC6H6CH6CNCHC3H4SCHNC4HCSC2H2CH2CNH10CH5C3H2CH7SCH3C2H3CHCH2NC2SC2H5C3H4C3HC2HCFeHC2H11CH3CH2CH4SCHSHCH2CH4CH2SHCH4CH4CH3CHFeS2FeS3FeSHFeS2Fe2S3H2FeS2FeSH2SCSC2H2C6H6C2H3C6H4CH3C2H4C6H6C5HCHCSH7CH3CH3CH5SH2CH2FeH5CHC4H2C6HC3HCH5CH6CH3CH3CNHNHC5SCHC2H8C2NCH8CH3NHCH6NHC2H2CHC2H2CH2CHSCH4CHC2H4C2H4CHCHNH3CHCSH2CFeH3SH7CH3C3H3S2FeSHSCNFeS2C2H2SHCH3C2H2C6H4C6H4CH3NH6C3HCH4C2H2C3HCH3FeHCH6CHCHCH4CH4CHCHCH5CH2C3H3CH3CHFeH3SHSH2CH3C3HCH6CHFeH2CH4C2H2NHFeH7CHC2H2CSFeSNSCHFeS2FeSHSHC4HCH3C2H3C6H4SH2CH4FeCH6CHC3H2CH2CH5NH2CFeCHSHCH2CH4CH7FeCHCH3SHC2H2CH2C2HCHCSHCHCHC2H6FeS2HSFe2S3FeHSCFeS2NHFeSFeHSHSC2SFeHC6H2SHC6H4C2H4C6H5C3HC2H3CH2CH3CSHCH3C2H3NH6CH2C2HCH4NC6HC4H23C2HCH12CH6CH2C2H5C2H4CH5CH3CHCH2C2HNCNCSHCHSHC2SH2C4H2CH3C4FeH4CH3CH2CHCHC2H4CH2CH3CHCH5CH5SFeHFeSFeS2HFeSCFeS2FeCFeS5C6HCH4SH3C7H4C2H3CHCH2C2HCH3NC3H6C2H2CH6CH5C2HCHC2H2NC6HC3H7SHFeHCH12C3H3CH4CH4CSCH8CHCH5CH4CH2CH3NC7H3CH8NCSCH2FeHC2HCSCH2C2H2CHCHCH3C5H3CSHCSHSFeSHSCFeS2FeS2FeSFeCS2H2SHCHSH2SHCHC3H2CHCH2C7H4C5H2CH3C2H3C6H3CH5FeH6FeH2C4H2CSHSH7FeH2CH2NSH4C2H6CH2C2H4CNCHC3H3C2H3CHCHC3H4C2HCHSHNCH2CH7CNFeH2CH3C2H3SHCHCH2C2H2CH4CHNC4H3CHSH4FeS2FeSFeSFeS2HSFeS2C2HCFeSCSHCHCH2C6H4CH2C6H4CHCHC2H3C6H3C2NC3HCFeC2H3CH2CH3CH3CHCSNC8H2C2H8CH10SCH7NC6HC4H26CH5CH4FeHCHC2H2CH2CH5CHCH2C4H5SH3CH4CHC2H4SCH8CHSH2SHFeH5C2HCH5CFeCHFeS2FeS3FeHFeHSHC6H4C6H7CHC2H2NH3C2H11C3H7SCH3C2SH5CH8CH3CHC2HCHCHCHNH2C3H3C2H3CHC2H2C2HC2H2CHCHNH3CH8SC4HCH3FeHCHCH2CH4S
_chemical_formula_sum              "H1536 C864 Fe96 S192 N48"
_cell_length_a       30.8021
_cell_length_b       56.4439
_cell_length_c       54.8583
_cell_angle_alpha    89.0923
_cell_angle_beta     90.1572
_cell_angle_gamma    90.0624

_space_group_name_H-M_alt    "P 1"
_space_group_IT_number       1

loop_
  _space_group_symop_operation_xyz
  'x, y, z'

loop_
  _atom_site_type_symbol
  _atom_site_label
  _atom_site_symmetry_multiplicity
  _atom_site_fract_x
  _atom_site_fract_y
  _atom_site_fract_z
  _atom_site_occupancy
  H   H1        1.0  0.44718  0.26447  0.03831  1.0000
  C   C1        1.0  0.45433  0.26602  0.43265  1.0000
  C   C2        1.0  0.41265  0.10926  0.16138  1.0000
  H   H2        1.0  0.23428  0.34391  0.07973  1.0000
  H   H3        1.0  0.43782  0.04800  0.04235  1.0000
  Fe  Fe1       1.0  0.44694  0.30430  0.13574  1.0000
  H   H4        1.0  0.38931  0.02311  0.17409  1.0000
  S   S1        1.0  0.41380  0.26825  0.13578  1.0000
  S   S2        1.0  0.16607  0.33753  0.49677  1.0000
  H   H5        1.0  0.48218  0.28545  0.46300  1.0000
  H   H6        1.0  0.47510  0.09356  0.15613  1.0000
  Fe  Fe2       1.0  0.48972  0.34084  0.16952  1.0000
  Fe  Fe3       1.0  0.32222  0.18418  0.03356  1.0000
  S   S3        1.0  0.27026  0.15699  0.04177  1.0000
  S   S4        1.0  0.32443  0.22356  0.04232  1.0000
  Fe  Fe4       1.0  0.32567  0.13145  0.04897  1.0000
  S   S5        1.0  0.33393  0.10918  0.08380  1.0000
  S   S6        1.0  0.37631  0.15968  0.04378  1.0000
  C   C3        1.0  0.39642  0.28641  0.21808  1.0000
  C   C4        1.0  0.37004  0.03015  0.09077  1.0000
  C   C5        1.0  0.36814  0.04445  0.11130  1.0000
  C   C6        1.0  0.35649  0.06853  0.10878  1.0000
  C   C7        1.0  0.34701  0.07860  0.08580  1.0000
  C   C8        1.0  0.34837  0.06423  0.06529  1.0000
  C   C9        1.0  0.35990  0.04013  0.06778  1.0000
  H   H7        1.0  0.46110  0.03161  0.18179  1.0000
  H   H8        1.0  0.35424  0.07949  0.12467  1.0000
  H   H9        1.0  0.33968  0.07161  0.04765  1.0000
  H   H10       1.0  0.31755  0.33544  0.12577  1.0000
  C   C10       1.0  0.39110  0.25567  0.10926  1.0000
  C   C11       1.0  0.37407  0.23258  0.11053  1.0000
  C   C12       1.0  0.35479  0.22220  0.08997  1.0000
  C   C13       1.0  0.35153  0.23506  0.06806  1.0000
  C   C14       1.0  0.36853  0.25817  0.06677  1.0000
  C   C15       1.0  0.38876  0.26832  0.08717  1.0000
  H   H11       1.0  0.37566  0.22268  0.12756  1.0000
  H   H12       1.0  0.34151  0.20446  0.09124  1.0000
  H   H13       1.0  0.36584  0.26829  0.04993  1.0000
  H   H14       1.0  0.40184  0.28606  0.08596  1.0000
  H   H15       1.0  0.45643  0.23593  0.07153  1.0000
  H   H16       1.0  0.48685  0.18358  0.43451  1.0000
  C   C16       1.0  0.23565  0.25382  0.09754  1.0000
  C   C17       1.0  0.39017  0.30410  0.23857  1.0000
  H   H17       1.0  0.40444  0.11724  0.12259  1.0000
  C   C18       1.0  0.48426  0.24397  0.43545  1.0000
  H   H18       1.0  0.41347  0.22886  0.02811  1.0000
  H   H19       1.0  0.47416  0.30407  0.05161  1.0000
  C   C19       1.0  0.45048  0.21865  0.40515  1.0000
  H   H20       1.0  0.40271  0.17725  0.39622  1.0000
  C   C20       1.0  0.31322  0.30916  0.16642  1.0000
  H   H21       1.0  0.34475  0.30015  0.16335  1.0000
  H   H22       1.0  0.43612  0.26694  0.47109  1.0000
  C   C21       1.0  0.46102  0.12207  0.06844  1.0000
  H   H23       1.0  0.43332  0.08758  0.06239  1.0000
  C   C22       1.0  0.30611  0.31920  0.07613  1.0000
  H   H24       1.0  0.43601  0.20877  0.42087  1.0000
  H   H25       1.0  0.46900  0.23254  0.44973  1.0000
  H   H26       1.0  0.37513  0.03680  0.12904  1.0000
  C   C23       1.0  0.50148  0.02911  0.45376  1.0000
  H   H27       1.0  0.29751  0.30091  0.18265  1.0000
  C   C24       1.0  0.47934  0.09590  0.03251  1.0000
  H   H28       1.0  0.28624  0.31961  0.05911  1.0000
  C   C25       1.0  0.44999  0.27888  0.45683  1.0000
  H   H29       1.0  0.19792  0.33069  0.12199  1.0000
  N   N1        1.0  0.27709  0.31926  0.09834  1.0000
  C   C26       1.0  0.40927  0.18875  0.38002  1.0000
  C   C27       1.0  0.44427  0.10303  0.05129  1.0000
  H   H30       1.0  0.39653  0.03039  0.20555  1.0000
  H   H31       1.0  0.22448  0.29716  0.11220  1.0000
  H   H32       1.0  0.37300  0.06372  0.16283  1.0000
  H   H33       1.0  0.43278  0.07932  0.13976  1.0000
  S   S7        1.0  0.45643  0.32689  0.10224  1.0000
  H   H34       1.0  0.25175  0.23667  0.09361  1.0000
  H   H35       1.0  0.35733  0.30161  0.24647  1.0000
  C   C28       1.0  0.39059  0.06133  0.18042  1.0000
  H   H36       1.0  0.42168  0.19989  0.06304  1.0000
  H   H37       1.0  0.48321  0.11124  0.01964  1.0000
  H   H38       1.0  0.37430  0.07352  0.19328  1.0000
  H   H39       1.0  0.50705  0.30602  0.22279  1.0000
  H   H40       1.0  0.48030  0.25602  0.38367  1.0000
  H   H41       1.0  0.41465  0.29968  0.25286  1.0000
  N   N2        1.0  0.46986  0.07364  0.01852  1.0000
  N   N3        1.0  0.49265  0.23010  0.41255  1.0000
  C   C29       1.0  0.33093  0.03237  0.19265  1.0000
  H   H42       1.0  0.42566  0.33738  0.43830  1.0000
  C   C30       1.0  0.26721  0.27412  0.09221  1.0000
  H   H43       1.0  0.44188  0.20297  0.02075  1.0000
  H   H44       1.0  0.46746  0.27899  0.41921  1.0000
  H   H45       1.0  0.29625  0.27163  0.10398  1.0000
  C   C31       1.0  0.44126  0.08689  0.15784  1.0000
  C   C32       1.0  0.48471  0.07165  0.24387  1.0000
  C   C33       1.0  0.37084  0.33573  0.05273  1.0000
  H   H46       1.0  0.49416  0.02918  0.47362  1.0000
  C   C34       1.0  0.39674  0.32995  0.22930  1.0000
  H   H47       1.0  0.20632  0.25545  0.08581  1.0000
  C   C35       1.0  0.41605  0.12609  0.13934  1.0000
  H   H48       1.0  0.32519  0.30256  0.07564  1.0000
  H   H49       1.0  0.33473  0.30676  0.11753  1.0000
  C   C36       1.0  0.30508  0.31755  0.12100  1.0000
  H   H50       1.0  0.30548  0.32490  0.22581  1.0000
  H   H51       1.0  0.37759  0.32924  0.47390  1.0000
  H   H52       1.0  0.42605  0.23242  0.40024  1.0000
  C   C37       1.0  0.46358  0.19078  0.09299  1.0000
  C   C38       1.0  0.28396  0.30638  0.14417  1.0000
  H   H53       1.0  0.42808  0.29436  0.45442  1.0000
  H   H54       1.0  0.22593  0.25369  0.11702  1.0000
  H   H55       1.0  0.41097  0.17736  0.36371  1.0000
  S   S8        1.0  0.29176  0.34462  0.48628  1.0000
  H   H56       1.0  0.37784  0.10466  0.16359  1.0000
  C   C39       1.0  0.24590  0.29872  0.09607  1.0000
  C   C40       1.0  0.50409  0.02652  0.06853  1.0000
  C   C41       1.0  0.45594  0.07788  0.20084  1.0000
  H   H57       1.0  0.27869  0.28710  0.14174  1.0000
  C   C42       1.0  0.34023  0.33938  0.07424  1.0000
  H   H58       1.0  0.27749  0.27251  0.07290  1.0000
  H   H59       1.0  0.49142  0.06362  0.07053  1.0000
  H   H60       1.0  0.22335  0.30187  0.08042  1.0000
  H   H61       1.0  0.47733  0.03568  0.02311  1.0000
  C   C43       1.0  0.25176  0.34219  0.09750  1.0000
  H   H62       1.0  0.48818  0.26501  0.01552  1.0000
  H   H63       1.0  0.36049  0.02909  0.05185  1.0000
  C   C44       1.0  0.48066  0.25821  0.03418  1.0000
  H   H64       1.0  0.41637  0.02478  0.43531  1.0000
  H   H65       1.0  0.42332  0.11915  0.17766  1.0000
  H   H66       1.0  0.42897  0.28866  0.20962  1.0000
  H   H67       1.0  0.39392  0.26805  0.22552  1.0000
  C   C45       1.0  0.21865  0.34632  0.11822  1.0000
  C   C46       1.0  0.37966  0.03558  0.18853  1.0000
  N   N4        1.0  0.48223  0.23142  0.03510  1.0000
  H   H68       1.0  0.37992  0.33185  0.21152  1.0000
  H   H69       1.0  0.31941  0.04415  0.20731  1.0000
  H   H70       1.0  0.48673  0.05880  0.25939  1.0000
  H   H71       1.0  0.44573  0.17394  0.09636  1.0000
  H   H72       1.0  0.31261  0.03628  0.17558  1.0000
  S   S9        1.0  0.42044  0.33365  0.15871  1.0000
  H   H73       1.0  0.04234  0.08674  0.02365  1.0000
  H   H74       1.0  0.40006  0.07640  0.02196  1.0000
  H   H75       1.0  0.38887  0.31880  0.05489  1.0000
  H   H76       1.0  0.38203  0.20145  0.37744  1.0000
  H   H77       1.0  0.37113  0.28885  0.20386  1.0000
  C   C47       1.0  0.46037  0.06033  0.22270  1.0000
  H   H78       1.0  0.45081  0.04044  0.15137  1.0000
  H   H79       1.0  0.41547  0.11046  0.04165  1.0000
  C   C48       1.0  0.47049  0.05147  0.03439  1.0000
  H   H80       1.0  0.36035  0.33987  0.09098  1.0000
  H   H81       1.0  0.39540  0.14192  0.14223  1.0000
  H   H82       1.0  0.43157  0.33179  0.22453  1.0000
  H   H83       1.0  0.25228  0.31442  0.14844  1.0000
  H   H84       1.0  0.47206  0.13788  0.05784  1.0000
  H   H85       1.0  0.45088  0.20430  0.10561  1.0000
  H   H86       1.0  0.42121  0.26088  0.42679  1.0000
  H   H87       1.0  0.39022  0.32711  0.27941  1.0000
  H   H88       1.0  0.47030  0.18485  0.05469  1.0000
  H   H89       1.0  0.45781  0.09437  0.51086  1.0000
  H   H90       1.0  0.48813  0.08632  0.19756  1.0000
  H   H91       1.0  0.43435  0.12757  0.08071  1.0000
  H   H92       1.0  0.42779  0.05531  0.22958  1.0000
  H   H93       1.0  0.51348  0.28770  0.26420  1.0000
  S   S10       1.0  0.49106  0.31250  0.37871  1.0000
  H   H94       1.0  0.48494  0.04516  0.44616  1.0000
  H   H95       1.0  0.46749  0.08774  0.25009  1.0000
  H   H96       1.0  0.45009  0.13207  0.13662  1.0000
  H   H97       1.0  0.45742  0.21254  0.36611  1.0000
  C   C49       1.0  0.45713  0.19878  0.06649  1.0000
  H   H98       1.0  0.24645  0.25081  0.50810  1.0000
  C   C50       1.0  0.45222  0.20198  0.38308  1.0000
  H   H99       1.0  0.31899  0.32820  0.17011  1.0000
  H   H100      1.0  0.43493  0.09251  0.20729  1.0000
  C   C51       1.0  0.46416  0.04690  0.16900  1.0000
  N   N5        1.0  0.43810  0.06788  0.17751  1.0000
  C   C52       1.0  0.51313  0.31702  0.23841  1.0000
  C   C53       1.0  0.39388  0.34545  0.43917  1.0000
  H   H101      1.0  0.23742  0.21982  0.50235  1.0000
  H   H102      1.0  0.43976  0.33932  0.26866  1.0000
  H   H103      1.0  0.48821  0.11512  0.07978  1.0000
  C   C54       1.0  0.47771  0.22347  0.06147  1.0000
  C   C55       1.0  0.50230  0.05107  0.05643  1.0000
  H   H104      1.0  0.47123  0.02095  0.07470  1.0000
  H   H105      1.0  0.35240  0.33565  0.03531  1.0000
  C   C56       1.0  0.36658  0.34091  0.45933  1.0000
  H   H106      1.0  0.47849  0.04414  0.21785  1.0000
  C   C57       1.0  0.44446  0.22257  0.02011  1.0000
  H   H107      1.0  0.46569  0.05119  0.50920  1.0000
  H   H108      1.0  0.51081  0.09471  0.04225  1.0000
  H   H109      1.0  0.47812  0.18849  0.38505  1.0000
  H   H110      1.0  0.49857  0.18780  0.09688  1.0000
  C   C58       1.0  0.30603  0.34439  0.22818  1.0000
  H   H111      1.0  0.32430  0.33884  0.26550  1.0000
  H   H112      1.0  0.51215  0.20247  0.45675  1.0000
  H   H113      1.0  0.23910  0.34720  0.21599  1.0000
  H   H114      1.0  0.50443  0.26723  0.07106  1.0000
  H   H115      1.0  0.50900  0.03220  0.40151  1.0000
  H   H116      1.0  0.45035  0.34631  0.31476  1.0000
  H   H117      1.0  0.50975  0.22419  0.07092  1.0000
  C   C59       1.0  0.50837  0.24725  0.39294  1.0000
  C   C60       1.0  0.51197  0.27136  0.05167  1.0000
  C   C61       1.0  0.50795  0.29819  0.04813  1.0000
  H   H118      1.0  0.39477  0.33889  0.32228  1.0000
  C   C62       1.0  0.40477  0.34341  0.27116  1.0000
  H   H119      1.0  0.24533  0.34454  0.24864  1.0000
  H   H120      1.0  0.09777  0.08639  0.01319  1.0000
  H   H121      1.0  0.05793  0.31089  0.49760  1.0000
  C   C63       1.0  0.51365  0.05111  0.16566  1.0000
  Fe  Fe5       1.0  0.39785  0.03586  0.64990  1.0000
  S   S11       1.0  0.39055  0.06139  0.61832  1.0000
  Fe  Fe6       1.0  0.44198  0.07298  0.68261  1.0000
  S   S12       1.0  0.43905  0.10061  0.65254  1.0000
  S   S13       1.0  0.46293  0.08531  0.72054  1.0000
  Fe  Fe7       1.0  0.37029  0.08802  0.64643  1.0000
  S   S14       1.0  0.32197  0.11865  0.64201  1.0000
  Fe  Fe8       1.0  0.45928  0.07183  0.62716  1.0000
  H   H122      1.0  0.31685  0.04748  0.75375  1.0000
  S   S15       1.0  0.37226  0.06160  0.67758  1.0000
  S   S16       1.0  0.46761  0.04508  0.65768  1.0000
  H   H123      1.0  0.19726  0.12905  0.59537  1.0000
  Fe  Fe9       1.0  0.07825  0.15982  0.64125  1.0000
  S   S17       1.0  0.11064  0.19397  0.65047  1.0000
  S   S18       1.0  0.11519  0.12504  0.64581  1.0000
  Fe  Fe10      1.0  0.07991  0.20822  0.61607  1.0000
  S   S19       1.0  0.11587  0.22620  0.58484  1.0000
  H   H124      1.0  0.50466  0.18862  0.01144  1.0000
  H   H125      1.0  0.05715  0.06957  0.99728  1.0000
  H   H126      1.0  0.50103  0.01888  0.58181  1.0000
  S   S20       1.0  0.07862  0.20171  0.92402  1.0000
  H   H127      1.0  0.28109  0.22541  0.53971  1.0000
  Fe  Fe11      1.0  0.02194  0.19419  0.89811  1.0000
  H   H128      1.0  0.02008  0.33290  0.98011  1.0000
  S   S21       1.0  0.44526  0.14835  0.98965  1.0000
  Fe  Fe12      1.0  0.27730  0.14672  0.00232  1.0000
  S   S22       1.0  0.22103  0.13629  0.97710  1.0000
  S   S23       1.0  0.32552  0.17556  0.99362  1.0000
  C   C64       1.0  0.11964  0.18349  0.93743  1.0000
  C   C65       1.0  0.12439  0.15963  0.93159  1.0000
  C   C66       1.0  0.15563  0.14549  0.94384  1.0000
  C   C67       1.0  0.18322  0.15516  0.96165  1.0000
  C   C68       1.0  0.17915  0.17921  0.96705  1.0000
  C   C69       1.0  0.14748  0.19324  0.95504  1.0000
  H   H129      1.0  0.10403  0.15214  0.91760  1.0000
  H   H130      1.0  0.15879  0.12699  0.93934  1.0000
  H   H131      1.0  0.20008  0.18690  0.98068  1.0000
  H   H132      1.0  0.14431  0.21171  0.95963  1.0000
  H   H133      1.0  0.13558  0.30183  0.93552  1.0000
  C   C70       1.0  0.34828  0.05427  0.74673  1.0000
  H   H134      1.0  0.28650  0.17838  0.55826  1.0000
  H   H135      1.0  0.34889  0.15569  0.57643  1.0000
  C   C71       1.0  0.11782  0.25719  0.58025  1.0000
  C   C72       1.0  0.10132  0.27285  0.59737  1.0000
  C   C73       1.0  0.10403  0.29746  0.59301  1.0000
  C   C74       1.0  0.12308  0.30654  0.57155  1.0000
  C   C75       1.0  0.13925  0.29080  0.55438  1.0000
  C   C76       1.0  0.13661  0.26623  0.55875  1.0000
  H   H136      1.0  0.08682  0.26607  0.61402  1.0000
  H   H137      1.0  0.09144  0.30956  0.60637  1.0000
  H   H138      1.0  0.15382  0.29760  0.53777  1.0000
  H   H139      1.0  0.14904  0.25420  0.54538  1.0000
  H   H140      1.0  0.37512  0.22344  0.98777  1.0000
  C   C77       1.0  0.43450  0.10117  0.93487  1.0000
  C   C78       1.0  0.42410  0.11673  0.95371  1.0000
  C   C79       1.0  0.45672  0.13010  0.96470  1.0000
  H   H141      1.0  0.42463  0.03498  0.72181  1.0000
  H   H142      1.0  0.06811  0.29923  0.96419  1.0000
  H   H143      1.0  0.40910  0.09080  0.92650  1.0000
  H   H144      1.0  0.39086  0.11828  0.95982  1.0000
  H   H145      1.0  0.35370  0.04535  0.96966  1.0000
  C   C80       1.0  0.47746  0.09900  0.92675  1.0000
  C   C81       1.0  0.26457  0.11961  0.64478  1.0000
  C   C82       1.0  0.24415  0.14186  0.64546  1.0000
  C   C83       1.0  0.19858  0.14377  0.64602  1.0000
  C   C84       1.0  0.17276  0.12338  0.64605  1.0000
  C   C85       1.0  0.19315  0.10108  0.64615  1.0000
  C   C86       1.0  0.23884  0.09916  0.64550  1.0000
  H   H146      1.0  0.26378  0.15775  0.64542  1.0000
  H   H147      1.0  0.18351  0.16102  0.64623  1.0000
  H   H148      1.0  0.17348  0.08518  0.64628  1.0000
  H   H149      1.0  0.25408  0.08192  0.64504  1.0000
  H   H150      1.0  0.06545  0.31382  0.52993  1.0000
  C   C87       1.0  0.30050  0.17550  0.59675  1.0000
  C   C88       1.0  0.14004  0.28314  0.93007  1.0000
  H   H151      1.0  0.42894  0.05942  0.97165  1.0000
  H   H152      1.0  0.30463  0.20485  0.57161  1.0000
  H   H153      1.0  0.35523  0.07675  0.97496  1.0000
  H   H154      1.0  0.29263  0.02442  0.54637  1.0000
  N   N6        1.0  0.05636  0.27693  0.93290  1.0000
  H   H155      1.0  0.14360  0.28253  0.90995  1.0000
  H   H156      1.0  0.05049  0.13734  0.73325  1.0000
  C   C89       1.0  0.05448  0.18015  0.99140  1.0000
  C   C90       1.0  0.04947  0.29961  0.94675  1.0000
  H   H157      1.0  0.04929  0.19047  0.00821  1.0000
  H   H158      1.0  0.43606  0.05418  0.84111  1.0000
  C   C91       1.0  0.46385  0.04552  0.83197  1.0000
  H   H159      1.0  0.44061  0.24947  0.99054  1.0000
  H   H160      1.0  0.05639  0.14472  0.96184  1.0000
  S   S24       1.0  0.32956  0.11920  0.01029  1.0000
  H   H161      1.0  0.34279  0.05626  0.99974  1.0000
  C   C92       1.0  0.36273  0.05904  0.98308  1.0000
  C   C93       1.0  0.01808  0.23531  0.54087  1.0000
  H   H162      1.0  0.04561  0.09741  0.71501  1.0000
  H   H163      1.0  0.07840  0.29465  0.89975  1.0000
  C   C94       1.0  0.41109  0.05713  0.98911  1.0000
  S   S25       1.0  0.01615  0.16776  0.66148  1.0000
  H   H164      1.0  0.30914  0.04932  0.52750  1.0000
  C   C95       1.0  0.18274  0.27413  0.94106  1.0000
  H   H165      1.0  0.41007  0.19901  0.97949  1.0000
  H   H166      1.0  0.10550  0.26469  0.95850  1.0000
  C   C96       1.0  0.10130  0.26748  0.93851  1.0000
  C   C97       1.0  0.03183  0.20768  0.73425  1.0000
  C   C98       1.0  0.02145  0.14887  0.96375  1.0000
  H   H167      1.0  0.06167  0.26468  0.89590  1.0000
  C   C99       1.0  0.38164  0.02106  0.54151  1.0000
  H   H168      1.0  0.48472  0.03500  0.79671  1.0000
  C   C100      1.0  0.05387  0.28135  0.90569  1.0000
  H   H169      1.0  0.48230  0.10110  0.76861  1.0000
  H   H170      1.0  0.07632  0.09100  0.89996  1.0000
  C   C101      1.0  0.12400  0.17137  0.79679  1.0000
  C   C102      1.0  0.02886  0.24757  0.96618  1.0000
  H   H171      1.0  0.49308  0.05675  0.83467  1.0000
  H   H172      1.0  0.37669  0.02467  0.52169  1.0000
  H   H173      1.0  0.10575  0.24975  0.93020  1.0000
  H   H174      1.0  0.28137  0.15918  0.60035  1.0000
  H   H175      1.0  0.05751  0.23565  0.96731  1.0000
  H   H176      1.0  0.49513  0.05586  0.98675  1.0000
  H   H177      1.0  0.35610  0.04427  0.73018  1.0000
  H   H178      1.0  0.03350  0.26188  0.97957  1.0000
  H   H179      1.0  0.07642  0.19751  0.53975  1.0000
  H   H180      1.0  0.47464  0.22440  0.98362  1.0000
  H   H181      1.0  0.01545  0.23331  0.52075  1.0000
  H   H182      1.0  0.40615  0.22481  0.95994  1.0000
  H   H183      1.0  0.43757  0.09250  0.54168  1.0000
  H   H184      1.0  0.41286  0.06245  0.76006  1.0000
  H   H185      1.0  0.37152  0.08809  0.73187  1.0000
  C   C103      1.0  0.04235  0.11371  0.70356  1.0000
  H   H186      1.0  0.23998  0.24436  0.55204  1.0000
  H   H187      1.0  0.23527  0.15021  0.56260  1.0000
  H   H188      1.0  0.42201  0.09389  0.99798  1.0000
  C   C104      1.0  0.34112  0.08011  0.73908  1.0000
  C   C105      1.0  0.05457  0.10775  0.99062  1.0000
  N   N7        1.0  0.42940  0.01912  0.54755  1.0000
  H   H189      1.0  0.05840  0.19276  0.97588  1.0000
  H   H190      1.0  0.46338  0.03112  0.75901  1.0000
  C   C106      1.0  0.03860  0.21997  0.75606  1.0000
  C   C107      1.0  0.50291  0.07585  0.74193  1.0000
  H   H191      1.0  0.19434  0.23777  0.51466  1.0000
  H   H192      1.0  0.10066  0.15760  0.80320  1.0000
  C   C108      1.0  0.40653  0.21860  0.97925  1.0000
  H   H193      1.0  0.14589  0.17586  0.81216  1.0000
  H   H194      1.0  0.04931  0.08955  0.94187  1.0000
  S   S26       1.0  0.12547  0.33755  0.56679  1.0000
  H   H195      1.0  0.21013  0.28508  0.93409  1.0000
  H   H196      1.0  0.03244  0.21945  0.79542  1.0000
  H   H197      1.0  0.41126  0.05900  0.51753  1.0000
  H   H198      1.0  0.06298  0.31493  0.93620  1.0000
  H   H199      1.0  0.35966  0.15788  0.60856  1.0000
  H   H200      1.0  0.19606  0.22464  0.70833  1.0000
  C   C109      1.0  0.35560  0.03968  0.55600  1.0000
  H   H201      1.0  0.41998  0.02008  0.58659  1.0000
  H   H202      1.0  0.10570  0.18756  0.79141  1.0000
  C   C110      1.0  0.42510  0.07637  0.00744  1.0000
  C   C111      1.0  0.50439  0.08673  0.76483  1.0000
  C   C112      1.0  0.04436  0.09908  0.90410  1.0000
  H   H203      1.0  0.35408  0.03444  0.57551  1.0000
  H   H204      1.0  0.06045  0.15030  0.70364  1.0000
  H   H205      1.0  0.37207  0.06167  0.78259  1.0000
  H   H206      1.0  0.18472  0.16159  0.55055  1.0000
  C   C113      1.0  0.20262  0.15680  0.56752  1.0000
  S   S27       1.0  0.05124  0.17319  0.60544  1.0000
  N   N8        1.0  0.23588  0.19812  0.57640  1.0000
  C   C114      1.0  0.20542  0.17853  0.58443  1.0000
  C   C115      1.0  0.23270  0.21903  0.59338  1.0000
  C   C116      1.0  0.22155  0.20643  0.55131  1.0000
  C   C117      1.0  0.22094  0.21386  0.62045  1.0000
  C   C118      1.0  0.22190  0.23657  0.63528  1.0000
  H   H207      1.0  0.17181  0.18558  0.58613  1.0000
  H   H208      1.0  0.21392  0.17183  0.60293  1.0000
  H   H209      1.0  0.26317  0.22966  0.59299  1.0000
  H   H210      1.0  0.20699  0.23155  0.58701  1.0000
  H   H211      1.0  0.18613  0.21062  0.55139  1.0000
  H   H212      1.0  0.30090  0.18660  0.61317  1.0000
  C   C119      1.0  0.50171  0.07184  0.99774  1.0000
  H   H213      1.0  0.18747  0.20670  0.62171  1.0000
  H   H214      1.0  0.24316  0.20092  0.62918  1.0000
  H   H215      1.0  0.19850  0.24973  0.62761  1.0000
  H   H216      1.0  0.21240  0.23256  0.65440  1.0000
  H   H217      1.0  0.25500  0.24439  0.63530  1.0000
  C   C120      1.0  0.34727  0.16769  0.59225  1.0000
  H   H218      1.0  0.17291  0.12189  0.56661  1.0000
  C   C121      1.0  0.43531  0.01883  0.75786  1.0000
  H   H219      1.0  0.03643  0.30287  0.86043  1.0000
  C   C122      1.0  0.28226  0.18960  0.57459  1.0000
  N   N9        1.0  0.14181  0.14853  0.73013  1.0000
  C   C123      1.0  0.11528  0.12952  0.71788  1.0000
  C   C124      1.0  0.18696  0.13864  0.73389  1.0000
  C   C125      1.0  0.12078  0.15388  0.75439  1.0000
  C   C126      1.0  0.14182  0.17024  0.71370  1.0000
  C   C127      1.0  0.17025  0.19125  0.72208  1.0000
  C   C128      1.0  0.06594  0.13446  0.71532  1.0000
  C   C129      1.0  0.15064  0.16254  0.77530  1.0000
  C   C130      1.0  0.21254  0.13278  0.71039  1.0000
  C   C131      1.0  0.25801  0.12371  0.71656  1.0000
  C   C132      1.0  0.17553  0.20985  0.70179  1.0000
  H   H220      1.0  0.32964  0.09063  0.75473  1.0000
  C   C133      1.0  0.17810  0.13633  0.57981  1.0000
  H   H221      1.0  0.11892  0.11229  0.72788  1.0000
  H   H222      1.0  0.12711  0.12650  0.69905  1.0000
  H   H223      1.0  0.20781  0.15088  0.74430  1.0000
  H   H224      1.0  0.18526  0.12219  0.74537  1.0000
  H   H225      1.0  0.10460  0.13774  0.76209  1.0000
  H   H226      1.0  0.09435  0.16716  0.75181  1.0000
  H   H227      1.0  0.15114  0.16547  0.69481  1.0000
  H   H228      1.0  0.10844  0.17754  0.71178  1.0000
  H   H229      1.0  0.20334  0.18560  0.72747  1.0000
  H   H230      1.0  0.15438  0.20008  0.73766  1.0000
  H   H231      1.0  0.14592  0.14227  0.58652  1.0000
  C   C134      1.0  0.30914  0.04190  0.54637  1.0000
  H   H232      1.0  0.17241  0.17709  0.76936  1.0000
  H   H233      1.0  0.17110  0.14761  0.78210  1.0000
  H   H234      1.0  0.19613  0.11875  0.69984  1.0000
  H   H235      1.0  0.21643  0.14875  0.69856  1.0000
  H   H236      1.0  0.27723  0.13756  0.72589  1.0000
  H   H237      1.0  0.25595  0.10766  0.72845  1.0000
  H   H238      1.0  0.27519  0.11899  0.69951  1.0000
  S   S28       1.0  0.04976  0.22047  0.70621  1.0000
  H   H239      1.0  0.14349  0.21724  0.69636  1.0000
  H   H240      1.0  0.19142  0.20197  0.68567  1.0000
  H   H241      1.0  0.18219  0.27528  0.96126  1.0000
  H   H242      1.0  0.37020  0.05760  0.55470  1.0000
  C   C135      1.0  0.44435  0.23001  0.99275  1.0000
  C   C136      1.0  0.01560  0.16396  0.98699  1.0000
  Fe  Fe13      1.0  0.04762  0.20272  0.66909  1.0000
  H   H243      1.0  0.04025  0.11499  0.89217  1.0000
  C   C137      1.0  0.38435  0.05195  0.76648  1.0000
  C   C138      1.0  0.44533  0.05843  0.52398  1.0000
  H   H244      1.0  0.48667  0.04134  0.55019  1.0000
  H   H245      1.0  0.31643  0.08097  0.72432  1.0000
  H   H246      1.0  0.45053  0.06105  0.79689  1.0000
  H   H247      1.0  0.07722  0.10685  0.97508  1.0000
  H   H248      1.0  0.41738  0.03907  0.99659  1.0000
  H   H249      1.0  0.31613  0.03176  0.79291  1.0000
  H   H250      1.0  0.03532  0.28098  0.55839  1.0000
  C   C139      1.0  0.02648  0.20993  0.77878  1.0000
  H   H251      1.0  0.22576  0.19213  0.53780  1.0000
  C   C140      1.0  0.45933  0.08403  0.52823  1.0000
  H   H252      1.0  0.06943  0.11868  0.93401  1.0000
  H   H253      1.0  0.36864  0.18327  0.58893  1.0000
  C   C141      1.0  0.49968  0.12815  0.95644  1.0000
  H   H254      1.0  0.05557  0.11035  0.68512  1.0000
  C   C142      1.0  0.42597  0.01694  0.73017  1.0000
  H   H255      1.0  0.49739  0.08724  0.98502  1.0000
  N   N10       1.0  0.39847  0.02713  0.77373  1.0000
  H   H256      1.0  0.29040  0.05399  0.55817  1.0000
  H   H257      1.0  0.18849  0.25541  0.93591  1.0000
  H   H258      1.0  0.38915  0.03378  0.81220  1.0000
  H   H259      1.0  0.50525  0.12064  0.60618  1.0000
  C   C143      1.0  0.45519  0.04301  0.80468  1.0000
  S   S29       1.0  0.48887  0.07885  0.90340  1.0000
  Fe  Fe14      1.0  0.37673  0.14918  0.00460  1.0000
  H   H260      1.0  0.02679  0.24265  0.92717  1.0000
  H   H261      1.0  0.06335  0.12375  0.00104  1.0000
  C   C144      1.0  0.02420  0.25779  0.93985  1.0000
  C   C145      1.0  0.04291  0.10591  0.93093  1.0000
  H   H262      1.0  0.08477  0.16964  0.99366  1.0000
  H   H263      1.0  0.44013  0.05352  0.56351  1.0000
  C   C146      1.0  0.22988  0.23451  0.51489  1.0000
  C   C147      1.0  0.45101  0.04313  0.54753  1.0000
  H   H264      1.0  0.05360  0.23731  0.75538  1.0000
  H   H265      1.0  0.01843  0.08605  0.89990  1.0000
  H   H266      1.0  0.36050  0.34045  0.53065  1.0000
  C   C148      1.0  0.41487  0.02729  0.79977  1.0000
  S   S30       1.0  0.02034  0.22060  0.63531  1.0000
  H   H267      1.0  0.46996  0.02793  0.84066  1.0000
  C   C149      1.0  0.04204  0.30846  0.51563  1.0000
  C   C150      1.0  0.24562  0.22853  0.54072  1.0000
  H   H268      1.0  0.03876  0.17465  0.54904  1.0000
  H   H269      1.0  0.49302  0.08475  0.53535  1.0000
  H   H270      1.0  0.35142  0.34128  0.56312  1.0000
  H   H271      1.0  0.30683  0.34640  0.54237  1.0000
  H   H272      1.0  0.05233  0.24071  0.54443  1.0000
  C   C151      1.0  0.51008  0.11260  0.93751  1.0000
  H   H273      1.0  0.05794  0.27153  0.51684  1.0000
  C   C152      1.0  0.04167  0.19218  0.53971  1.0000
  S   S31       1.0  0.50876  0.06987  0.59652  1.0000
  H   H274      1.0  0.03017  0.19037  0.52063  1.0000
  C   C153      1.0  0.06326  0.08626  0.00720  1.0000
  C   C154      1.0  0.02847  0.28256  0.51925  1.0000
  H   H275      1.0  0.02643  0.21119  0.57211  1.0000
  Fe  Fe15      1.0  0.13160  0.36875  0.47968  1.0000
  S   S32       1.0  0.19194  0.39071  0.47538  1.0000
  H   H276      1.0  0.42380  0.37786  0.28601  1.0000
  H   H277      1.0  0.08864  0.47875  0.48686  1.0000
  H   H278      1.0  0.49230  0.62612  0.50262  1.0000
  C   C155      1.0  0.29156  0.48296  0.16147  1.0000
  H   H279      1.0  0.31777  0.35239  0.21093  1.0000
  S   S33       1.0  0.22144  0.63790  0.02961  1.0000
  C   C156      1.0  0.32510  0.35122  0.46069  1.0000
  S   S34       1.0  0.13476  0.58054  0.03356  1.0000
  Fe  Fe16      1.0  0.17571  0.40449  0.51268  1.0000
  Fe  Fe17      1.0  0.07127  0.45531  0.16941  1.0000
  S   S35       1.0  0.08940  0.42008  0.15336  1.0000
  C   C157      1.0  0.04034  0.50122  0.50407  1.0000
  Fe  Fe18      1.0  0.13636  0.48258  0.13711  1.0000
  S   S36       1.0  0.15970  0.44965  0.11898  1.0000
  S   S37       1.0  0.16804  0.51841  0.12984  1.0000
  Fe  Fe19      1.0  0.08925  0.43948  0.11729  1.0000
  Fe  Fe20      1.0  0.15875  0.43273  0.15610  1.0000
  S   S38       1.0  0.21227  0.40816  0.17015  1.0000
  S   S39       1.0  0.06581  0.47381  0.13257  1.0000
  S   S40       1.0  0.14063  0.46655  0.17496  1.0000
  H   H280      1.0  0.49293  0.67037  0.50513  1.0000
  S   S41       1.0  0.38476  0.38377  0.11189  1.0000
  H   H281      1.0  0.05351  0.43698  0.37795  1.0000
  C   C158      1.0  0.04132  0.44069  0.26566  1.0000
  C   C159      1.0  0.25967  0.40148  0.15342  1.0000
  C   C160      1.0  0.26670  0.41045  0.12985  1.0000
  C   C161      1.0  0.30514  0.40490  0.11732  1.0000
  C   C162      1.0  0.33679  0.39024  0.12819  1.0000
  C   C163      1.0  0.32951  0.38107  0.15164  1.0000
  C   C164      1.0  0.29118  0.38670  0.16418  1.0000
  H   H282      1.0  0.24229  0.42145  0.12120  1.0000
  H   H283      1.0  0.31025  0.41184  0.09906  1.0000
  H   H284      1.0  0.35357  0.36983  0.16018  1.0000
  H   H285      1.0  0.28586  0.37972  0.18236  1.0000
  H   H286      1.0  0.27957  0.37436  0.44264  1.0000
  S   S42       1.0  0.41255  0.36627  0.39406  1.0000
  C   C165      1.0  0.43071  0.40552  0.51053  1.0000
  C   C166      1.0  0.14552  0.56372  0.06047  1.0000
  C   C167      1.0  0.12695  0.54103  0.06278  1.0000
  C   C168      1.0  0.13316  0.52709  0.08400  1.0000
  C   C169      1.0  0.15860  0.53562  0.10307  1.0000
  C   C170      1.0  0.17777  0.55817  0.10069  1.0000
  C   C171      1.0  0.17121  0.57222  0.07950  1.0000
  H   H287      1.0  0.10779  0.53426  0.04798  1.0000
  H   H288      1.0  0.11848  0.50973  0.08561  1.0000
  H   H289      1.0  0.19740  0.56493  0.11541  1.0000
  H   H290      1.0  0.18566  0.58966  0.07797  1.0000
  H   H291      1.0  0.35580  0.45482  0.13870  1.0000
  H   H292      1.0  0.08490  0.48468  0.42008  1.0000
  C   C172      1.0  0.10157  0.45227  0.40150  1.0000
  C   C173      1.0  0.40536  0.61467  0.51175  1.0000
  H   H293      1.0  0.25786  0.37223  0.23295  1.0000
  C   C174      1.0  0.40212  0.37252  0.23786  1.0000
  C   C175      1.0  0.05001  0.47420  0.03385  1.0000
  C   C176      1.0  0.28598  0.53363  0.12626  1.0000
  H   H294      1.0  0.06492  0.40570  0.47208  1.0000
  H   H295      1.0  0.43024  0.44633  0.12649  1.0000
  H   H296      1.0  0.39486  0.35043  0.05197  1.0000
  C   C177      1.0  0.10671  0.43584  0.33691  1.0000
  H   H297      1.0  0.27400  0.35767  0.09838  1.0000
  H   H298      1.0  0.21990  0.39023  0.41688  1.0000
  C   C178      1.0  0.09956  0.47379  0.03550  1.0000
  H   H299      1.0  0.12147  0.57534  0.50904  1.0000
  C   C179      1.0  0.33524  0.47394  0.10561  1.0000
  C   C180      1.0  0.26886  0.49448  0.09324  1.0000
  H   H300      1.0  0.33385  0.56212  0.12666  1.0000
  C   C181      1.0  0.37035  0.46656  0.12447  1.0000
  C   C182      1.0  0.40652  0.45241  0.11244  1.0000
  H   H301      1.0  0.12341  0.39811  0.41411  1.0000
  H   H302      1.0  0.34034  0.52035  0.10592  1.0000
  H   H303      1.0  0.32152  0.45686  0.09933  1.0000
  H   H304      1.0  0.35172  0.48215  0.08948  1.0000
  H   H305      1.0  0.28471  0.50566  0.07886  1.0000
  H   H306      1.0  0.28438  0.44688  0.17562  1.0000
  H   H307      1.0  0.08240  0.44837  0.34405  1.0000
  C   C183      1.0  0.37989  0.36036  0.42011  1.0000
  H   H308      1.0  0.42391  0.46350  0.09870  1.0000
  C   C184      1.0  0.30759  0.55478  0.13840  1.0000
  H   H309      1.0  0.39306  0.43650  0.10343  1.0000
  C   C185      1.0  0.33858  0.37088  0.42163  1.0000
  C   C186      1.0  0.04480  0.44440  0.24022  1.0000
  S   S43       1.0  0.06817  0.42418  0.08131  1.0000
  H   H310      1.0  0.32457  0.35690  0.07137  1.0000
  C   C187      1.0  0.04489  0.38269  0.44320  1.0000
  C   C188      1.0  0.27468  0.47858  0.13516  1.0000
  H   H311      1.0  0.11566  0.45792  0.30463  1.0000
  C   C189      1.0  0.25926  0.35260  0.23179  1.0000
  H   H312      1.0  0.19162  0.38847  0.37398  1.0000
  H   H313      1.0  0.23657  0.46513  0.17879  1.0000
  H   H314      1.0  0.27282  0.45915  0.13252  1.0000
  C   C190      1.0  0.18804  0.36685  0.11184  1.0000
  H   H315      1.0  0.27592  0.46472  0.06827  1.0000
  H   H316      1.0  0.07114  0.43645  0.23024  1.0000
  C   C191      1.0  0.14068  0.40385  0.39716  1.0000
  H   H317      1.0  0.27112  0.54018  0.10895  1.0000
  C   C192      1.0  0.08216  0.39151  0.36989  1.0000
  H   H318      1.0  0.35693  0.37783  0.50563  1.0000
  C   C193      1.0  0.20004  0.37514  0.41037  1.0000
  H   H319      1.0  0.32124  0.54948  0.15644  1.0000
  C   C194      1.0  0.34073  0.42159  0.49196  1.0000
  Fe  Fe21      1.0  0.43404  0.35677  0.12607  1.0000
  H   H320      1.0  0.09998  0.38189  0.35545  1.0000
  N   N11       1.0  0.29963  0.49008  0.11438  1.0000
  H   H321      1.0  0.02333  0.40463  0.04060  1.0000
  H   H322      1.0  0.15124  0.36734  0.38394  1.0000
  H   H323      1.0  0.39298  0.38706  0.25027  1.0000
  H   H324      1.0  0.24015  0.48447  0.13511  1.0000
  H   H325      1.0  0.04807  0.46040  0.42595  1.0000
  H   H326      1.0  0.34117  0.51201  0.13693  1.0000
  C   C195      1.0  0.40196  0.36282  0.29080  1.0000
  H   H327      1.0  0.32628  0.36890  0.25628  1.0000
  C   C196      1.0  0.13351  0.42372  0.35747  1.0000
  H   H328      1.0  0.07806  0.37852  0.38527  1.0000
  C   C197      1.0  0.31134  0.36635  0.44180  1.0000
  H   H329      1.0  0.16823  0.37134  0.12804  1.0000
  H   H330      1.0  0.16040  0.43820  0.31105  1.0000
  C   C198      1.0  0.28822  0.42919  0.45702  1.0000
  C   C199      1.0  0.33517  0.35076  0.25031  1.0000
  H   H331      1.0  0.06526  0.42992  0.27508  1.0000
  H   H332      1.0  0.44829  0.39934  0.20300  1.0000
  C   C200      1.0  0.41667  0.35327  0.31574  1.0000
  H   H333      1.0  0.15741  0.43678  0.36446  1.0000
  H   H334      1.0  0.41353  0.61387  0.49206  1.0000
  H   H335      1.0  0.03284  0.46960  0.07169  1.0000
  H   H336      1.0  0.32726  0.48186  0.16301  1.0000
  H   H337      1.0  0.05489  0.56818  0.49841  1.0000
  H   H338      1.0  0.29424  0.44859  0.45724  1.0000
  H   H339      1.0  0.31101  0.42079  0.44408  1.0000
  C   C201      1.0  0.21110  0.47807  0.06480  1.0000
  H   H340      1.0  0.14508  0.54619  0.50842  1.0000
  H   H341      1.0  0.21902  0.49200  0.05099  1.0000
  S   S44       1.0  0.50201  0.36602  0.13791  1.0000
  H   H342      1.0  0.28304  0.56887  0.14124  1.0000
  C   C202      1.0  0.07211  0.52201  0.50900  1.0000
  H   H343      1.0  0.04192  0.52419  0.02867  1.0000
  H   H344      1.0  0.19998  0.46193  0.05527  1.0000
  H   H345      1.0  0.25948  0.52718  0.13826  1.0000
  H   H346      1.0  0.15344  0.41013  0.34827  1.0000
  H   H347      1.0  0.24025  0.50484  0.09934  1.0000
  H   H348      1.0  0.28186  0.50088  0.16743  1.0000
  H   H349      1.0  0.28274  0.46947  0.19843  1.0000
  H   H350      1.0  0.16298  0.41833  0.40267  1.0000
  H   H351      1.0  0.36124  0.41121  0.47933  1.0000
  H   H352      1.0  0.15254  0.46449  0.32915  1.0000
  C   C203      1.0  0.17043  0.38305  0.38940  1.0000
  C   C204      1.0  0.38783  0.38115  0.21215  1.0000
  H   H353      1.0  0.43829  0.37181  0.23816  1.0000
  C   C205      1.0  0.31918  0.51367  0.12100  1.0000
  C   C206      1.0  0.27257  0.46499  0.17963  1.0000
  H   H354      1.0  0.32750  0.38246  0.40700  1.0000
  H   H355      1.0  0.35296  0.38602  0.21227  1.0000
  H   H356      1.0  0.38560  0.48210  0.13312  1.0000
  C   C207      1.0  0.25084  0.47216  0.08050  1.0000
  C   C208      1.0  0.02941  0.48381  0.05750  1.0000
  S   S45       1.0  0.11766  0.64894  0.01839  1.0000
  H   H357      1.0  0.08125  0.53025  0.49115  1.0000
  H   H358      1.0  0.22233  0.36101  0.40417  1.0000
  H   H359      1.0  0.05026  0.49831  0.06424  1.0000
  H   H360      1.0  0.36829  0.36955  0.29255  1.0000
  C   C209      1.0  0.05591  0.48619  0.48288  1.0000
  H   H361      1.0  0.16574  0.36190  0.09681  1.0000
  H   H362      1.0  0.50077  0.40198  0.50897  1.0000
  H   H363      1.0  0.24153  0.45827  0.09398  1.0000
  H   H364      1.0  0.11267  0.49206  0.03676  1.0000
  C   C210      1.0  0.13587  0.44994  0.31944  1.0000
  H   H365      1.0  0.25456  0.42617  0.45046  1.0000
  C   C211      1.0  0.41300  0.40327  0.20413  1.0000
  H   H366      1.0  0.26956  0.42694  0.49459  1.0000
  H   H367      1.0  0.01656  0.36337  0.41356  1.0000
  H   H368      1.0  0.23633  0.35107  0.13514  1.0000
  H   H369      1.0  0.35053  0.44041  0.48904  1.0000
  H   H370      1.0  0.28562  0.39933  0.48156  1.0000
  H   H371      1.0  0.03428  0.40937  0.34544  1.0000
  H   H372      1.0  0.40165  0.40916  0.18577  1.0000
  H   H373      1.0  0.09025  0.42220  0.32587  1.0000
  C   C212      1.0  0.06811  0.46939  0.41173  1.0000
  C   C213      1.0  0.29361  0.41843  0.48260  1.0000
  H   H374      1.0  0.40779  0.41790  0.21710  1.0000
  H   H375      1.0  0.04656  0.47619  0.39695  1.0000
  H   H376      1.0  0.03311  0.47122  0.48020  1.0000
  H   H377      1.0  0.18411  0.48436  0.07639  1.0000
  Fe  Fe22      1.0  0.17884  0.67019  0.02380  1.0000
  N   N12       1.0  0.38377  0.34911  0.24679  1.0000
  H   H378      1.0  0.01512  0.35934  0.36581  1.0000
  H   H379      1.0  0.12332  0.44708  0.41683  1.0000
  H   H380      1.0  0.12061  0.46206  0.38747  1.0000
  C   C214      1.0  0.03531  0.39615  0.36040  1.0000
  H   H381      1.0  0.02922  0.56684  0.02496  1.0000
  C   C215      1.0  0.07906  0.43026  0.39056  1.0000
  H   H382      1.0  0.06110  0.42124  0.40566  1.0000
  N   N13       1.0  0.10833  0.41263  0.37829  1.0000
  H   H383      1.0  0.39374  0.36756  0.19826  1.0000
  Fe  Fe23      1.0  0.16108  0.61668  0.02119  1.0000
  H   H384      1.0  0.18045  0.36786  0.42574  1.0000
  H   H385      1.0  0.11026  0.46331  0.05175  1.0000
  Fe  Fe24      1.0  0.22558  0.36071  0.49498  1.0000
  C   C216      1.0  0.04172  0.40282  0.45761  1.0000
  H   H386      1.0  0.03892  0.45568  0.03099  1.0000
  H   H387      1.0  0.20650  0.38288  0.10617  1.0000
  H   H388      1.0  0.03147  0.36698  0.33492  1.0000
  H   H389      1.0  0.04040  0.48499  0.01765  1.0000
  H   H390      1.0  0.42928  0.40944  0.49066  1.0000
  H   H391      1.0  0.11317  0.46548  0.01899  1.0000
  Fe  Fe25      1.0  0.47989  0.35083  0.38708  1.0000
  H   H392      1.0  0.02247  0.51176  0.09760  1.0000
  H   H393      1.0  0.05710  0.49691  0.46575  1.0000
  H   H394      1.0  0.02591  0.53626  0.05728  1.0000
  S   S46       1.0  0.08722  0.36221  0.44761  1.0000
  S   S47       1.0  0.50880  0.35587  0.20650  1.0000
  H   H395      1.0  0.41610  0.36771  0.32928  1.0000
  H   H396      1.0  0.29761  0.65471  0.72026  1.0000
  S   S48       1.0  0.21398  0.37602  0.53216  1.0000
  H   H397      1.0  0.13197  0.62660  0.76738  1.0000
  S   S49       1.0  0.46301  0.67908  0.70227  1.0000
  C   C217      1.0  0.37172  0.66742  0.90868  1.0000
  Fe  Fe26      1.0  0.11082  0.53617  0.61846  1.0000
  S   S50       1.0  0.14416  0.56377  0.59557  1.0000
  S   S51       1.0  0.09278  0.49967  0.60449  1.0000
  Fe  Fe27      1.0  0.10115  0.56959  0.66234  1.0000
  S   S52       1.0  0.13265  0.59980  0.64165  1.0000
  S   S53       1.0  0.09268  0.57399  0.70356  1.0000
  Fe  Fe28      1.0  0.09248  0.58803  0.60969  1.0000
  Fe  Fe29      1.0  0.18159  0.57323  0.62917  1.0000
  S   S54       1.0  0.25500  0.57808  0.63231  1.0000
  S   S55       1.0  0.05671  0.55996  0.63120  1.0000
  S   S56       1.0  0.15224  0.54335  0.65129  1.0000
  H   H398      1.0  0.42572  0.63223  0.54414  1.0000
  S   S57       1.0  0.47201  0.66199  0.63566  1.0000
  H   H399      1.0  0.17074  0.63607  0.68564  1.0000
  H   H400      1.0  0.49656  0.66127  0.98604  1.0000
  Fe  Fe30      1.0  0.13557  0.64940  0.97875  1.0000
  S   S58       1.0  0.17531  0.61635  0.98099  1.0000
  S   S59       1.0  0.08549  0.65757  0.94939  1.0000
  Fe  Fe31      1.0  0.23227  0.63993  0.98896  1.0000
  S   S60       1.0  0.29947  0.63218  0.97322  1.0000
  H   H401      1.0  0.21460  0.62300  0.64977  1.0000
  C   C218      1.0  0.34029  0.38765  0.52037  1.0000
  H   H402      1.0  0.48556  0.60378  0.52514  1.0000
  C   C219      1.0  0.32673  0.64649  0.94860  1.0000
  C   C220      1.0  0.36711  0.63763  0.94111  1.0000
  C   C221      1.0  0.38962  0.64808  0.92135  1.0000
  H   H403      1.0  0.38098  0.62245  0.95058  1.0000
  H   H404      1.0  0.11758  0.64263  0.88922  1.0000
  H   H405      1.0  0.03053  0.49817  0.88796  1.0000
  H   H406      1.0  0.26871  0.59648  0.87707  1.0000
  H   H407      1.0  0.22997  0.55015  0.68455  1.0000
  C   C222      1.0  0.06223  0.63404  0.93299  1.0000
  C   C223      1.0  0.07759  0.61088  0.93582  1.0000
  H   H408      1.0  0.45803  0.66443  0.75224  1.0000
  H   H409      1.0  0.01562  0.57420  0.78196  1.0000
  H   H410      1.0  0.18248  0.55260  0.70384  1.0000
  H   H411      1.0  0.10311  0.60700  0.94879  1.0000
  C   C224      1.0  0.47717  0.68051  0.75156  1.0000
  C   C225      1.0  0.28386  0.60356  0.62218  1.0000
  C   C226      1.0  0.26597  0.61975  0.60543  1.0000
  C   C227      1.0  0.29032  0.63955  0.59748  1.0000
  C   C228      1.0  0.33244  0.64356  0.60648  1.0000
  C   C229      1.0  0.35008  0.62755  0.62351  1.0000
  C   C230      1.0  0.32601  0.60754  0.63114  1.0000
  H   H412      1.0  0.23361  0.61685  0.59835  1.0000
  H   H413      1.0  0.27647  0.65179  0.58423  1.0000
  H   H414      1.0  0.38258  0.63032  0.63042  1.0000
  H   H415      1.0  0.34017  0.59504  0.64402  1.0000
  H   H416      1.0  0.33327  0.38384  0.56022  1.0000
  C   C231      1.0  0.13352  0.56040  0.52053  1.0000
  C   C232      1.0  0.31939  0.42658  0.53540  1.0000
  H   H417      1.0  0.03892  0.55594  0.57582  1.0000
  C   C233      1.0  0.16081  0.45913  0.54310  1.0000
  C   C234      1.0  0.17388  0.48234  0.54861  1.0000
  C   C235      1.0  0.15391  0.49488  0.56758  1.0000
  C   C236      1.0  0.11988  0.48452  0.58084  1.0000
  C   C237      1.0  0.10631  0.46150  0.57500  1.0000
  C   C238      1.0  0.12684  0.44879  0.55638  1.0000
  H   H418      1.0  0.20012  0.49050  0.53846  1.0000
  H   H419      1.0  0.16510  0.51244  0.57209  1.0000
  H   H420      1.0  0.08009  0.45330  0.58516  1.0000
  H   H421      1.0  0.11642  0.43096  0.55235  1.0000
  H   H422      1.0  0.11275  0.53790  0.55079  1.0000
  H   H423      1.0  0.08072  0.50117  0.95165  1.0000
  C   C239      1.0  0.17275  0.62399  0.73540  1.0000
  H   H424      1.0  0.28552  0.41966  0.53422  1.0000
  H   H425      1.0  0.15657  0.65362  0.64452  1.0000
  H   H426      1.0  0.23482  0.61318  0.94127  1.0000
  H   H427      1.0  0.16881  0.60475  0.91549  1.0000
  H   H428      1.0  0.14355  0.51673  0.92883  1.0000
  H   H429      1.0  0.30519  0.38405  0.51758  1.0000
  C   C240      1.0  0.06016  0.59266  0.92164  1.0000
  N   N14       1.0  0.20721  0.62971  0.89438  1.0000
  C   C241      1.0  0.29144  0.46493  0.55308  1.0000
  H   H430      1.0  0.08094  0.57509  0.75533  1.0000
  C   C242      1.0  0.25374  0.63363  0.88675  1.0000
  C   C243      1.0  0.33132  0.67633  0.91617  1.0000
  C   C244      1.0  0.21848  0.55353  0.70337  1.0000
  H   H431      1.0  0.18495  0.64705  0.86110  1.0000
  H   H432      1.0  0.02370  0.53728  0.81114  1.0000
  H   H433      1.0  0.12109  0.61114  0.88524  1.0000
  H   H434      1.0  0.25847  0.61596  0.85145  1.0000
  S   S61       1.0  0.18764  0.44374  0.51953  1.0000
  C   C245      1.0  0.19504  0.64881  0.91211  1.0000
  H   H435      1.0  0.08894  0.56661  0.54980  1.0000
  N   N15       1.0  0.23065  0.62272  0.70127  1.0000
  C   C246      1.0  0.21651  0.59793  0.69499  1.0000
  C   C247      1.0  0.19154  0.65832  0.64326  1.0000
  C   C248      1.0  0.27903  0.62468  0.69737  1.0000
  C   C249      1.0  0.22067  0.62803  0.72751  1.0000
  H   H436      1.0  0.18047  0.59649  0.69440  1.0000
  C   C250      1.0  0.23422  0.57772  0.71180  1.0000
  S   S62       1.0  0.50594  0.66882  0.84268  1.0000
  C   C251      1.0  0.16649  0.62956  0.76233  1.0000
  C   C252      1.0  0.48431  0.62336  0.52226  1.0000
  H   H437      1.0  0.20114  0.65795  0.62376  1.0000
  H   H438      1.0  0.23156  0.53941  0.71564  1.0000
  C   C253      1.0  0.20142  0.60586  0.90681  1.0000
  H   H439      1.0  0.22685  0.59371  0.67626  1.0000
  H   H440      1.0  0.19818  0.57569  0.52133  1.0000
  C   C254      1.0  0.10307  0.63085  0.85321  1.0000
  N   N16       1.0  0.34895  0.41387  0.51801  1.0000
  H   H441      1.0  0.28792  0.61817  0.67896  1.0000
  H   H442      1.0  0.29675  0.61282  0.71032  1.0000
  H   H443      1.0  0.24207  0.61752  0.73997  1.0000
  H   H444      1.0  0.19105  0.57563  0.94683  1.0000
  H   H445      1.0  0.32916  0.63673  0.85942  1.0000
  H   H446      1.0  0.25738  0.65078  0.87676  1.0000
  H   H447      1.0  0.27017  0.57723  0.71157  1.0000
  H   H448      1.0  0.22326  0.57980  0.73087  1.0000
  H   H449      1.0  0.10849  0.64846  0.84443  1.0000
  H   H450      1.0  0.28206  0.66344  0.68983  1.0000
  C   C255      1.0  0.23488  0.59955  0.92704  1.0000
  H   H451      1.0  0.49736  0.62598  0.80474  1.0000
  H   H452      1.0  0.07484  0.49639  0.91955  1.0000
  H   H453      1.0  0.18703  0.61776  0.77392  1.0000
  H   H454      1.0  0.10212  0.51309  0.51604  1.0000
  H   H455      1.0  0.26833  0.59836  0.91974  1.0000
  C   C256      1.0  0.22436  0.57564  0.93911  1.0000
  C   C257      1.0  0.03092  0.52374  0.93448  1.0000
  C   C258      1.0  0.21919  0.64063  0.65785  1.0000
  H   H456      1.0  0.07273  0.57491  0.92371  1.0000
  H   H457      1.0  0.47367  0.66222  0.55187  1.0000
  C   C259      1.0  0.45710  0.67908  0.95826  1.0000
  H   H458      1.0  0.32951  0.42287  0.55457  1.0000
  H   H459      1.0  0.16245  0.60536  0.73284  1.0000
  H   H460      1.0  0.04925  0.51593  0.55641  1.0000
  H   H461      1.0  0.28757  0.48426  0.54967  1.0000
  H   H462      1.0  0.06837  0.51702  0.80703  1.0000
  H   H463      1.0  0.34989  0.64612  0.67344  1.0000
  H   H464      1.0  0.48011  0.40777  0.53900  1.0000
  S   S63       1.0  0.06496  0.61349  0.58131  1.0000
  C   C260      1.0  0.03020  0.52993  0.54656  1.0000
  H   H465      1.0  0.22834  0.64686  0.73139  1.0000
  H   H466      1.0  0.42043  0.64087  0.91564  1.0000
  H   H467      1.0  0.45525  0.67905  0.93810  1.0000
  C   C261      1.0  0.17863  0.63062  0.87203  1.0000
  C   C262      1.0  0.12909  0.62862  0.87689  1.0000
  H   H468      1.0  0.33922  0.61656  0.88472  1.0000
  H   H469      1.0  0.16387  0.58465  0.54603  1.0000
  H   H470      1.0  0.24770  0.57215  0.95424  1.0000
  C   C263      1.0  0.17304  0.56948  0.53443  1.0000
  H   H471      1.0  0.27500  0.63526  0.90305  1.0000
  C   C264      1.0  0.50635  0.66070  0.54364  1.0000
  H   H472      1.0  0.03359  0.53509  0.95089  1.0000
  H   H473      1.0  0.49006  0.64517  0.95811  1.0000
  N   N17       1.0  0.05751  0.54090  0.52652  1.0000
  C   C265      1.0  0.34213  0.34940  0.54529  1.0000
  C   C266      1.0  0.43626  0.63139  0.52493  1.0000
  S   S64       1.0  0.36250  0.66818  0.59522  1.0000
  C   C267      1.0  0.35224  0.37591  0.54526  1.0000
  C   C268      1.0  0.11269  0.52689  0.92883  1.0000
  H   H474      1.0  0.11479  0.54048  0.94323  1.0000
  H   H475      1.0  0.06789  0.62898  0.85729  1.0000
  H   H476      1.0  0.20916  0.65841  0.69212  1.0000
  H   H477      1.0  0.25862  0.45685  0.55447  1.0000
  H   H478      1.0  0.18679  0.61583  0.85969  1.0000
  C   C269      1.0  0.04485  0.57401  0.72163  1.0000
  C   C270      1.0  0.31707  0.45393  0.53229  1.0000
  C   C271      1.0  0.09759  0.55126  0.53827  1.0000
  H   H479      1.0  0.32662  0.68004  0.98957  1.0000
  H   H480      1.0  0.36589  0.63681  0.70389  1.0000
  H   H481      1.0  0.17485  0.64834  0.76589  1.0000
  H   H482      1.0  0.27871  0.67345  0.94220  1.0000
  C   C272      1.0  0.02874  0.63875  0.91616  1.0000
  C   C273      1.0  0.32237  0.61867  0.86687  1.0000
  C   C274      1.0  0.29909  0.64966  0.70080  1.0000
  H   H483      1.0  0.20175  0.59136  0.89329  1.0000
  C   C275      1.0  0.27351  0.61473  0.86984  1.0000
  C   C276      1.0  0.30926  0.66618  0.93628  1.0000
  H   H484      1.0  0.11228  0.61668  0.84040  1.0000
  C   C277      1.0  0.34680  0.65002  0.69314  1.0000
  Fe  Fe32      1.0  0.15167  0.35510  0.53224  1.0000
  H   H485      1.0  0.36098  0.66781  0.69628  1.0000
  C   C278      1.0  0.20616  0.64007  0.68515  1.0000
  C   C279      1.0  0.04894  0.57447  0.74719  1.0000
  H   H486      1.0  0.45741  0.61007  0.57151  1.0000
  H   H487      1.0  0.21897  0.64939  0.92730  1.0000
  H   H488      1.0  0.18729  0.55513  0.54601  1.0000
  H   H489      1.0  0.22710  0.56117  0.92572  1.0000
  H   H490      1.0  0.02224  0.47561  0.94186  1.0000
  H   H491      1.0  0.46717  0.60831  0.61591  1.0000
  H   H492      1.0  0.10886  0.53585  0.91077  1.0000
  H   H493      1.0  0.16365  0.64460  0.92123  1.0000
  H   H494      1.0  0.33587  0.60548  0.85415  1.0000
  H   H495      1.0  0.01959  0.63361  0.54032  1.0000
  H   H496      1.0  0.38728  0.37789  0.54942  1.0000
  C   C280      1.0  0.07462  0.51008  0.93374  1.0000
  H   H497      1.0  0.15049  0.63561  0.72470  1.0000
  H   H498      1.0  0.40228  0.43866  0.52062  1.0000
  H   H499      1.0  0.40121  0.41715  0.54431  1.0000
  C   C281      1.0  0.03501  0.51882  0.81441  1.0000
  H   H500      1.0  0.34981  0.46206  0.53223  1.0000
  H   H501      1.0  0.25361  0.64586  0.65528  1.0000
  C   C282      1.0  0.02677  0.59734  0.90480  1.0000
  H   H502      1.0  0.30867  0.46225  0.57072  1.0000
  H   H503      1.0  0.03010  0.53628  0.91864  1.0000
  H   H504      1.0  0.04811  0.50338  0.69967  1.0000
  H   H505      1.0  0.50728  0.59048  0.60092  1.0000
  S   S65       1.0  0.39733  0.68014  0.88265  1.0000
  C   C283      1.0  0.39543  0.41961  0.52439  1.0000
  H   H506      1.0  0.03858  0.48938  0.52046  1.0000
  S   S66       1.0  0.11239  0.38481  0.51527  1.0000
  H   H507      1.0  0.50759  0.59509  0.81134  1.0000
  C   C284      1.0  0.49601  0.60891  0.60379  1.0000
  H   H508      1.0  0.02934  0.57609  0.52579  1.0000
  H   H509      1.0  0.03604  0.51542  0.83440  1.0000
  C   C285      1.0  0.49486  0.66305  0.96586  1.0000
  H   H510      1.0  0.01673  0.65665  0.91386  1.0000
  H   H511      1.0  0.16460  0.67563  0.88782  1.0000
  H   H512      1.0  0.02880  0.41730  0.78350  1.0000
  H   H513      1.0  0.19651  0.67656  0.65003  1.0000
  C   C286      1.0  0.19164  0.67434  0.90117  1.0000
  H   H514      1.0  0.42701  0.67099  0.96567  1.0000
  H   H515      1.0  0.47146  0.63876  0.58365  1.0000
  S   S67       1.0  0.19350  0.67312  0.98364  1.0000
  H   H516      1.0  0.30049  0.45889  0.51496  1.0000
  C   C287      1.0  0.48381  0.62085  0.57951  1.0000
  H   H517      1.0  0.03405  0.50431  0.76721  1.0000
  H   H518      1.0  0.22203  0.67979  0.89191  1.0000
  H   H519      1.0  0.42695  0.38613  0.51331  1.0000
  H   H520      1.0  0.03394  0.46016  0.77305  1.0000
  C   C288      1.0  0.47622  0.41214  0.51929  1.0000
  H   H521      1.0  0.01771  0.48322  0.80604  1.0000
  H   H522      1.0  0.01773  0.48109  0.73425  1.0000
  H   H523      1.0  0.48244  0.43134  0.51618  1.0000
  H   H524      1.0  0.01631  0.52651  0.68559  1.0000
  C   C289      1.0  0.50862  0.67806  0.52142  1.0000
  H   H525      1.0  0.43176  0.64935  0.51680  1.0000
  H   H526      1.0  0.40705  0.59657  0.51997  1.0000
  H   H527      1.0  0.48640  0.68132  0.79059  1.0000
  C   C290      1.0  0.03433  0.56089  0.51335  1.0000
  H   H528      1.0  0.37150  0.62118  0.51351  1.0000
  Fe  Fe33      1.0  0.29246  0.88625  0.48803  1.0000
  S   S68       1.0  0.34648  0.85969  0.49093  1.0000
  S   S69       1.0  0.24871  0.88421  0.45417  1.0000
  Fe  Fe34      1.0  0.39104  0.89022  0.49787  1.0000
  S   S70       1.0  0.45864  0.89017  0.48165  1.0000
  S   S71       1.0  0.33855  0.91708  0.49197  1.0000
  S   S72       1.0  0.18909  0.70562  0.04249  1.0000
  Fe  Fe35      1.0  0.46835  0.94015  0.13994  1.0000
  S   S73       1.0  0.46825  0.97966  0.14367  1.0000
  H   H529      1.0  0.09943  0.84263  0.26307  1.0000
  Fe  Fe36      1.0  0.37531  0.93503  0.15885  1.0000
  S   S74       1.0  0.36826  0.97436  0.16377  1.0000
  S   S75       1.0  0.32756  0.90726  0.17314  1.0000
  Fe  Fe37      1.0  0.40147  0.97807  0.12719  1.0000
  Fe  Fe38      1.0  0.43606  0.97264  0.17982  1.0000
  S   S76       1.0  0.45486  0.99157  0.21481  1.0000
  S   S77       1.0  0.40373  0.93853  0.12120  1.0000
  S   S78       1.0  0.44078  0.93333  0.17721  1.0000
  H   H530      1.0  0.32421  0.01372  0.19826  1.0000
  H   H531      1.0  0.25951  0.83287  0.42776  1.0000
  Fe  Fe39      1.0  0.10471  0.84515  0.12924  1.0000
  S   S79       1.0  0.09873  0.81682  0.15873  1.0000
  S   S80       1.0  0.15957  0.87005  0.11753  1.0000
  Fe  Fe40      1.0  0.07052  0.79419  0.12901  1.0000
  S   S81       1.0  0.07825  0.75432  0.12591  1.0000
  H   H532      1.0  0.04304  0.79206  0.25377  1.0000
  H   H533      1.0  0.48768  0.89048  0.05038  1.0000
  S   S82       1.0  0.08174  0.82116  0.09939  1.0000
  C   C291      1.0  0.08262  0.91912  0.43559  1.0000
  S   S83       1.0  0.06226  0.83819  0.43468  1.0000
  C   C292      1.0  0.30211  0.74789  0.51239  1.0000
  C   C293      1.0  0.32921  0.88307  0.08378  1.0000
  H   H534      1.0  0.02546  0.92276  0.33213  1.0000
  H   H535      1.0  0.25544  0.85509  0.08917  1.0000
  C   C294      1.0  0.27895  0.89844  0.15848  1.0000
  C   C295      1.0  0.26576  0.90861  0.13630  1.0000
  C   C296      1.0  0.22869  0.89992  0.12426  1.0000
  C   C297      1.0  0.20393  0.88133  0.13447  1.0000
  C   C298      1.0  0.21647  0.87156  0.15700  1.0000
  C   C299      1.0  0.25396  0.88002  0.16886  1.0000
  H   H536      1.0  0.28445  0.92296  0.12825  1.0000
  H   H537      1.0  0.21912  0.90764  0.10688  1.0000
  H   H538      1.0  0.19779  0.85721  0.16503  1.0000
  H   H539      1.0  0.26390  0.87208  0.18607  1.0000
  H   H540      1.0  0.15148  0.76497  0.22854  1.0000
  H   H541      1.0  0.42034  0.88440  0.16216  1.0000
  C   C300      1.0  0.16088  0.79996  0.21434  1.0000
  C   C301      1.0  0.06559  0.83959  0.25878  1.0000
  H   H542      1.0  0.37332  0.88995  0.05327  1.0000
  H   H543      1.0  0.07947  0.90370  0.38981  1.0000
  H   H544      1.0  0.07801  0.77070  0.26647  1.0000
  C   C302      1.0  0.10827  0.74118  0.10215  1.0000
  C   C303      1.0  0.09819  0.71800  0.09495  1.0000
  C   C304      1.0  0.12208  0.70691  0.07643  1.0000
  C   C305      1.0  0.15673  0.71883  0.06523  1.0000
  C   C306      1.0  0.16664  0.74202  0.07241  1.0000
  C   C307      1.0  0.14252  0.75317  0.09072  1.0000
  H   H545      1.0  0.07195  0.70851  0.10383  1.0000
  H   H546      1.0  0.35785  0.93241  0.04788  1.0000
  H   H547      1.0  0.19345  0.75134  0.06389  1.0000
  H   H548      1.0  0.15091  0.77091  0.09627  1.0000
  C   C308      1.0  0.47119  0.90982  0.45729  1.0000
  H   H549      1.0  0.44780  0.94551  0.50797  1.0000
  H   H550      1.0  0.42863  0.95616  0.04342  1.0000
  H   H551      1.0  0.43962  0.81792  0.06352  1.0000
  C   C309      1.0  0.45215  0.94193  0.42926  1.0000
  C   C310      1.0  0.44101  0.92639  0.44853  1.0000
  H   H552      1.0  0.40623  0.88395  0.11037  1.0000
  H   H553      1.0  0.32313  0.93212  0.07421  1.0000
  H   H554      1.0  0.42856  0.95460  0.42249  1.0000
  H   H555      1.0  0.40907  0.92722  0.45655  1.0000
  C   C311      1.0  0.19611  0.87213  0.44922  1.0000
  C   C312      1.0  0.18188  0.86854  0.42514  1.0000
  C   C313      1.0  0.14090  0.85842  0.42029  1.0000
  C   C314      1.0  0.11350  0.85187  0.43954  1.0000
  C   C315      1.0  0.12726  0.85600  0.46359  1.0000
  C   C316      1.0  0.16826  0.86611  0.46843  1.0000
  H   H556      1.0  0.20303  0.87330  0.41012  1.0000
  H   H557      1.0  0.13078  0.85540  0.40168  1.0000
  H   H558      1.0  0.10612  0.85123  0.47861  1.0000
  H   H559      1.0  0.17847  0.86917  0.48700  1.0000
  H   H560      1.0  0.39883  0.78385  0.47683  1.0000
  H   H561      1.0  0.27926  0.76051  0.47755  1.0000
  C   C317      1.0  0.04701  0.78729  0.03370  1.0000
  C   C318      1.0  0.06210  0.92080  0.39259  1.0000
  C   C319      1.0  0.47753  0.00700  0.44380  1.0000
  C   C320      1.0  0.46778  0.99773  0.32874  1.0000
  C   C321      1.0  0.50555  0.99212  0.25629  1.0000
  H   H562      1.0  0.50549  0.98488  0.01612  1.0000
  C   C322      1.0  0.09798  0.72881  0.25195  1.0000
  H   H563      1.0  0.16943  0.82335  0.49681  1.0000
  C   C323      1.0  0.08842  0.77866  0.21635  1.0000
  S   S84       1.0  0.01680  0.86152  0.36961  1.0000
  H   H564      1.0  0.44358  0.85548  0.16711  1.0000
  H   H565      1.0  0.45976  0.87302  0.14089  1.0000
  H   H566      1.0  0.46586  0.96322  0.34513  1.0000
  H   H567      1.0  0.13824  0.70426  0.23160  1.0000
  H   H568      1.0  0.13518  0.69808  0.26388  1.0000
  H   H569      1.0  0.49429  0.93331  0.03359  1.0000
  H   H570      1.0  0.19304  0.80187  0.22330  1.0000
  C   C324      1.0  0.24959  0.78221  0.50655  1.0000
  H   H571      1.0  0.20809  0.76908  0.46427  1.0000
  H   H572      1.0  0.43401  0.00239  0.33383  1.0000
  H   H573      1.0  0.09750  0.90122  0.43410  1.0000
  C   C325      1.0  0.45860  0.96432  0.50764  1.0000
  H   H574      1.0  0.49356  0.89027  0.30506  1.0000
  H   H575      1.0  0.29861  0.79373  0.46055  1.0000
  H   H576      1.0  0.17127  0.76879  0.48882  1.0000
  C   C326      1.0  0.43701  0.92154  0.32837  1.0000
  H   H577      1.0  0.16616  0.79403  0.19535  1.0000
  H   H578      1.0  0.46666  0.92382  0.33982  1.0000
  H   H579      1.0  0.35488  0.79799  0.49270  1.0000
  H   H580      1.0  0.13058  0.78849  0.24740  1.0000
  H   H581      1.0  0.26763  0.82422  0.48555  1.0000
  S   S85       1.0  0.05498  0.83482  0.30843  1.0000
  H   H582      1.0  0.06403  0.73984  0.04802  1.0000
  H   H583      1.0  0.35810  0.84488  0.06504  1.0000
  C   C327      1.0  0.13337  0.78192  0.22854  1.0000
  H   H584      1.0  0.40689  0.84045  0.13043  1.0000
  H   H585      1.0  0.16433  0.91915  0.45728  1.0000
  Fe  Fe41      1.0  0.02406  0.83387  0.39905  1.0000
  H   H586      1.0  0.44312  0.84966  0.09471  1.0000
  H   H587      1.0  0.44996  0.97207  0.48955  1.0000
  H   H588      1.0  0.30878  0.89426  0.09568  1.0000
  H   H589      1.0  0.39788  0.89672  0.36682  1.0000
  H   H590      1.0  0.35942  0.88858  0.12782  1.0000
  C   C328      1.0  0.46409  0.81493  0.49516  1.0000
  H   H591      1.0  0.36642  0.92303  0.33409  1.0000
  C   C329      1.0  0.43201  0.86826  0.15294  1.0000
  C   C330      1.0  0.35998  0.89959  0.06906  1.0000
  C   C331      1.0  0.33556  0.92122  0.05902  1.0000
  C   C332      1.0  0.38785  0.80068  0.48502  1.0000
  H   H592      1.0  0.10692  0.95572  0.43010  1.0000
  H   H593      1.0  0.42662  0.92191  0.37909  1.0000
  C   C333      1.0  0.07017  0.73749  0.22989  1.0000
  C   C334      1.0  0.42334  0.85258  0.07799  1.0000
  C   C335      1.0  0.49749  0.98099  0.23395  1.0000
  C   C336      1.0  0.24384  0.81398  0.47465  1.0000
  C   C337      1.0  0.26996  0.80342  0.45337  1.0000
  C   C338      1.0  0.15529  0.79376  0.45973  1.0000
  H   H594      1.0  0.42801  0.87119  0.07218  1.0000
  C   C339      1.0  0.28695  0.82301  0.43634  1.0000
  C   C340      1.0  0.13046  0.77618  0.44400  1.0000
  C   C341      1.0  0.05212  0.83922  0.23418  1.0000
  H   H595      1.0  0.41932  0.01198  0.46579  1.0000
  C   C342      1.0  0.18934  0.78094  0.47622  1.0000
  H   H596      1.0  0.30789  0.91570  0.04737  1.0000
  H   H597      1.0  0.36818  0.92130  0.37910  1.0000
  H   H598      1.0  0.07542  0.84218  0.21973  1.0000
  H   H599      1.0  0.08958  0.69119  0.24458  1.0000
  H   H600      1.0  0.22161  0.82757  0.46682  1.0000
  C   C343      1.0  0.48510  0.92738  0.29333  1.0000
  H   H601      1.0  0.25005  0.79145  0.44209  1.0000
  H   H602      1.0  0.13082  0.80305  0.47088  1.0000
  H   H603      1.0  0.17089  0.80683  0.44723  1.0000
  H   H604      1.0  0.11426  0.68901  0.07114  1.0000
  H   H605      1.0  0.41211  0.99322  0.43987  1.0000
  H   H606      1.0  0.30755  0.83569  0.44647  1.0000
  C   C344      1.0  0.51246  0.90886  0.44654  1.0000
  H   H607      1.0  0.15288  0.76694  0.43150  1.0000
  H   H608      1.0  0.11323  0.76290  0.45561  1.0000
  H   H609      1.0  0.10591  0.78586  0.43279  1.0000
  C   C345      1.0  0.02175  0.94483  0.42285  1.0000
  H   H610      1.0  0.26777  0.80651  0.11439  1.0000
  H   H611      1.0  0.03251  0.88390  0.41700  1.0000
  H   H612      1.0  0.14484  0.81759  0.21391  1.0000
  C   C346      1.0  0.50588  0.90522  0.08505  1.0000
  N   N18       1.0  0.34998  0.86352  0.09887  1.0000
  H   H613      1.0  0.12552  0.74075  0.25577  1.0000
  N   N19       1.0  0.44212  0.93432  0.30419  1.0000
  H   H614      1.0  0.15417  0.80489  0.04491  1.0000
  C   C347      1.0  0.44160  0.96086  0.30718  1.0000
  C   C348      1.0  0.40486  0.92763  0.28769  1.0000
  C   C349      1.0  0.40932  0.93551  0.26049  1.0000
  C   C350      1.0  0.12129  0.80667  0.03671  1.0000
  C   C351      1.0  0.47270  0.97087  0.32683  1.0000
  S   S86       1.0  0.02700  0.80388  0.37234  1.0000
  C   C352      1.0  0.36861  0.92935  0.24589  1.0000
  H   H615      1.0  0.09319  0.78414  0.06413  1.0000
  C   C353      1.0  0.24866  0.82244  0.10901  1.0000
  C   C354      1.0  0.19048  0.81104  0.50748  1.0000
  H   H616      1.0  0.45031  0.96989  0.28972  1.0000
  H   H617      1.0  0.40822  0.96720  0.31121  1.0000
  H   H618      1.0  0.39915  0.90816  0.28825  1.0000
  H   H619      1.0  0.37403  0.93540  0.29445  1.0000
  H   H620      1.0  0.43700  0.92648  0.25167  1.0000
  H   H621      1.0  0.41443  0.95491  0.25870  1.0000
  H   H622      1.0  0.46161  0.97995  0.05510  1.0000
  H   H623      1.0  0.07787  0.72775  0.26869  1.0000
  C   C355      1.0  0.02893  0.92438  0.37160  1.0000
  C   C356      1.0  0.11629  0.70407  0.24765  1.0000
  N   N20       1.0  0.01644  0.76727  0.04028  1.0000
  C   C357      1.0  0.44221  0.83693  0.05817  1.0000
  H   H624      1.0  0.47613  0.00663  0.31117  1.0000
  H   H625      1.0  0.37293  0.93506  0.22655  1.0000
  H   H626      1.0  0.36273  0.90993  0.24632  1.0000
  H   H627      1.0  0.33977  0.93862  0.25322  1.0000
  H   H628      1.0  0.37470  0.82839  0.09106  1.0000
  H   H629      1.0  0.22132  0.81680  0.09717  1.0000
  H   H630      1.0  0.30677  0.87566  0.06994  1.0000
  H   H631      1.0  0.43443  0.90210  0.32562  1.0000
  C   C358      1.0  0.11982  0.93748  0.43239  1.0000
  H   H632      1.0  0.01659  0.94285  0.37149  1.0000
  H   H633      1.0  0.42502  0.84004  0.04059  1.0000
  H   H634      1.0  0.47711  0.84131  0.05550  1.0000
  N   N21       1.0  0.04451  0.92158  0.41826  1.0000
  H   H635      1.0  0.38716  0.90632  0.08018  1.0000
  C   C359      1.0  0.39665  0.92849  0.34354  1.0000
  H   H636      1.0  0.11057  0.76923  0.03723  1.0000
  H   H637      1.0  0.29825  0.86132  0.12558  1.0000
  H   H638      1.0  0.45862  0.83149  0.48429  1.0000
  H   H639      1.0  0.09538  0.77156  0.19795  1.0000
  H   H640      1.0  0.46307  0.89361  0.27716  1.0000
  H   H641      1.0  0.29037  0.83157  0.07891  1.0000
  N   N22       1.0  0.21895  0.79680  0.49074  1.0000
  H   H642      1.0  0.39509  0.94783  0.34660  1.0000
  C   C360      1.0  0.27707  0.84036  0.09521  1.0000
  C   C361      1.0  0.37482  0.84663  0.08295  1.0000
  H   H643      1.0  0.32737  0.83455  0.12201  1.0000
  H   H644      1.0  0.49129  0.93780  0.27636  1.0000
  C   C362      1.0  0.49798  0.95260  0.03601  1.0000
  H   H645      1.0  0.07150  0.92040  0.45480  1.0000
  C   C363      1.0  0.37793  0.87454  0.11832  1.0000
  C   C364      1.0  0.09377  0.78518  0.04402  1.0000
  H   H646      1.0  0.48996  0.00440  0.34308  1.0000
  H   H647      1.0  0.03128  0.74185  0.18550  1.0000
  C   C365      1.0  0.39751  0.91630  0.36862  1.0000
  H   H648      1.0  0.27827  0.79305  0.51188  1.0000
  H   H649      1.0  0.23472  0.83052  0.12558  1.0000
  C   C366      1.0  0.39508  0.85720  0.13835  1.0000
  H   H650      1.0  0.04150  0.72543  0.22948  1.0000
  S   S87       1.0  0.50651  0.96136  0.39502  1.0000
  C   C367      1.0  0.31394  0.85002  0.11168  1.0000
  H   H651      1.0  0.47312  0.90994  0.09001  1.0000
  H   H652      1.0  0.13972  0.93314  0.41619  1.0000
  H   H653      1.0  0.10642  0.82326  0.04343  1.0000
  H   H654      1.0  0.36857  0.85280  0.15139  1.0000
  C   C368      1.0  0.46025  0.96058  0.05200  1.0000
  H   H655      1.0  0.07433  0.79662  0.21310  1.0000
  C   C369      1.0  0.15046  0.93712  0.45437  1.0000
  C   C370      1.0  0.26630  0.75847  0.49621  1.0000
  H   H656      1.0  0.30675  0.81515  0.42165  1.0000
  H   H657      1.0  0.13309  0.94248  0.47112  1.0000
  H   H658      1.0  0.48833  0.71343  0.51035  1.0000
  H   H659      1.0  0.03804  0.95941  0.41242  1.0000
  C   C371      1.0  0.41871  0.80804  0.50540  1.0000
  C   C372      1.0  0.03573  0.83585  0.27785  1.0000
  H   H660      1.0  0.48611  0.00719  0.26137  1.0000
  H   H661      1.0  0.02502  0.94987  0.44233  1.0000
  H   H662      1.0  0.47402  0.80118  0.48192  1.0000
  H   H663      1.0  0.17772  0.94967  0.45114  1.0000
  C   C373      1.0  0.03648  0.74345  0.03529  1.0000
  H   H664      1.0  0.38595  0.81467  0.47059  1.0000
  C   C374      1.0  0.05014  0.92052  0.34679  1.0000
  H   H665      1.0  0.23933  0.74538  0.49568  1.0000
  N   N23       1.0  0.05590  0.76314  0.22966  1.0000
  H   H666      1.0  0.46198  0.95140  0.07004  1.0000
  H   H667      1.0  0.07660  0.93358  0.34359  1.0000
  H   H668      1.0  0.08652  0.93500  0.38948  1.0000
  C   C375      1.0  0.04866  0.77267  0.25489  1.0000
  H   H669      1.0  0.06368  0.90234  0.34564  1.0000
  C   C376      1.0  0.49345  0.94102  0.41860  1.0000
  S   S88       1.0  0.03786  0.86019  0.13538  1.0000
  H   H670      1.0  0.33117  0.69004  0.02040  1.0000
  H   H671      1.0  0.48463  0.00394  0.42438  1.0000
  C   C377      1.0  0.42835  0.00951  0.44642  1.0000
  Fe  Fe42      1.0  0.03038  0.83041  0.16297  1.0000
  H   H672      1.0  0.08838  0.73355  0.21290  1.0000
  H   H673      1.0  0.10282  0.71405  0.01834  1.0000
  H   H674      1.0  0.02762  0.88806  0.46004  1.0000
  S   S89       1.0  0.38523  0.99986  0.09284  1.0000
  H   H675      1.0  0.48736  0.99076  0.45403  1.0000
  H   H676      1.0  0.03385  0.80442  0.04029  1.0000
  H   H677      1.0  0.04180  0.75925  0.30457  1.0000
  H   H678      1.0  0.03616  0.76538  0.07816  1.0000
  H   H679      1.0  0.03268  0.77306  0.17801  1.0000
  H   H680      1.0  0.12467  0.80787  0.01658  1.0000
  H   H681      1.0  0.31295  0.73072  0.50488  1.0000
  C   C378      1.0  0.49070  0.90068  0.28778  1.0000
  H   H682      1.0  0.50700  0.96706  0.32231  1.0000
  H   H683      1.0  0.49440  0.96468  0.51007  1.0000
  H   H684      1.0  0.44463  0.01166  0.51007  1.0000
  C   C379      1.0  0.01496  0.75909  0.18844  1.0000
  C   C380      1.0  0.01548  0.90036  0.42249  1.0000
  C   C381      1.0  0.51415  0.89412  0.06274  1.0000
  H   H685      1.0  0.51233  0.93206  0.30573  1.0000
  H   H686      1.0  0.04955  0.78956  0.01356  1.0000
  H   H687      1.0  0.49041  0.79645  0.65970  1.0000
  S   S90       1.0  0.38364  0.88815  0.53869  1.0000
  S   S91       1.0  0.31411  0.94868  0.55081  1.0000
  Fe  Fe43      1.0  0.33481  0.85937  0.53128  1.0000
  S   S92       1.0  0.32892  0.82208  0.54775  1.0000
  H   H688      1.0  0.37457  0.69777  0.95704  1.0000
  S   S93       1.0  0.38431  0.99615  0.64825  1.0000
  C   C382      1.0  0.49783  0.78605  0.67648  1.0000
  N   N24       1.0  0.42843  0.72212  0.96126  1.0000
  Fe  Fe44      1.0  0.46895  0.72925  0.62171  1.0000
  S   S94       1.0  0.47204  0.70235  0.59207  1.0000
  S   S95       1.0  0.47036  0.76904  0.61389  1.0000
  C   C383      1.0  0.46219  0.76727  0.68219  1.0000
  C   C384      1.0  0.43486  0.78894  0.73068  1.0000
  H   H689      1.0  0.23423  0.81548  0.53913  1.0000
  H   H690      1.0  0.35775  0.76381  0.70369  1.0000
  S   S96       1.0  0.41567  0.71079  0.64259  1.0000
  H   H691      1.0  0.34696  0.72819  0.73016  1.0000
  C   C385      1.0  0.48678  0.83900  0.52947  1.0000
  H   H692      1.0  0.48932  0.96826  0.96117  1.0000
  H   H693      1.0  0.36263  0.74031  0.92740  1.0000
  H   H694      1.0  0.49712  0.98992  0.56871  1.0000
  C   C386      1.0  0.45087  0.00406  0.52858  1.0000
  C   C387      1.0  0.47835  0.75872  0.96665  1.0000
  H   H695      1.0  0.44739  0.00132  0.76469  1.0000
  H   H696      1.0  0.47278  0.86617  0.57061  1.0000
  C   C388      1.0  0.36920  0.80766  0.56575  1.0000
  C   C389      1.0  0.36654  0.78301  0.56954  1.0000
  C   C390      1.0  0.39754  0.77090  0.58399  1.0000
  C   C391      1.0  0.43141  0.78340  0.59495  1.0000
  C   C392      1.0  0.43416  0.80805  0.59112  1.0000
  C   C393      1.0  0.40317  0.82014  0.57664  1.0000
  H   H697      1.0  0.34020  0.77321  0.56138  1.0000
  H   H698      1.0  0.39493  0.75193  0.58685  1.0000
  H   H699      1.0  0.46010  0.81790  0.59964  1.0000
  H   H700      1.0  0.40507  0.83917  0.57423  1.0000
  C   C394      1.0  0.36504  0.98286  0.62116  1.0000
  C   C395      1.0  0.33553  0.99461  0.60586  1.0000
  C   C396      1.0  0.31961  0.98350  0.58486  1.0000
  C   C397      1.0  0.33386  0.96081  0.57839  1.0000
  C   C398      1.0  0.36332  0.94892  0.59372  1.0000
  C   C399      1.0  0.37821  0.95976  0.61524  1.0000
  H   H701      1.0  0.41223  0.77655  0.74011  1.0000
  H   H702      1.0  0.29580  0.99246  0.57358  1.0000
  H   H703      1.0  0.37424  0.93135  0.58913  1.0000
  H   H704      1.0  0.40045  0.95035  0.62720  1.0000
  C   C400      1.0  0.36914  0.71892  0.71756  1.0000
  H   H705      1.0  0.40882  0.75686  0.97358  1.0000
  H   H706      1.0  0.51356  0.79085  0.97524  1.0000
  H   H707      1.0  0.46645  0.00347  0.61989  1.0000
  N   N25       1.0  0.41689  0.77665  0.68644  1.0000
  H   H708      1.0  0.44379  0.96839  0.54546  1.0000
  H   H709      1.0  0.34009  0.78865  0.62430  1.0000
  H   H710      1.0  0.50787  0.74784  0.96956  1.0000
  H   H711      1.0  0.42203  0.80203  0.65625  1.0000
  H   H712      1.0  0.48682  0.00446  0.53069  1.0000
  H   H713      1.0  0.46298  0.82348  0.73859  1.0000
  C   C401      1.0  0.48387  0.78129  0.98138  1.0000
  C   C402      1.0  0.18294  0.69259  0.92081  1.0000
  C   C403      1.0  0.40496  0.73563  0.70861  1.0000
  H   H714      1.0  0.38265  0.80190  0.70856  1.0000
  C   C404      1.0  0.43400  0.00816  0.57269  1.0000
  H   H715      1.0  0.30925  0.70959  0.99722  1.0000
  H   H716      1.0  0.41904  0.70989  0.92446  1.0000
  H   H717      1.0  0.46166  0.75433  0.66705  1.0000
  H   H718      1.0  0.40231  0.76297  0.93345  1.0000
  C   C405      1.0  0.50487  0.86893  0.56180  1.0000
  C   C406      1.0  0.40102  0.78714  0.66250  1.0000
  H   H719      1.0  0.46450  0.96613  0.00389  1.0000
  H   H720      1.0  0.15268  0.68825  0.93086  1.0000
  C   C407      1.0  0.05227  0.73966  0.00879  1.0000
  C   C408      1.0  0.49337  0.69001  0.77336  1.0000
  C   C409      1.0  0.51010  0.71247  0.72831  1.0000
  H   H721      1.0  0.45218  0.69901  0.53174  1.0000
  C   C410      1.0  0.34013  0.80426  0.63640  1.0000
  H   H722      1.0  0.41461  0.99159  0.57429  1.0000
  H   H723      1.0  0.40055  0.97631  0.52486  1.0000
  H   H724      1.0  0.38395  0.70366  0.72756  1.0000
  Fe  Fe45      1.0  0.46946  0.69155  0.66265  1.0000
  H   H725      1.0  0.16281  0.85264  0.52995  1.0000
  C   C411      1.0  0.43726  0.74474  0.97474  1.0000
  H   H726      1.0  0.37492  0.99102  0.77565  1.0000
  H   H727      1.0  0.49973  0.89129  0.96001  1.0000
  H   H728      1.0  0.33026  0.78374  0.66912  1.0000
  H   H729      1.0  0.36242  0.81794  0.62873  1.0000
  H   H730      1.0  0.33527  0.00614  0.80953  1.0000
  H   H731      1.0  0.35177  0.81306  0.67365  1.0000
  C   C412      1.0  0.43948  0.81068  0.74673  1.0000
  H   H732      1.0  0.40289  0.77354  0.64802  1.0000
  C   C413      1.0  0.46199  0.00344  0.71726  1.0000
  H   H733      1.0  0.05084  0.70094  0.01115  1.0000
  C   C414      1.0  0.38608  0.75673  0.69355  1.0000
  H   H734      1.0  0.37199  0.74840  0.67698  1.0000
  H   H735      1.0  0.46460  0.97419  0.60685  1.0000
  H   H736      1.0  0.42693  0.72527  0.69686  1.0000
  H   H737      1.0  0.46921  0.70358  0.98763  1.0000
  C   C415      1.0  0.39683  0.74581  0.92440  1.0000
  H   H738      1.0  0.48311  0.93024  0.98324  1.0000
  H   H739      1.0  0.36511  0.00377  0.54489  1.0000
  H   H740      1.0  0.16055  0.82836  0.55195  1.0000
  H   H741      1.0  0.45614  0.83504  0.53930  1.0000
  C   C416      1.0  0.18248  0.84054  0.54170  1.0000
  H   H742      1.0  0.38559  0.71990  0.00815  1.0000
  C   C417      1.0  0.42837  0.72634  0.93402  1.0000
  H   H743      1.0  0.50234  0.88384  0.54838  1.0000
  C   C418      1.0  0.38438  0.71282  0.96871  1.0000
  H   H744      1.0  0.37875  0.76358  0.89051  1.0000
  H   H745      1.0  0.43379  0.81185  0.69828  1.0000
  H   H746      1.0  0.47442  0.75712  0.69822  1.0000
  H   H747      1.0  0.21047  0.69331  0.93385  1.0000
  H   H748      1.0  0.35033  0.71199  0.70190  1.0000
  C   C419      1.0  0.33389  0.69563  0.00096  1.0000
  H   H749      1.0  0.46172  0.73040  0.92731  1.0000
  H   H750      1.0  0.47997  0.79629  0.54489  1.0000
  C   C420      1.0  0.21455  0.82652  0.52638  1.0000
  C   C421      1.0  0.50287  0.79576  0.52918  1.0000
  C   C422      1.0  0.46386  0.70461  0.96756  1.0000
  H   H751      1.0  0.40273  0.69045  0.00060  1.0000
  H   H752      1.0  0.30680  0.81173  0.63665  1.0000
  H   H753      1.0  0.43575  0.75690  0.89314  1.0000
  C   C423      1.0  0.35398  0.79704  0.66226  1.0000
  H   H754      1.0  0.39699  0.73355  0.88688  1.0000
  H   H755      1.0  0.23361  0.77707  0.52409  1.0000
  H   H756      1.0  0.40760  0.81955  0.74904  1.0000
  C   C424      1.0  0.49829  0.96624  0.01129  1.0000
  H   H757      1.0  0.31716  0.69127  0.90645  1.0000
  Fe  Fe46      1.0  0.32775  0.91338  0.53251  1.0000
  H   H758      1.0  0.17908  0.71041  0.91224  1.0000
  H   H759      1.0  0.29144  0.97982  0.78273  1.0000
  H   H760      1.0  0.46729  0.78056  0.72953  1.0000
  S   S97       1.0  0.27753  0.88438  0.52815  1.0000
  H   H761      1.0  0.42376  0.74138  0.72467  1.0000
  S   S98       1.0  0.49240  0.72052  0.86810  1.0000
  H   H762      1.0  0.42294  0.00895  0.80615  1.0000
  H   H763      1.0  0.49249  0.78014  0.51839  1.0000
  C   C425      1.0  0.48516  0.69173  0.72897  1.0000
  H   H764      1.0  0.45175  0.80515  0.76502  1.0000
  H   H765      1.0  0.35911  0.72658  0.96546  1.0000
  H   H766      1.0  0.20066  0.85140  0.55502  1.0000
  C   C426      1.0  0.41643  0.79582  0.70525  1.0000
  C   C427      1.0  0.40256  0.75015  0.89705  1.0000
  C   C428      1.0  0.48188  0.99144  0.60664  1.0000
  H   H767      1.0  0.07629  0.75328  0.00310  1.0000
  C   C429      1.0  0.48115  0.00254  0.58109  1.0000
  H   H768      1.0  0.47676  0.76407  0.94713  1.0000
  H   H769      1.0  0.45556  0.79322  0.97865  1.0000
  H   H770      1.0  0.44148  0.74090  0.99455  1.0000
  H   H771      1.0  0.46341  0.98480  0.72402  1.0000
  H   H772      1.0  0.50398  0.71061  0.54190  1.0000
  H   H773      1.0  0.49536  0.71075  0.95981  1.0000
  C   C430      1.0  0.43605  0.97772  0.52804  1.0000
  H   H774      1.0  0.02452  0.74034  0.99587  1.0000
  Fe  Fe47      1.0  0.47033  0.68302  0.87529  1.0000
  H   H775      1.0  0.50164  0.79844  0.69183  1.0000
  H   H776      1.0  0.28993  0.74464  0.53120  1.0000
  C   C431      1.0  0.48682  0.70170  0.52677  1.0000
  H   H777      1.0  0.08457  0.71293  0.98720  1.0000
  H   H778      1.0  0.48750  0.77694  0.00111  1.0000
  H   H779      1.0  0.47897  0.85478  0.51790  1.0000
  H   H780      1.0  0.49555  0.00622  0.98265  1.0000
  C   C432      1.0  0.07386  0.71542  0.00631  1.0000
  C   C433      1.0  0.37969  0.70487  0.99579  1.0000
  H   H781      1.0  0.16803  0.79908  0.51781  1.0000
  H   H782      1.0  0.42018  0.79318  0.51884  1.0000
  N   N26       1.0  0.49950  0.81837  0.51392  1.0000
  H   H783      1.0  0.40404  0.82347  0.51450  1.0000
  Fe  Fe48      1.0  0.42215  0.68248  0.61445  1.0000
  H   H784      1.0  0.23625  0.83945  0.51716  1.0000
  H   H785      1.0  0.49231  0.00705  0.93687  1.0000
  H   H786      1.0  0.49396  0.01201  0.72023  1.0000
  H   H787      1.0  0.34727  0.00889  0.75414  1.0000
  H   H788      1.0  0.32403  0.01204  0.61062  1.0000
  H   H789      1.0  0.39530  0.00754  0.72621  1.0000
  H   H790      1.0  0.45528  0.00329  0.69734  1.0000
  C   C434      1.0  0.28410  0.99902  0.78413  1.0000
  H   H791      1.0  0.25869  0.00132  0.79823  1.0000
  C   C435      1.0  0.32484  0.01278  0.79125  1.0000
  C   C436      1.0  0.36201  0.00928  0.77258  1.0000
  H   H792      1.0  0.27112  0.00569  0.76640  1.0000
  H   H793      1.0  0.33052  0.76000  0.51316  1.0000
  C   C437      1.0  0.73078  0.32191  0.36505  1.0000
  S   S99       1.0  0.59432  0.32553  0.37042  1.0000
  Fe  Fe49      1.0  0.55146  0.31514  0.40181  1.0000
  S   S100      1.0  0.56936  0.29172  0.43452  1.0000
  N   N27       1.0  0.54995  0.03083  0.44950  1.0000
  S   S101      1.0  0.58768  0.32775  0.09731  1.0000
  C   C438      1.0  0.52422  0.32074  0.28247  1.0000
  H   H794      1.0  0.54430  0.06249  0.42676  1.0000
  Fe  Fe50      1.0  0.68638  0.17062  0.46920  1.0000
  S   S102      1.0  0.74008  0.14345  0.46735  1.0000
  S   S103      1.0  0.67800  0.19582  0.43648  1.0000
  Fe  Fe51      1.0  0.69091  0.11732  0.48154  1.0000
  S   S104      1.0  0.68357  0.07793  0.47379  1.0000
  H   H795      1.0  0.55773  0.22133  0.42402  1.0000
  S   S105      1.0  0.63596  0.14359  0.48060  1.0000
  H   H796      1.0  0.60208  0.19923  0.01658  1.0000
  C   C439      1.0  0.68420  0.06474  0.44477  1.0000
  C   C440      1.0  0.68369  0.07821  0.42317  1.0000
  C   C441      1.0  0.68218  0.06683  0.40049  1.0000
  C   C442      1.0  0.68052  0.04198  0.39927  1.0000
  H   H797      1.0  0.71893  0.30734  0.32924  1.0000
  C   C443      1.0  0.68340  0.03988  0.44350  1.0000
  H   H798      1.0  0.68445  0.09735  0.42392  1.0000
  H   H799      1.0  0.68195  0.07734  0.38382  1.0000
  H   H800      1.0  0.60438  0.07888  0.50097  1.0000
  C   C444      1.0  0.52534  0.22378  0.02486  1.0000
  C   C445      1.0  0.52744  0.21205  0.41853  1.0000
  H   H801      1.0  0.54235  0.06680  0.38121  1.0000
  H   H802      1.0  0.75286  0.33544  0.35698  1.0000
  H   H803      1.0  0.87568  0.24050  0.50650  1.0000
  C   C446      1.0  0.60299  0.26628  0.43507  1.0000
  C   C447      1.0  0.60653  0.25297  0.45686  1.0000
  C   C448      1.0  0.63012  0.23160  0.45773  1.0000
  C   C449      1.0  0.65063  0.22342  0.43679  1.0000
  C   C450      1.0  0.64806  0.23708  0.41514  1.0000
  C   C451      1.0  0.62437  0.25844  0.41426  1.0000
  H   H804      1.0  0.59022  0.25896  0.47308  1.0000
  H   H805      1.0  0.63194  0.22129  0.47451  1.0000
  H   H806      1.0  0.66392  0.23087  0.39887  1.0000
  H   H807      1.0  0.62203  0.26858  0.39741  1.0000
  S   S106      1.0  0.52665  0.30695  0.31175  1.0000
  H   H808      1.0  0.68024  0.32949  0.33809  1.0000
  H   H809      1.0  0.54790  0.04055  0.36313  1.0000
  C   C452      1.0  0.53187  0.19683  0.02152  1.0000
  H   H810      1.0  0.52723  0.26189  0.40124  1.0000
  H   H811      1.0  0.68434  0.02935  0.46014  1.0000
  H   H812      1.0  0.68020  0.31893  0.39187  1.0000
  H   H813      1.0  0.56262  0.03519  0.48810  1.0000
  Fe  Fe52      1.0  0.53284  0.32628  0.34782  1.0000
  C   C453      1.0  0.52859  0.34527  0.27927  1.0000
  H   H814      1.0  0.55733  0.05259  0.01303  1.0000
  H   H815      1.0  0.60638  0.04375  0.46907  1.0000
  H   H816      1.0  0.53551  0.18794  0.03958  1.0000
  H   H817      1.0  0.78124  0.31184  0.40676  1.0000
  H   H818      1.0  0.57114  0.23297  0.38112  1.0000
  H   H819      1.0  0.56975  0.24894  0.33919  1.0000
  C   C454      1.0  0.51662  0.19369  0.43898  1.0000
  H   H820      1.0  0.66635  0.31770  0.07215  1.0000
  C   C455      1.0  0.79808  0.33254  0.08456  1.0000
  C   C456      1.0  0.57032  0.04410  0.47041  1.0000
  C   C457      1.0  0.72881  0.29675  0.42843  1.0000
  H   H821      1.0  0.70529  0.29090  0.41446  1.0000
  H   H822      1.0  0.56061  0.08434  0.01701  1.0000
  C   C458      1.0  0.75749  0.27539  0.43465  1.0000
  H   H823      1.0  0.52575  0.02693  0.08475  1.0000
  H   H824      1.0  0.71122  0.30124  0.44536  1.0000
  C   C459      1.0  0.75630  0.31827  0.41970  1.0000
  H   H825      1.0  0.65556  0.32110  0.43231  1.0000
  H   H826      1.0  0.55917  0.09894  0.49903  1.0000
  H   H827      1.0  0.51607  0.26074  0.34353  1.0000
  H   H828      1.0  0.77509  0.26939  0.41821  1.0000
  H   H829      1.0  0.65328  0.34596  0.46996  1.0000
  N   N28       1.0  0.73200  0.33911  0.40873  1.0000
  H   H830      1.0  0.57396  0.08151  0.45892  1.0000
  H   H831      1.0  0.51830  0.07647  0.23834  1.0000
  C   C460      1.0  0.69994  0.31422  0.34477  1.0000
  Fe  Fe53      1.0  0.52344  0.33404  0.11710  1.0000
  C   C461      1.0  0.65658  0.34060  0.43070  1.0000
  H   H832      1.0  0.70566  0.33778  0.03810  1.0000
  S   S107      1.0  0.70344  0.18135  0.50739  1.0000
  H   H833      1.0  0.00525  0.27833  0.50451  1.0000
  C   C462      1.0  0.65290  0.33358  0.06382  1.0000
  H   H834      1.0  0.73686  0.26049  0.44137  1.0000
  H   H835      1.0  0.55983  0.16621  0.42530  1.0000
  C   C463      1.0  0.70533  0.33215  0.38685  1.0000
  H   H836      1.0  0.52013  0.06450  0.15112  1.0000
  H   H837      1.0  0.52476  0.02242  0.14030  1.0000
  H   H838      1.0  0.53569  0.05612  0.05114  1.0000
  H   H839      1.0  0.75001  0.30617  0.37077  1.0000
  C   C464      1.0  0.56884  0.08004  0.49787  1.0000
  H   H840      1.0  0.82870  0.34049  0.07749  1.0000
  H   H841      1.0  0.78911  0.31750  0.07273  1.0000
  H   H842      1.0  0.73166  0.34195  0.09063  1.0000
  H   H843      1.0  0.51754  0.30363  0.02935  1.0000
  H   H844      1.0  0.77508  0.32384  0.43595  1.0000
  H   H845      1.0  0.67792  0.29992  0.35143  1.0000
  H   H846      1.0  0.78126  0.27983  0.44914  1.0000
  Fe  Fe54      1.0  0.75372  0.15243  0.50658  1.0000
  C   C465      1.0  0.54482  0.03356  0.40213  1.0000
  H   H847      1.0  0.56149  0.27234  0.36059  1.0000
  C   C466      1.0  0.55354  0.17587  0.44242  1.0000
  H   H848      1.0  0.54629  0.26657  0.04824  1.0000
  H   H849      1.0  0.59530  0.04806  0.42499  1.0000
  H   H850      1.0  0.52620  0.22137  0.36446  1.0000
  S   S108      1.0  0.67754  0.02834  0.37053  1.0000
  H   H851      1.0  0.57220  0.03167  0.15688  1.0000
  C   C467      1.0  0.53674  0.02838  0.15831  1.0000
  C   C468      1.0  0.68126  0.02854  0.42088  1.0000
  H   H852      1.0  0.58376  0.18504  0.44808  1.0000
  H   H853      1.0  0.52883  0.05703  0.18288  1.0000
  C   C469      1.0  0.55972  0.04469  0.42637  1.0000
  H   H854      1.0  0.80353  0.32563  0.10339  1.0000
  H   H855      1.0  0.55235  0.22961  0.03684  1.0000
  C   C470      1.0  0.51690  0.34158  0.23525  1.0000
  C   C471      1.0  0.55677  0.07045  0.47282  1.0000
  H   H856      1.0  0.53670  0.20178  0.40231  1.0000
  C   C472      1.0  0.55804  0.04913  0.38032  1.0000
  H   H857      1.0  0.68683  0.34782  0.37990  1.0000
  C   C473      1.0  0.61318  0.34248  0.07232  1.0000
  S   S109      1.0  0.51522  0.30933  0.14957  1.0000
  H   H858      1.0  0.60149  0.34317  0.45501  1.0000
  C   C474      1.0  0.51674  0.30669  0.26191  1.0000
  H   H859      1.0  0.54488  0.16276  0.45692  1.0000
  C   C475      1.0  0.67549  0.34505  0.04468  1.0000
  H   H860      1.0  0.52978  0.30726  0.06113  1.0000
  C   C476      1.0  0.54696  0.25604  0.35292  1.0000
  C   C477      1.0  0.53907  0.23750  0.37303  1.0000
  H   H861      1.0  0.59377  0.05154  0.37983  1.0000
  H   H862      1.0  0.63640  0.34568  0.41470  1.0000
  H   H863      1.0  0.55218  0.06983  0.51254  1.0000
  H   H864      1.0  0.51552  0.25010  0.44342  1.0000
  H   H865      1.0  0.52129  0.07275  0.47030  1.0000
  H   H866      1.0  0.55950  0.01584  0.39954  1.0000
  Fe  Fe55      1.0  0.60141  0.05762  0.84180  1.0000
  S   S110      1.0  0.58999  0.09275  0.85897  1.0000
  S   S111      1.0  0.59712  0.04840  0.80142  1.0000
  H   H867      1.0  0.69107  0.08084  0.72133  1.0000
  S   S112      1.0  0.61726  0.06817  0.91219  1.0000
  Fe  Fe56      1.0  0.55704  0.07286  0.88949  1.0000
  Fe  Fe57      1.0  0.65190  0.08565  0.88008  1.0000
  S   S113      1.0  0.69464  0.11889  0.87825  1.0000
  S   S114      1.0  0.56385  0.03823  0.87060  1.0000
  S   S115      1.0  0.66511  0.05116  0.86109  1.0000
  Fe  Fe58      1.0  0.99258  0.18488  0.62632  1.0000
  H   H868      1.0  0.84385  0.10816  0.97091  1.0000
  S   S116      1.0  0.92152  0.18735  0.61444  1.0000
  C   C478      1.0  0.82496  0.21159  0.92190  1.0000
  Fe  Fe59      1.0  0.93378  0.16923  0.89035  1.0000
  S   S117      1.0  0.91665  0.19222  0.85816  1.0000
  S   S118      1.0  0.89251  0.13921  0.90618  1.0000
  N   N29       1.0  0.98725  0.25430  0.54940  1.0000
  H   H869      1.0  0.72347  0.19955  0.58334  1.0000
  Fe  Fe60      1.0  0.94262  0.22233  0.88051  1.0000
  S   S119      1.0  0.90664  0.25760  0.88110  1.0000
  Fe  Fe61      1.0  0.98579  0.18684  0.84621  1.0000
  H   H870      1.0  0.98858  0.12962  0.92358  1.0000
  S   S120      1.0  0.95508  0.19964  0.91360  1.0000
  H   H871      1.0  0.63598  0.08473  0.71074  1.0000
  S   S121      1.0  0.86918  0.31917  0.97532  1.0000
  C   C479      1.0  0.79811  0.12614  0.66740  1.0000
  C   C480      1.0  0.74373  0.15375  0.59856  1.0000
  S   S122      1.0  0.60837  0.15784  0.54918  1.0000
  Fe  Fe62      1.0  0.62614  0.03415  0.89157  1.0000
  H   H872      1.0  0.75988  0.23953  0.94814  1.0000
  C   C481      1.0  0.89474  0.27427  0.90743  1.0000
  C   C482      1.0  0.90246  0.26525  0.93091  1.0000
  C   C483      1.0  0.89379  0.27922  0.95137  1.0000
  C   C484      1.0  0.87742  0.30236  0.94867  1.0000
  C   C485      1.0  0.86894  0.31127  0.92521  1.0000
  C   C486      1.0  0.87751  0.29723  0.90470  1.0000
  H   H873      1.0  0.91551  0.24761  0.93329  1.0000
  H   H874      1.0  0.90005  0.27218  0.96949  1.0000
  S   S123      1.0  0.00180  0.16182  0.87758  1.0000
  H   H875      1.0  0.87130  0.30437  0.88660  1.0000
  C   C487      1.0  0.89714  0.17941  0.58640  1.0000
  C   C488      1.0  0.85492  0.18750  0.58114  1.0000
  C   C489      1.0  0.83313  0.18057  0.55979  1.0000
  C   C490      1.0  0.85291  0.16490  0.54374  1.0000
  C   C491      1.0  0.89570  0.15744  0.54861  1.0000
  C   C492      1.0  0.91780  0.16469  0.56978  1.0000
  H   H876      1.0  0.83895  0.19922  0.59370  1.0000
  H   H877      1.0  0.80116  0.18740  0.55573  1.0000
  H   H878      1.0  0.91150  0.14553  0.53618  1.0000
  H   H879      1.0  0.95032  0.15837  0.57356  1.0000
  C   C493      1.0  0.97955  0.25166  0.57650  1.0000
  C   C494      1.0  0.86772  0.12289  0.97182  1.0000
  H   H880      1.0  0.98639  0.17537  0.98486  1.0000
  H   H881      1.0  0.57758  0.17238  0.00555  1.0000
  H   H882      1.0  0.65915  0.13314  0.60110  1.0000
  H   H883      1.0  0.65828  0.08580  0.62948  1.0000
  C   C495      1.0  0.75021  0.12344  0.88553  1.0000
  C   C496      1.0  0.77085  0.14407  0.87664  1.0000
  C   C497      1.0  0.81465  0.14880  0.88229  1.0000
  C   C498      1.0  0.83806  0.13322  0.89739  1.0000
  C   C499      1.0  0.81744  0.11259  0.90631  1.0000
  C   C500      1.0  0.77386  0.10758  0.90022  1.0000
  H   H884      1.0  0.75293  0.15636  0.86513  1.0000
  H   H885      1.0  0.83034  0.16446  0.87498  1.0000
  H   H886      1.0  0.83527  0.10038  0.91796  1.0000
  H   H887      1.0  0.75838  0.09166  0.90721  1.0000
  H   H888      1.0  0.98502  0.29278  0.54802  1.0000
  C   C501      1.0  0.53334  0.07878  0.78315  1.0000
  C   C502      1.0  0.58933  0.11019  0.55468  1.0000
  C   C503      1.0  0.58127  0.13324  0.56243  1.0000
  H   H889      1.0  0.70553  0.22375  0.88651  1.0000
  C   C504      1.0  0.56124  0.05982  0.77873  1.0000
  C   C505      1.0  0.57600  0.14472  0.81754  1.0000
  H   H890      1.0  0.61277  0.10720  0.54041  1.0000
  H   H891      1.0  0.97500  0.26741  0.62490  1.0000
  H   H892      1.0  0.58253  0.03490  0.75188  1.0000
  C   C506      1.0  0.79169  0.23468  0.88877  1.0000
  H   H893      1.0  0.69446  0.14912  0.56958  1.0000
  H   H894      1.0  0.01332  0.32032  0.51625  1.0000
  C   C507      1.0  0.91284  0.11373  0.96523  1.0000
  H   H895      1.0  0.81970  0.24709  0.88863  1.0000
  H   H896      1.0  0.88012  0.17826  0.94270  1.0000
  H   H897      1.0  0.79668  0.10520  0.62270  1.0000
  C   C508      1.0  0.56699  0.09096  0.56544  1.0000
  S   S124      1.0  0.82543  0.15340  0.51797  1.0000
  H   H898      1.0  0.91002  0.10627  0.94673  1.0000
  C   C509      1.0  0.94908  0.27027  0.58796  1.0000
  H   H899      1.0  0.81487  0.13513  0.62054  1.0000
  H   H900      1.0  0.92544  0.26981  0.53914  1.0000
  H   H901      1.0  0.86751  0.13003  0.99056  1.0000
  C   C510      1.0  0.94342  0.26556  0.61528  1.0000
  C   C511      1.0  0.94538  0.25395  0.53502  1.0000
  H   H902      1.0  0.96557  0.23407  0.58131  1.0000
  H   H903      1.0  0.64778  0.06262  0.73384  1.0000
  H   H904      1.0  0.83087  0.24092  0.84342  1.0000
  N   N30       1.0  0.75685  0.12799  0.59967  1.0000
  H   H905      1.0  0.79515  0.07621  0.82962  1.0000
  H   H906      1.0  0.91062  0.22695  0.55744  1.0000
  H   H907      1.0  0.70843  0.10749  0.58033  1.0000
  H   H908      1.0  0.72723  0.27899  0.95595  1.0000
  H   H909      1.0  0.91635  0.26963  0.57951  1.0000
  H   H910      1.0  0.76635  0.12662  0.56060  1.0000
  C   C512      1.0  0.76417  0.12799  0.64706  1.0000
  H   H911      1.0  0.73932  0.11417  0.65083  1.0000
  H   H912      1.0  0.98063  0.20372  0.55393  1.0000
  C   C513      1.0  0.75848  0.26877  0.92198  1.0000
  C   C514      1.0  0.57892  0.07242  0.98180  1.0000
  H   H913      1.0  0.93024  0.24746  0.61872  1.0000
  C   C515      1.0  0.01200  0.18540  0.73536  1.0000
  H   H914      1.0  0.92039  0.27861  0.62290  1.0000
  H   H915      1.0  0.52039  0.03195  0.94949  1.0000
  H   H916      1.0  0.98640  0.15765  0.75875  1.0000
  H   H917      1.0  0.01125  0.25227  0.58639  1.0000
  N   N31       1.0  0.67604  0.11226  0.78914  1.0000
  C   C516      1.0  0.69550  0.10151  0.81204  1.0000
  C   C517      1.0  0.63005  0.11983  0.79446  1.0000
  C   C518      1.0  0.67386  0.09297  0.77033  1.0000
  C   C519      1.0  0.70244  0.13276  0.77893  1.0000
  C   C520      1.0  0.72878  0.14772  0.79746  1.0000
  C   C521      1.0  0.73959  0.08866  0.80859  1.0000
  H   H918      1.0  0.81374  0.10840  0.66757  1.0000
  C   C522      1.0  0.62415  0.13938  0.81362  1.0000
  C   C523      1.0  0.80375  0.22789  0.84366  1.0000
  C   C524      1.0  0.74762  0.16999  0.78531  1.0000
  C   C525      1.0  0.76543  0.08694  0.83237  1.0000
  H   H919      1.0  0.67270  0.08826  0.82023  1.0000
  H   H920      1.0  0.69949  0.11494  0.82636  1.0000
  H   H921      1.0  0.61402  0.12696  0.77773  1.0000
  H   H922      1.0  0.61052  0.10413  0.80044  1.0000
  H   H923      1.0  0.65902  0.07664  0.77833  1.0000
  H   H924      1.0  0.70711  0.08766  0.76473  1.0000
  H   H925      1.0  0.72674  0.12644  0.76550  1.0000
  H   H926      1.0  0.68108  0.14503  0.76824  1.0000
  H   H927      1.0  0.75649  0.13732  0.80490  1.0000
  H   H928      1.0  0.70903  0.15329  0.81317  1.0000
  H   H929      1.0  0.73350  0.07035  0.80218  1.0000
  H   H930      1.0  0.76011  0.09781  0.79477  1.0000
  H   H931      1.0  0.85732  0.13695  0.95867  1.0000
  H   H932      1.0  0.72792  0.09381  0.60748  1.0000
  H   H933      1.0  0.63828  0.13410  0.83150  1.0000
  H   H934      1.0  0.63927  0.15614  0.80712  1.0000
  H   H935      1.0  0.83097  0.20678  0.87228  1.0000
  H   H936      1.0  0.76376  0.24552  0.88241  1.0000
  H   H937      1.0  0.57248  0.15817  0.83196  1.0000
  H   H938      1.0  0.76929  0.16522  0.77000  1.0000
  H   H939      1.0  0.72120  0.18168  0.77836  1.0000
  H   H940      1.0  0.76700  0.17999  0.79883  1.0000
  H   H941      1.0  0.57431  0.09002  0.97279  1.0000
  C   C526      1.0  0.65647  0.08064  0.72697  1.0000
  C   C527      1.0  0.99810  0.11619  0.93775  1.0000
  H   H942      1.0  0.81065  0.21423  0.82983  1.0000
  C   C528      1.0  0.86981  0.19204  0.95568  1.0000
  H   H943      1.0  0.68251  0.12751  0.63032  1.0000
  H   H944      1.0  0.74578  0.07842  0.84701  1.0000
  H   H945      1.0  0.77542  0.10486  0.83830  1.0000
  H   H946      1.0  0.00731  0.11801  0.70160  1.0000
  H   H947      1.0  0.73733  0.30310  0.93478  1.0000
  H   H948      1.0  0.93150  0.21648  0.52872  1.0000
  H   H949      1.0  0.53171  0.04928  0.71952  1.0000
  H   H950      1.0  0.80087  0.09689  0.53578  1.0000
  H   H951      1.0  0.78171  0.29051  0.95195  1.0000
  H   H952      1.0  0.54323  0.11111  0.93124  1.0000
  H   H953      1.0  0.74923  0.14577  0.64825  1.0000
  H   H954      1.0  0.53333  0.08697  0.80085  1.0000
  C   C529      1.0  0.00821  0.18723  0.77994  1.0000
  H   H955      1.0  0.74275  0.16347  0.55953  1.0000
  H   H956      1.0  0.82349  0.13999  0.66493  1.0000
  H   H957      1.0  0.81666  0.21542  0.96196  1.0000
  H   H958      1.0  0.68345  0.19205  0.56072  1.0000
  H   H959      1.0  0.95963  0.24406  0.97360  1.0000
  H   H960      1.0  0.77291  0.16530  0.60045  1.0000
  C   C530      1.0  0.00857  0.27819  0.54499  1.0000
  H   H961      1.0  0.77305  0.23704  0.83860  1.0000
  H   H962      1.0  0.61285  0.09891  0.75023  1.0000
  C   C531      1.0  0.56075  0.04943  0.75557  1.0000
  C   C532      1.0  0.64834  0.09902  0.74660  1.0000
  H   H963      1.0  0.55813  0.12852  0.82337  1.0000
  H   H964      1.0  0.67851  0.18285  0.89480  1.0000
  H   H965      1.0  0.78086  0.27754  0.90876  1.0000
  H   H966      1.0  0.81271  0.13589  0.57713  1.0000
  H   H967      1.0  0.00536  0.17608  0.71871  1.0000
  C   C533      1.0  0.94723  0.13393  0.96603  1.0000
  C   C534      1.0  0.71979  0.16193  0.57497  1.0000
  H   H968      1.0  0.69096  0.23212  0.91714  1.0000
  H   H969      1.0  0.85427  0.22291  0.91917  1.0000
  H   H970      1.0  0.57088  0.19963  0.98848  1.0000
  H   H971      1.0  0.86839  0.18392  0.97423  1.0000
  C   C535      1.0  0.69876  0.18619  0.57813  1.0000
  H   H972      1.0  0.65767  0.11670  0.73916  1.0000
  H   H973      1.0  0.96488  0.33461  0.96929  1.0000
  H   H974      1.0  0.00840  0.34418  0.94963  1.0000
  H   H975      1.0  0.80167  0.18687  0.95041  1.0000
  H   H976      1.0  0.66344  0.19130  0.92532  1.0000
  C   C536      1.0  0.64472  0.09892  0.61623  1.0000
  H   H977      1.0  0.78231  0.12877  0.68533  1.0000
  H   H978      1.0  0.99045  0.26399  0.93747  1.0000
  H   H979      1.0  0.75465  0.19147  0.90612  1.0000
  C   C537      1.0  0.53648  0.09461  0.58400  1.0000
  H   H980      1.0  0.93813  0.14755  0.95198  1.0000
  C   C538      1.0  0.78485  0.12334  0.57767  1.0000
  H   H981      1.0  0.67298  0.18521  0.59224  1.0000
  H   H982      1.0  0.94261  0.14249  0.98394  1.0000
  C   C539      1.0  0.70291  0.21751  0.90570  1.0000
  C   C540      1.0  0.55103  0.13688  0.58112  1.0000
  H   H983      1.0  0.63722  0.20494  0.89927  1.0000
  N   N32       1.0  0.99412  0.12666  0.96283  1.0000
  C   C541      1.0  0.55043  0.07016  0.00452  1.0000
  N   N33       1.0  0.78467  0.22516  0.91433  1.0000
  C   C542      1.0  0.77903  0.24542  0.93195  1.0000
  S   S125      1.0  0.01069  0.21894  0.86591  1.0000
  H   H984      1.0  0.97533  0.10116  0.93549  1.0000
  C   C543      1.0  0.80394  0.09801  0.57557  1.0000
  H   H985      1.0  0.95205  0.25551  0.51518  1.0000
  S   S126      1.0  0.99732  0.17234  0.80806  1.0000
  H   H986      1.0  0.72268  0.15832  0.61412  1.0000
  C   C544      1.0  0.66855  0.19791  0.90636  1.0000
  C   C545      1.0  0.75074  0.28631  0.94249  1.0000
  S   S127      1.0  0.70814  0.12423  0.52068  1.0000
  H   H987      1.0  0.56103  0.15180  0.80047  1.0000
  H   H988      1.0  0.77840  0.08428  0.57780  1.0000
  C   C546      1.0  0.00199  0.30584  0.95395  1.0000
  C   C547      1.0  0.01038  0.29102  0.89558  1.0000
  C   C548      1.0  0.71840  0.11130  0.59946  1.0000
  C   C549      1.0  0.67624  0.11956  0.61238  1.0000
  H   H989      1.0  0.96243  0.28844  0.58581  1.0000
  H   H990      1.0  0.82962  0.09492  0.58948  1.0000
  C   C550      1.0  0.78511  0.12383  0.62188  1.0000
  H   H991      1.0  0.72711  0.26561  0.91271  1.0000
  H   H992      1.0  0.83895  0.07650  0.54963  1.0000
  H   H993      1.0  0.61343  0.10559  0.62346  1.0000
  C   C551      1.0  0.82512  0.09461  0.55068  1.0000
  C   C552      1.0  0.87200  0.23558  0.52607  1.0000
  C   C553      1.0  0.79997  0.21609  0.86883  1.0000
  C   C554      1.0  0.52863  0.11764  0.59188  1.0000
  Fe  Fe63      1.0  0.65679  0.15223  0.51872  1.0000
  H   H994      1.0  0.77330  0.20290  0.86808  1.0000
  H   H995      1.0  0.74068  0.20267  0.93490  1.0000
  H   H996      1.0  0.52503  0.13851  0.96484  1.0000
  H   H997      1.0  0.85618  0.32902  0.92286  1.0000
  C   C555      1.0  0.98927  0.23292  0.97373  1.0000
  H   H998      1.0  0.89412  0.20659  0.95583  1.0000
  H   H999      1.0  0.92111  0.09915  0.97820  1.0000
  H   H1000     1.0  0.81115  0.25109  0.93932  1.0000
  C   C556      1.0  0.82521  0.20171  0.94855  1.0000
  H   H1001     1.0  0.82993  0.19588  0.91024  1.0000
  H   H1002     1.0  0.99409  0.22571  0.99249  1.0000
  C   C557      1.0  0.53188  0.05745  0.73722  1.0000
  H   H1003     1.0  0.63809  0.08999  0.59872  1.0000
  C   C558      1.0  0.74680  0.20821  0.91567  1.0000
  H   H1004     1.0  0.57345  0.07317  0.55938  1.0000
  C   C559      1.0  0.99893  0.33094  0.96384  1.0000
  C   C560      1.0  0.01429  0.21039  0.55309  1.0000
  H   H1005     1.0  0.57106  0.05838  0.96855  1.0000
  H   H1006     1.0  0.85177  0.10765  0.54784  1.0000
  H   H1007     1.0  0.98734  0.11204  0.99948  1.0000
  H   H1008     1.0  0.61365  0.07066  0.98700  1.0000
  C   C561      1.0  0.00993  0.29145  0.86772  1.0000
  H   H1009     1.0  0.98283  0.27995  0.90163  1.0000
  H   H1010     1.0  0.85382  0.24970  0.53553  1.0000
  C   C562      1.0  0.91637  0.23168  0.53804  1.0000
  H   H1011     1.0  0.99013  0.29357  0.96847  1.0000
  H   H1012     1.0  0.97835  0.29860  0.86110  1.0000
  H   H1013     1.0  0.53155  0.23288  0.00706  1.0000
  C   C563      1.0  0.00086  0.17512  0.75809  1.0000
  H   H1014     1.0  0.00540  0.30951  0.90153  1.0000
  C   C564      1.0  0.57323  0.19183  0.00716  1.0000
  H   H1015     1.0  0.99621  0.09065  0.97682  1.0000
  H   H1016     1.0  0.54475  0.15468  0.58724  1.0000
  H   H1017     1.0  0.98480  0.21786  0.96121  1.0000
  H   H1018     1.0  0.01099  0.15267  0.00350  1.0000
  H   H1019     1.0  0.85272  0.21897  0.52723  1.0000
  C   C565      1.0  0.00609  0.10875  0.98252  1.0000
  H   H1020     1.0  0.97907  0.30460  0.93848  1.0000
  H   H1021     1.0  0.01422  0.16072  0.94776  1.0000
  H   H1022     1.0  0.01356  0.27326  0.86058  1.0000
  H   H1023     1.0  0.67162  0.41886  0.07472  1.0000
  H   H1024     1.0  0.74451  0.44451  0.04663  1.0000
  S   S128      1.0  0.86978  0.39930  0.06429  1.0000
  Fe  Fe64      1.0  0.85363  0.66833  0.47706  1.0000
  H   H1025     1.0  0.80041  0.43061  0.09674  1.0000
  Fe  Fe65      1.0  0.76402  0.66017  0.50026  1.0000
  S   S129      1.0  0.78723  0.66169  0.46122  1.0000
  Fe  Fe66      1.0  0.80359  0.62278  0.46628  1.0000
  S   S130      1.0  0.78096  0.59190  0.44307  1.0000
  S   S131      1.0  0.87193  0.62947  0.47914  1.0000
  H   H1026     1.0  0.97487  0.49690  0.13139  1.0000
  Fe  Fe67      1.0  0.91960  0.44601  0.38975  1.0000
  S   S132      1.0  0.95792  0.47407  0.37032  1.0000
  C   C566      1.0  0.97621  0.51349  0.03977  1.0000
  Fe  Fe68      1.0  0.85259  0.44375  0.34923  1.0000
  S   S133      1.0  0.88505  0.47291  0.32713  1.0000
  S   S134      1.0  0.79863  0.42163  0.33264  1.0000
  Fe  Fe69      1.0  0.94696  0.45369  0.33604  1.0000
  C   C567      1.0  0.97900  0.41611  0.43405  1.0000
  Fe  Fe70      1.0  0.89320  0.49122  0.36330  1.0000
  S   S135      1.0  0.89610  0.53076  0.37092  1.0000
  S   S136      1.0  0.91444  0.42364  0.35648  1.0000
  S   S137      1.0  0.85509  0.46387  0.38434  1.0000
  S   S138      1.0  0.62624  0.39168  0.38900  1.0000
  S   S139      1.0  0.00348  0.44485  0.31082  1.0000
  C   C568      1.0  0.75114  0.41321  0.34868  1.0000
  C   C569      1.0  0.72276  0.39658  0.33835  1.0000
  C   C570      1.0  0.68430  0.38975  0.35042  1.0000
  C   C571      1.0  0.67391  0.39958  0.37290  1.0000
  C   C572      1.0  0.70245  0.41609  0.38327  1.0000
  C   C573      1.0  0.74091  0.42288  0.37125  1.0000
  H   H1027     1.0  0.73037  0.38906  0.32088  1.0000
  C   C574      1.0  0.82531  0.38676  0.40914  1.0000
  H   H1028     1.0  0.69456  0.42381  0.40063  1.0000
  H   H1029     1.0  0.76232  0.43581  0.37929  1.0000
  H   H1030     1.0  0.96783  0.39325  0.30530  1.0000
  H   H1031     1.0  0.81087  0.39983  0.39614  1.0000
  S   S140      1.0  0.53692  0.35258  0.41230  1.0000
  H   H1032     1.0  0.82686  0.40821  0.11526  1.0000
  H   H1033     1.0  0.83340  0.52555  0.50406  1.0000
  H   H1034     1.0  0.66247  0.37710  0.34223  1.0000
  C   C575      1.0  0.97972  0.46821  0.24105  1.0000
  C   C576      1.0  0.81426  0.57468  0.42389  1.0000
  C   C577      1.0  0.79778  0.55336  0.41463  1.0000
  C   C578      1.0  0.82290  0.53931  0.39900  1.0000
  C   C579      1.0  0.86449  0.54673  0.39208  1.0000
  C   C580      1.0  0.88113  0.56791  0.40156  1.0000
  C   C581      1.0  0.85637  0.58170  0.41760  1.0000
  H   H1035     1.0  0.76521  0.54781  0.41936  1.0000
  H   H1036     1.0  0.80958  0.52316  0.39167  1.0000
  H   H1037     1.0  0.91318  0.57385  0.39622  1.0000
  H   H1038     1.0  0.86940  0.59808  0.42454  1.0000
  C   C582      1.0  0.92505  0.40607  0.06882  1.0000
  C   C583      1.0  0.95576  0.40228  0.05058  1.0000
  H   H1039     1.0  0.84187  0.57611  0.48257  1.0000
  H   H1040     1.0  0.84811  0.47293  0.24027  1.0000
  H   H1041     1.0  0.76787  0.42797  0.27937  1.0000
  C   C584      1.0  0.93842  0.41554  0.09114  1.0000
  H   H1042     1.0  0.94578  0.39493  0.03338  1.0000
  C   C585      1.0  0.71105  0.43741  0.04872  1.0000
  H   H1043     1.0  0.73194  0.42390  0.12236  1.0000
  H   H1044     1.0  0.91639  0.45421  0.19762  1.0000
  C   C586      1.0  0.79016  0.37074  0.42023  1.0000
  C   C587      1.0  0.86285  0.43197  0.21036  1.0000
  H   H1045     1.0  0.63196  0.37029  0.45145  1.0000
  C   C588      1.0  0.61849  0.37431  0.04197  1.0000
  H   H1046     1.0  0.84991  0.37610  0.39942  1.0000
  H   H1047     1.0  0.69799  0.36972  0.42245  1.0000
  H   H1048     1.0  0.80021  0.53778  0.47978  1.0000
  N   N34       1.0  0.73997  0.39202  0.10101  1.0000
  C   C589      1.0  0.97847  0.50842  0.42500  1.0000
  C   C590      1.0  0.88652  0.45752  0.02497  1.0000
  C   C591      1.0  0.72924  0.40397  0.25869  1.0000
  H   H1049     1.0  0.93848  0.57308  0.48130  1.0000
  H   H1050     1.0  0.68784  0.45240  0.04721  1.0000
  H   H1051     1.0  0.93614  0.37300  0.28746  1.0000
  H   H1052     1.0  0.95831  0.39300  0.40546  1.0000
  H   H1053     1.0  0.61160  0.61913  0.48625  1.0000
  H   H1054     1.0  0.71222  0.43834  0.08751  1.0000
  C   C592      1.0  0.97639  0.46461  0.26649  1.0000
  C   C593      1.0  0.80016  0.42139  0.11474  1.0000
  H   H1055     1.0  0.80617  0.50371  0.26130  1.0000
  H   H1056     1.0  0.85418  0.49551  0.27820  1.0000
  C   C594      1.0  0.52499  0.35559  0.25577  1.0000
  H   H1057     1.0  0.89331  0.46973  0.06160  1.0000
  H   H1058     1.0  0.78622  0.45425  0.13362  1.0000
  H   H1059     1.0  0.70220  0.36520  0.12052  1.0000
  H   H1060     1.0  0.56520  0.36982  0.06738  1.0000
  H   H1061     1.0  0.83149  0.44446  0.28782  1.0000
  H   H1062     1.0  0.81148  0.39717  0.23993  1.0000
  C   C595      1.0  0.73657  0.40332  0.07594  1.0000
  H   H1063     1.0  0.85060  0.45900  0.02574  1.0000
  H   H1064     1.0  0.74923  0.37089  0.38822  1.0000
  H   H1065     1.0  0.53442  0.35629  0.29490  1.0000
  H   H1066     1.0  0.84208  0.39666  0.42378  1.0000
  H   H1067     1.0  0.96691  0.47776  0.09139  1.0000
  C   C596      1.0  0.70586  0.42492  0.07345  1.0000
  C   C597      1.0  0.95734  0.47129  0.04422  1.0000
  H   H1068     1.0  0.92208  0.42322  0.19051  1.0000
  C   C598      1.0  0.82717  0.46747  0.25578  1.0000
  H   H1069     1.0  0.78267  0.39716  0.28260  1.0000
  C   C599      1.0  0.66520  0.39683  0.12321  1.0000
  C   C600      1.0  0.93452  0.38906  0.29886  1.0000
  H   H1070     1.0  0.89943  0.40818  0.23279  1.0000
  H   H1071     1.0  0.76926  0.40834  0.06895  1.0000
  N   N35       1.0  0.87238  0.50535  0.46368  1.0000
  C   C601      1.0  0.90224  0.50333  0.44202  1.0000
  C   C602      1.0  0.82812  0.49612  0.45664  1.0000
  C   C603      1.0  0.86765  0.53142  0.46902  1.0000
  C   C604      1.0  0.88962  0.49284  0.48633  1.0000
  C   C605      1.0  0.91716  0.47012  0.48263  1.0000
  C   C606      1.0  0.94644  0.51632  0.44438  1.0000
  H   H1072     1.0  0.84427  0.41666  0.20321  1.0000
  C   C607      1.0  0.82494  0.46942  0.45080  1.0000
  C   C608      1.0  0.78114  0.46346  0.43920  1.0000
  C   C609      1.0  0.75558  0.40939  0.11982  1.0000
  H   H1073     1.0  0.66002  0.41437  0.11443  1.0000
  H   H1074     1.0  0.88623  0.51053  0.42526  1.0000
  H   H1075     1.0  0.90877  0.48460  0.43769  1.0000
  H   H1076     1.0  0.80429  0.49879  0.47151  1.0000
  H   H1077     1.0  0.81550  0.50647  0.44064  1.0000
  H   H1078     1.0  0.85986  0.54159  0.45202  1.0000
  H   H1079     1.0  0.89900  0.53869  0.47554  1.0000
  S   S141      1.0  0.77501  0.62106  0.50402  1.0000
  H   H1080     1.0  0.60463  0.38331  0.10819  1.0000
  Fe  Fe71      1.0  0.57701  0.36303  0.37964  1.0000
  H   H1081     1.0  0.94180  0.53575  0.44189  1.0000
  C   C610      1.0  0.62086  0.38496  0.12616  1.0000
  H   H1082     1.0  0.80636  0.35838  0.43322  1.0000
  H   H1083     1.0  0.85044  0.46370  0.43805  1.0000
  H   H1084     1.0  0.82766  0.45875  0.46792  1.0000
  H   H1085     1.0  0.77693  0.47335  0.42167  1.0000
  H   H1086     1.0  0.77962  0.44421  0.43537  1.0000
  H   H1087     1.0  0.75408  0.46796  0.45164  1.0000
  H   H1088     1.0  0.94651  0.52312  0.04557  1.0000
  H   H1089     1.0  0.96592  0.51313  0.40655  1.0000
  H   H1090     1.0  0.80450  0.37924  0.09275  1.0000
  H   H1091     1.0  0.62418  0.36704  0.13466  1.0000
  H   H1092     1.0  0.78044  0.36549  0.11878  1.0000
  H   H1093     1.0  0.75786  0.40029  0.13797  1.0000
  C   C611      1.0  0.00697  0.45063  0.27892  1.0000
  C   C612      1.0  0.89858  0.43805  0.19199  1.0000
  C   C613      1.0  0.69693  0.38112  0.10858  1.0000
  H   H1094     1.0  0.67838  0.39969  0.14182  1.0000
  H   H1095     1.0  0.96117  0.51298  0.46253  1.0000
  H   H1096     1.0  0.91479  0.41852  0.10531  1.0000
  C   C614      1.0  0.90721  0.47417  0.04340  1.0000
  H   H1097     1.0  0.76787  0.38224  0.43063  1.0000
  H   H1098     1.0  0.73217  0.38699  0.24887  1.0000
  H   H1099     1.0  0.71673  0.41792  0.24601  1.0000
  H   H1100     1.0  0.90879  0.43825  0.23961  1.0000
  C   C615      1.0  0.99042  0.55491  0.50123  1.0000
  H   H1101     1.0  0.92994  0.49959  0.08018  1.0000
  H   H1102     1.0  0.93354  0.51796  0.12200  1.0000
  H   H1103     1.0  0.96992  0.50877  0.02043  1.0000
  H   H1104     1.0  0.96423  0.45437  0.05416  1.0000
  C   C616      1.0  0.65863  0.36562  0.03379  1.0000
  S   S142      1.0  0.93868  0.43749  0.42862  1.0000
  C   C617      1.0  0.96494  0.49482  0.08082  1.0000
  H   H1105     1.0  0.94769  0.47420  0.47276  1.0000
  H   H1106     1.0  0.86937  0.38738  0.26674  1.0000
  H   H1107     1.0  0.91744  0.42571  0.29611  1.0000
  H   H1108     1.0  0.67926  0.37446  0.09230  1.0000
  H   H1109     1.0  0.95048  0.47287  0.27653  1.0000
  H   H1110     1.0  0.98366  0.48897  0.42631  1.0000
  H   H1111     1.0  0.89555  0.43884  0.02899  1.0000
  H   H1112     1.0  0.93997  0.41343  0.26884  1.0000
  C   C618      1.0  0.76162  0.35088  0.08412  1.0000
  H   H1113     1.0  0.88148  0.45314  0.27511  1.0000
  C   C619      1.0  0.82197  0.48914  0.27187  1.0000
  H   H1114     1.0  0.86229  0.48806  0.49872  1.0000
  H   H1115     1.0  0.84060  0.44730  0.21111  1.0000
  H   H1116     1.0  0.91059  0.50495  0.49708  1.0000
  H   H1117     1.0  0.95820  0.58867  0.50735  1.0000
  H   H1118     1.0  0.88419  0.44156  0.17372  1.0000
  C   C620      1.0  0.81067  0.43979  0.13403  1.0000
  H   H1119     1.0  0.52795  0.37460  0.25354  1.0000
  H   H1120     1.0  0.84311  0.44765  0.13026  1.0000
  H   H1121     1.0  0.81137  0.43141  0.15249  1.0000
  H   H1122     1.0  0.96810  0.46848  0.02516  1.0000
  C   C621      1.0  0.84052  0.56302  0.49787  1.0000
  H   H1123     1.0  0.72429  0.39036  0.06253  1.0000
  H   H1124     1.0  0.85001  0.40409  0.29173  1.0000
  C   C622      1.0  0.83304  0.53805  0.48826  1.0000
  H   H1125     1.0  0.79444  0.46268  0.24903  1.0000
  H   H1126     1.0  0.59981  0.39582  0.13800  1.0000
  H   H1127     1.0  0.89938  0.45670  0.47211  1.0000
  N   N36       1.0  0.85165  0.42344  0.25716  1.0000
  C   C623      1.0  0.80770  0.41454  0.24908  1.0000
  C   C624      1.0  0.88243  0.42536  0.23568  1.0000
  C   C625      1.0  0.87009  0.40533  0.27494  1.0000
  C   C626      1.0  0.84859  0.44675  0.27010  1.0000
  C   C627      1.0  0.96806  0.57750  0.49185  1.0000
  C   C628      1.0  0.77305  0.41128  0.26938  1.0000
  C   C629      1.0  0.91703  0.41011  0.28406  1.0000
  H   H1128     1.0  0.98996  0.58791  0.47968  1.0000
  H   H1129     1.0  0.60490  0.39006  0.03345  1.0000
  H   H1130     1.0  0.79305  0.42653  0.23515  1.0000
  C   C630      1.0  0.59586  0.36284  0.06116  1.0000
  H   H1131     1.0  0.70536  0.40150  0.27368  1.0000
  H   H1132     1.0  0.80141  0.48484  0.28797  1.0000
  H   H1133     1.0  0.91363  0.38544  0.31498  1.0000
  H   H1134     1.0  0.95587  0.47905  0.23163  1.0000
  H   H1135     1.0  0.99615  0.54359  0.48525  1.0000
  H   H1136     1.0  0.70412  0.42502  0.03369  1.0000
  H   H1137     1.0  0.55805  0.64371  0.50700  1.0000
  H   H1138     1.0  0.97990  0.37682  0.34656  1.0000
  N   N37       1.0  0.98252  0.49141  0.05544  1.0000
  C   C631      1.0  0.77330  0.37242  0.10005  1.0000
  S   S143      1.0  0.80780  0.35617  0.01966  1.0000
  C   C632      1.0  0.98172  0.39585  0.41986  1.0000
  H   H1139     1.0  0.99246  0.42832  0.11253  1.0000
  H   H1140     1.0  0.87124  0.56389  0.50847  1.0000
  Fe  Fe72      1.0  0.84664  0.38903  0.02663  1.0000
  H   H1141     1.0  0.89760  0.49252  0.03832  1.0000
  C   C633      1.0  0.99967  0.40772  0.05473  1.0000
  C   C634      1.0  0.98234  0.42109  0.09526  1.0000
  H   H1142     1.0  0.75699  0.35652  0.06490  1.0000
  C   C635      1.0  0.62172  0.61288  0.50471  1.0000
  S   S144      1.0  0.51843  0.36466  0.35482  1.0000
  C   C636      1.0  0.92999  0.45871  0.50705  1.0000
  H   H1143     1.0  0.97435  0.56347  0.03574  1.0000
  H   H1144     1.0  0.94993  0.44268  0.50375  1.0000
  C   C637      1.0  0.76512  0.35721  0.40009  1.0000
  C   C638      1.0  0.96895  0.51426  0.12213  1.0000
  H   H1145     1.0  0.98008  0.53203  0.08803  1.0000
  H   H1146     1.0  0.81341  0.56799  0.51008  1.0000
  C   C639      1.0  0.98688  0.51430  0.09616  1.0000
  H   H1147     1.0  0.98551  0.52819  0.13283  1.0000
  C   C640      1.0  0.00093  0.55458  0.02575  1.0000
  H   H1148     1.0  0.00586  0.43475  0.46452  1.0000
  C   C641      1.0  0.00843  0.41932  0.45323  1.0000
  H   H1149     1.0  0.01449  0.40286  0.37515  1.0000
  H   H1150     1.0  0.71959  0.35056  0.44557  1.0000
  H   H1151     1.0  0.63745  0.59529  0.50297  1.0000
  C   C642      1.0  0.01377  0.45805  0.22772  1.0000
  C   C643      1.0  0.01419  0.53161  0.03887  1.0000
  C   C644      1.0  0.01307  0.41705  0.07708  1.0000
  C   C645      1.0  0.70324  0.35067  0.42743  1.0000
  C   C646      1.0  0.63469  0.35070  0.45322  1.0000
  H   H1152     1.0  0.79015  0.34872  0.38853  1.0000
  H   H1153     1.0  0.64607  0.62545  0.51211  1.0000
  H   H1154     1.0  0.01010  0.51749  0.42756  1.0000
  C   C647      1.0  0.01437  0.37335  0.35136  1.0000
  S   S145      1.0  0.01467  0.46196  0.19546  1.0000
  H   H1155     1.0  0.00712  0.50741  0.49980  1.0000
  C   C648      1.0  0.01456  0.37910  0.42450  1.0000
  S   S146      1.0  0.70422  0.68163  0.51107  1.0000
  H   H1156     1.0  0.92145  0.56282  0.97243  1.0000
  S   S147      1.0  0.78942  0.37822  0.96417  1.0000
  Fe  Fe73      1.0  0.83030  0.40979  0.97539  1.0000
  S   S148      1.0  0.84484  0.44755  0.96168  1.0000
  H   H1157     1.0  0.84365  0.43024  0.91134  1.0000
  S   S149      1.0  0.88409  0.38741  0.99174  1.0000
  C   C649      1.0  0.96316  0.46670  0.77054  1.0000
  Fe  Fe74      1.0  0.91284  0.57138  0.81152  1.0000
  S   S150      1.0  0.92177  0.60246  0.83622  1.0000
  S   S151      1.0  0.92274  0.57067  0.77013  1.0000
  Fe  Fe75      1.0  0.87452  0.54024  0.85327  1.0000
  S   S152      1.0  0.87967  0.56924  0.88081  1.0000
  S   S153      1.0  0.85735  0.50121  0.85864  1.0000
  Fe  Fe76      1.0  0.85470  0.59349  0.85061  1.0000
  S   S154      1.0  0.80954  0.62545  0.85460  1.0000
  Fe  Fe77      1.0  0.94552  0.57605  0.86439  1.0000
  C   C650      1.0  0.95541  0.52353  0.94838  1.0000
  S   S155      1.0  0.84450  0.56388  0.82424  1.0000
  S   S156      1.0  0.94154  0.54571  0.83855  1.0000
  H   H1158     1.0  0.88098  0.55179  0.95132  1.0000
  H   H1159     1.0  0.67079  0.65701  0.91049  1.0000
  S   S157      1.0  0.60374  0.63029  0.86735  1.0000
  H   H1160     1.0  0.99279  0.52542  0.77212  1.0000
  C   C651      1.0  0.95633  0.47028  0.95319  1.0000
  H   H1161     1.0  0.89704  0.46225  0.00616  1.0000
  S   S158      1.0  0.86725  0.60871  0.54899  1.0000
  H   H1162     1.0  0.52209  0.61905  0.61303  1.0000
  H   H1163     1.0  0.97195  0.54658  0.59819  1.0000
  S   S159      1.0  0.79539  0.41272  0.01109  1.0000
  H   H1164     1.0  0.94951  0.47119  0.51807  1.0000
  C   C652      1.0  0.84857  0.65509  0.66816  1.0000
  H   H1165     1.0  0.95614  0.52537  0.57565  1.0000
  C   C653      1.0  0.92465  0.50328  0.75896  1.0000
  C   C654      1.0  0.67075  0.67650  0.53687  1.0000
  C   C655      1.0  0.75576  0.67239  0.91463  1.0000
  H   H1166     1.0  0.54296  0.63572  0.74897  1.0000
  H   H1167     1.0  0.98947  0.59093  0.60351  1.0000
  C   C656      1.0  0.69166  0.58790  0.79519  1.0000
  H   H1168     1.0  0.66943  0.66660  0.85791  1.0000
  C   C657      1.0  0.64919  0.62216  0.77579  1.0000
  H   H1169     1.0  0.66431  0.57527  0.79302  1.0000
  H   H1170     1.0  0.53131  0.60288  0.55869  1.0000
  C   C658      1.0  0.85369  0.51471  0.77905  1.0000
  C   C659      1.0  0.75215  0.62606  0.85750  1.0000
  C   C660      1.0  0.72762  0.60558  0.86193  1.0000
  C   C661      1.0  0.68226  0.60716  0.86505  1.0000
  C   C662      1.0  0.66095  0.62918  0.86372  1.0000
  C   C663      1.0  0.68542  0.64962  0.85907  1.0000
  C   C664      1.0  0.73070  0.64803  0.85590  1.0000
  H   H1171     1.0  0.74365  0.58855  0.86320  1.0000
  H   H1172     1.0  0.66361  0.59122  0.86855  1.0000
  H   H1173     1.0  0.60043  0.64530  0.70413  1.0000
  H   H1174     1.0  0.64350  0.63413  0.94635  1.0000
  C   C665      1.0  0.60536  0.65308  0.75530  1.0000
  C   C666      1.0  0.58399  0.63924  0.79694  1.0000
  C   C667      1.0  0.95262  0.62282  0.54366  1.0000
  C   C668      1.0  0.92237  0.61005  0.55755  1.0000
  C   C669      1.0  0.93584  0.59856  0.57914  1.0000
  H   H1175     1.0  0.99149  0.56078  0.55695  1.0000
  H   H1176     1.0  0.95316  0.46700  0.78993  1.0000
  C   C670      1.0  0.52177  0.61317  0.81193  1.0000
  H   H1177     1.0  0.91249  0.58881  0.59007  1.0000
  H   H1178     1.0  0.00385  0.52021  0.59439  1.0000
  H   H1179     1.0  0.93912  0.43617  0.96931  1.0000
  C   C671      1.0  0.97044  0.57293  0.75206  1.0000
  C   C672      1.0  0.96634  0.57280  0.72650  1.0000
  H   H1180     1.0  0.55778  0.65251  0.79361  1.0000
  H   H1181     1.0  0.93435  0.57204  0.71836  1.0000
  H   H1182     1.0  0.93079  0.47899  0.96409  1.0000
  C   C673      1.0  0.84571  0.46187  0.93264  1.0000
  C   C674      1.0  0.84864  0.48676  0.93165  1.0000
  C   C675      1.0  0.85183  0.49907  0.90918  1.0000
  C   C676      1.0  0.85227  0.48656  0.88737  1.0000
  C   C677      1.0  0.84901  0.46169  0.88833  1.0000
  C   C678      1.0  0.84580  0.44937  0.91085  1.0000
  H   H1183     1.0  0.84815  0.49657  0.94842  1.0000
  H   H1184     1.0  0.85387  0.51820  0.90871  1.0000
  H   H1185     1.0  0.84910  0.45188  0.87155  1.0000
  C   C679      1.0  0.90034  0.50641  0.78339  1.0000
  H   H1186     1.0  0.58579  0.60079  0.80453  1.0000
  H   H1187     1.0  0.90295  0.49338  0.74639  1.0000
  H   H1188     1.0  0.81954  0.65023  0.56735  1.0000
  H   H1189     1.0  0.98263  0.45104  0.98483  1.0000
  H   H1190     1.0  0.85327  0.53208  0.76923  1.0000
  Fe  Fe78      1.0  0.75877  0.37986  0.00161  1.0000
  H   H1191     1.0  0.83526  0.50151  0.76837  1.0000
  H   H1192     1.0  0.76634  0.67966  0.61339  1.0000
  H   H1193     1.0  0.59461  0.60351  0.53935  1.0000
  H   H1194     1.0  0.55472  0.60851  0.77804  1.0000
  H   H1195     1.0  0.94709  0.47097  0.87528  1.0000
  H   H1196     1.0  0.96368  0.52482  0.96811  1.0000
  Fe  Fe79      1.0  0.56349  0.66410  0.86786  1.0000
  H   H1197     1.0  0.01000  0.47174  0.90322  1.0000
  H   H1198     1.0  0.91671  0.52023  0.79421  1.0000
  C   C680      1.0  0.98497  0.48938  0.73436  1.0000
  C   C681      1.0  0.65044  0.66270  0.79032  1.0000
  C   C682      1.0  0.52325  0.62174  0.56208  1.0000
  C   C683      1.0  0.76573  0.61419  0.58228  1.0000
  H   H1199     1.0  0.67984  0.66536  0.77877  1.0000
  H   H1200     1.0  0.93728  0.54913  0.91923  1.0000
  C   C684      1.0  0.81798  0.64866  0.58759  1.0000
  S   S160      1.0  0.68586  0.38056  0.00950  1.0000
  H   H1201     1.0  0.74661  0.65032  0.58546  1.0000
  S   S161      1.0  0.00757  0.57394  0.88674  1.0000
  H   H1202     1.0  0.60608  0.63330  0.92115  1.0000
  H   H1203     1.0  0.99907  0.43461  0.80516  1.0000
  H   H1204     1.0  0.65450  0.63834  0.58475  1.0000
  H   H1205     1.0  0.84209  0.63466  0.59250  1.0000
  H   H1206     1.0  0.00857  0.49101  0.96853  1.0000
  H   H1207     1.0  0.76569  0.63708  0.61308  1.0000
  H   H1208     1.0  0.74938  0.66394  0.85228  1.0000
  Fe  Fe80      1.0  0.84253  0.62995  0.51644  1.0000
  H   H1209     1.0  0.55797  0.66474  0.71447  1.0000
  H   H1210     1.0  0.99765  0.49627  0.68430  1.0000
  C   C685      1.0  0.98964  0.51297  0.71968  1.0000
  H   H1211     1.0  0.94241  0.63194  0.52712  1.0000
  H   H1212     1.0  0.95726  0.52026  0.71476  1.0000
  N   N38       1.0  0.83050  0.67184  0.59921  1.0000
  S   S162      1.0  0.58301  0.66448  0.60384  1.0000
  H   H1213     1.0  0.58485  0.64636  0.53549  1.0000
  H   H1214     1.0  0.96913  0.52143  0.89938  1.0000
  H   H1215     1.0  0.73258  0.60753  0.58643  1.0000
  H   H1216     1.0  0.78981  0.60142  0.58991  1.0000
  C   C686      1.0  0.94777  0.54918  0.93853  1.0000
  C   C687      1.0  0.77202  0.63864  0.59332  1.0000
  H   H1217     1.0  0.99228  0.43701  0.95585  1.0000
  H   H1218     1.0  0.81993  0.63618  0.63883  1.0000
  H   H1219     1.0  0.58882  0.61840  0.73898  1.0000
  H   H1220     1.0  0.00651  0.44373  0.74982  1.0000
  H   H1221     1.0  0.71319  0.58715  0.77901  1.0000
  H   H1222     1.0  0.90376  0.65310  0.57702  1.0000
  C   C688      1.0  0.96858  0.44728  0.96664  1.0000
  H   H1223     1.0  0.94240  0.46535  0.93530  1.0000
  H   H1224     1.0  0.62256  0.67454  0.90985  1.0000
  C   C689      1.0  0.00010  0.42893  0.78586  1.0000
  C   C690      1.0  0.97282  0.50456  0.90994  1.0000
  H   H1225     1.0  0.63354  0.65829  0.74365  1.0000
  H   H1226     1.0  0.93601  0.45750  0.76106  1.0000
  H   H1227     1.0  0.71076  0.58238  0.81153  1.0000
  H   H1228     1.0  0.92737  0.52150  0.75107  1.0000
  C   C691      1.0  0.64972  0.65362  0.57289  1.0000
  N   N39       1.0  0.62142  0.64382  0.77970  1.0000
  C   C692      1.0  0.97941  0.59969  0.58677  1.0000
  H   H1229     1.0  0.88057  0.64612  0.66674  1.0000
  C   C693      1.0  0.56100  0.63533  0.52543  1.0000
  C   C694      1.0  0.58250  0.61082  0.52168  1.0000
  C   C695      1.0  0.56314  0.61415  0.79665  1.0000
  H   H1230     1.0  0.89843  0.48982  0.79434  1.0000
  H   H1231     1.0  0.97038  0.41855  0.78173  1.0000
  H   H1232     1.0  0.70177  0.64414  0.54840  1.0000
  C   C696      1.0  0.67661  0.65687  0.55235  1.0000
  C   C697      1.0  0.62108  0.64500  0.93492  1.0000
  H   H1233     1.0  0.97247  0.50211  0.81156  1.0000
  H   H1234     1.0  0.62967  0.60720  0.76887  1.0000
  H   H1235     1.0  0.76953  0.61518  0.56215  1.0000
  C   C698      1.0  0.99626  0.62378  0.55119  1.0000
  H   H1236     1.0  0.58563  0.66938  0.75755  1.0000
  C   C699      1.0  0.00054  0.50625  0.77455  1.0000
  H   H1237     1.0  0.67367  0.62582  0.76127  1.0000
  C   C700      1.0  0.00328  0.57340  0.71133  1.0000
  C   C701      1.0  0.91220  0.56154  0.95291  1.0000
  C   C702      1.0  0.00362  0.45044  0.76870  1.0000
  H   H1238     1.0  0.00142  0.52073  0.53910  1.0000
  H   H1239     1.0  0.83720  0.51681  0.79688  1.0000
  H   H1240     1.0  0.70321  0.62459  0.80201  1.0000
  H   H1241     1.0  0.52922  0.61723  0.83126  1.0000
  C   C703      1.0  0.01076  0.62041  0.90222  1.0000
  C   C704      1.0  0.61653  0.66988  0.57809  1.0000
  H   H1242     1.0  0.96342  0.47748  0.72368  1.0000
  C   C705      1.0  0.99648  0.48665  0.94995  1.0000
  H   H1243     1.0  0.81228  0.65268  0.90304  1.0000
  S   S163      1.0  0.52535  0.67484  0.90089  1.0000
  H   H1244     1.0  0.88134  0.65616  0.62162  1.0000
  N   N40       1.0  0.98950  0.50925  0.93533  1.0000
  C   C706      1.0  0.67463  0.61304  0.79858  1.0000
  H   H1245     1.0  0.92331  0.51453  0.94751  1.0000
  H   H1246     1.0  0.99752  0.47118  0.85866  1.0000
  C   C707      1.0  0.98436  0.53392  0.58459  1.0000
  H   H1247     1.0  0.66250  0.65697  0.80862  1.0000
  H   H1248     1.0  0.90744  0.57976  0.94540  1.0000
  H   H1249     1.0  0.54480  0.63531  0.70474  1.0000
  H   H1250     1.0  0.65394  0.61312  0.81506  1.0000
  H   H1251     1.0  0.93956  0.49699  0.91073  1.0000
  H   H1252     1.0  0.59425  0.64203  0.81617  1.0000
  H   H1253     1.0  0.74851  0.67780  0.89559  1.0000
  C   C708      1.0  0.57559  0.63654  0.74042  1.0000
  N   N41       1.0  0.96863  0.49148  0.76024  1.0000
  Fe  Fe81      1.0  0.84127  0.35597  0.98303  1.0000
  H   H1254     1.0  0.79300  0.66365  0.64629  1.0000
  H   H1255     1.0  0.81387  0.66111  0.93456  1.0000
  C   C709      1.0  0.56944  0.64611  0.71439  1.0000
  H   H1256     1.0  0.99960  0.57316  0.69172  1.0000
  H   H1257     1.0  0.55140  0.62904  0.57232  1.0000
  H   H1258     1.0  0.52601  0.67037  0.95890  1.0000
  C   C710      1.0  0.80437  0.66707  0.91591  1.0000
  C   C711      1.0  0.82487  0.65502  0.64362  1.0000
  H   H1259     1.0  0.97757  0.56015  0.93989  1.0000
  H   H1260     1.0  0.92772  0.67470  0.59672  1.0000
  H   H1261     1.0  0.98512  0.62420  0.88922  1.0000
  S   S164      1.0  0.82939  0.66905  0.51576  1.0000
  H   H1262     1.0  0.96561  0.49786  0.86038  1.0000
  C   C712      1.0  0.00430  0.50115  0.80238  1.0000
  H   H1263     1.0  0.85357  0.67351  0.67442  1.0000
  C   C713      1.0  0.00984  0.61210  0.57267  1.0000
  H   H1264     1.0  0.67996  0.67197  0.95590  1.0000
  H   H1265     1.0  0.99023  0.55103  0.00680  1.0000
  C   C714      1.0  0.90771  0.67230  0.58006  1.0000
  C   C715      1.0  0.85219  0.66760  0.62362  1.0000
  H   H1266     1.0  0.90065  0.45324  0.51745  1.0000
  H   H1267     1.0  0.00763  0.52626  0.73038  1.0000
  C   C716      1.0  0.64579  0.66508  0.92207  1.0000
  H   H1268     1.0  0.96597  0.67465  0.55800  1.0000
  H   H1269     1.0  0.52861  0.66770  0.55783  1.0000
  H   H1270     1.0  0.59486  0.65219  0.94648  1.0000
  H   H1271     1.0  0.82892  0.64540  0.68205  1.0000
  C   C717      1.0  0.01199  0.57396  0.76235  1.0000
  H   H1272     1.0  0.73869  0.65562  0.91917  1.0000
  N   N42       1.0  0.51759  0.63527  0.53831  1.0000
  C   C718      1.0  0.97623  0.48175  0.87062  1.0000
  C   C719      1.0  0.01441  0.50943  0.69588  1.0000
  C   C720      1.0  0.00085  0.48847  0.89377  1.0000
  C   C721      1.0  0.01229  0.54713  0.56579  1.0000
  H   H1273     1.0  0.91652  0.67927  0.54113  1.0000
  H   H1274     1.0  0.55915  0.59810  0.51370  1.0000
  H   H1275     1.0  0.96789  0.54587  0.51406  1.0000
  C   C722      1.0  0.53184  0.89637  0.27301  1.0000
  H   H1276     1.0  0.95146  0.87742  0.47017  1.0000
  S   S165      1.0  0.77188  0.83306  0.05314  1.0000
  H   H1277     1.0  0.58350  0.95665  0.48617  1.0000
  H   H1278     1.0  0.93842  0.82248  0.46224  1.0000
  H   H1279     1.0  0.83228  0.76443  0.43407  1.0000
  H   H1280     1.0  0.93341  0.78947  0.05025  1.0000
  Fe  Fe82      1.0  0.66228  0.93776  0.36973  1.0000
  S   S166      1.0  0.68024  0.96491  0.34112  1.0000
  S   S167      1.0  0.70110  0.90409  0.37830  1.0000
  Fe  Fe83      1.0  0.57283  0.96009  0.37740  1.0000
  S   S168      1.0  0.58449  0.98859  0.34907  1.0000
  Fe  Fe84      1.0  0.61275  0.95997  0.32619  1.0000
  S   S169      1.0  0.60322  0.95173  0.28592  1.0000
  Fe  Fe85      1.0  0.65036  0.99129  0.36651  1.0000
  S   S170      1.0  0.59620  0.93113  0.35329  1.0000
  S   S171      1.0  0.63698  0.96458  0.39647  1.0000
  H   H1281     1.0  0.61350  0.84989  0.48566  1.0000
  S   S172      1.0  0.97460  0.84530  0.07374  1.0000
  Fe  Fe86      1.0  0.94461  0.85658  0.37350  1.0000
  S   S173      1.0  0.94130  0.82849  0.34488  1.0000
  S   S174      1.0  0.90680  0.89122  0.37592  1.0000
  C   C723      1.0  0.54303  0.84579  0.48405  1.0000
  C   C724      1.0  0.89378  0.79411  0.45233  1.0000
  H   H1282     1.0  0.99174  0.91305  0.45811  1.0000
  C   C725      1.0  0.00634  0.76846  0.06714  1.0000
  Fe  Fe87      1.0  0.95430  0.80257  0.37598  1.0000
  S   S175      1.0  0.91387  0.76879  0.37731  1.0000
  C   C726      1.0  0.01341  0.76519  0.21592  1.0000
  S   S176      1.0  0.95164  0.83056  0.40456  1.0000
  H   H1283     1.0  0.64583  0.86658  0.30782  1.0000
  C   C727      1.0  0.97584  0.77004  0.02502  1.0000
  H   H1284     1.0  0.84767  0.82210  0.40751  1.0000
  C   C728      1.0  0.56361  0.96417  0.26591  1.0000
  H   H1285     1.0  0.94486  0.82830  0.24316  1.0000
  H   H1286     1.0  0.77244  0.82000  0.39167  1.0000
  C   C729      1.0  0.75840  0.90100  0.37800  1.0000
  C   C730      1.0  0.77642  0.87811  0.37788  1.0000
  C   C731      1.0  0.82178  0.87480  0.37736  1.0000
  C   C732      1.0  0.84958  0.89439  0.37710  1.0000
  C   C733      1.0  0.83158  0.91727  0.37744  1.0000
  C   C734      1.0  0.78622  0.92059  0.37776  1.0000
  H   H1287     1.0  0.75512  0.86287  0.37797  1.0000
  H   H1288     1.0  0.83530  0.85718  0.37710  1.0000
  H   H1289     1.0  0.85283  0.93255  0.37732  1.0000
  H   H1290     1.0  0.77281  0.93830  0.37802  1.0000
  C   C735      1.0  0.52352  0.92430  0.42714  1.0000
  H   H1291     1.0  0.82799  0.89163  0.15901  1.0000
  H   H1292     1.0  0.84990  0.70256  0.42428  1.0000
  C   C736      1.0  0.90516  0.71704  0.44296  1.0000
  C   C737      1.0  0.93819  0.73425  0.44187  1.0000
  C   C738      1.0  0.94155  0.75003  0.42180  1.0000
  C   C739      1.0  0.91168  0.74886  0.40263  1.0000
  C   C740      1.0  0.87873  0.73159  0.40363  1.0000
  C   C741      1.0  0.87535  0.71578  0.42372  1.0000
  H   H1293     1.0  0.96146  0.73530  0.45662  1.0000
  H   H1294     1.0  0.96729  0.76308  0.42118  1.0000
  H   H1295     1.0  0.85565  0.73042  0.38879  1.0000
  H   H1296     1.0  0.54401  0.99226  0.28947  1.0000
  C   C742      1.0  0.55662  0.88782  0.05628  1.0000
  H   H1297     1.0  0.01275  0.72901  0.03916  1.0000
  C   C743      1.0  0.95543  0.97142  0.41797  1.0000
  H   H1298     1.0  0.55228  0.95855  0.45847  1.0000
  C   C744      1.0  0.58258  0.90352  0.09456  1.0000
  C   C745      1.0  0.59084  0.89266  0.07219  1.0000
  H   H1299     1.0  0.81973  0.73210  0.46482  1.0000
  H   H1300     1.0  0.60916  0.90694  0.10695  1.0000
  H   H1301     1.0  0.62359  0.88771  0.06749  1.0000
  C   C746      1.0  0.82857  0.83628  0.05789  1.0000
  C   C747      1.0  0.84879  0.82254  0.07629  1.0000
  C   C748      1.0  0.89347  0.82503  0.08132  1.0000
  C   C749      1.0  0.91839  0.84134  0.06801  1.0000
  C   C750      1.0  0.89840  0.85478  0.04931  1.0000
  C   C751      1.0  0.85367  0.85237  0.04432  1.0000
  H   H1302     1.0  0.82966  0.80998  0.08681  1.0000
  H   H1303     1.0  0.90855  0.81438  0.09554  1.0000
  H   H1304     1.0  0.91755  0.86730  0.03876  1.0000
  C   C752      1.0  0.97752  0.90691  0.10118  1.0000
  C   C753      1.0  0.55641  0.95356  0.24323  1.0000
  N   N43       1.0  0.81578  0.80170  0.43643  1.0000
  C   C754      1.0  0.77608  0.81628  0.44184  1.0000
  C   C755      1.0  0.57161  0.00690  0.44828  1.0000
  C   C756      1.0  0.85222  0.80953  0.45289  1.0000
  H   H1305     1.0  0.53144  0.01410  0.17220  1.0000
  C   C757      1.0  0.78137  0.84344  0.43780  1.0000
  Fe  Fe88      1.0  0.63533  0.86795  0.01621  1.0000
  C   C758      1.0  0.73747  0.85604  0.43780  1.0000
  C   C759      1.0  0.79340  0.80406  0.39069  1.0000
  H   H1306     1.0  0.76638  0.81388  0.46122  1.0000
  H   H1307     1.0  0.84109  0.81056  0.47212  1.0000
  H   H1308     1.0  0.94291  0.74967  0.06530  1.0000
  C   C760      1.0  0.84655  0.93677  0.16862  1.0000
  H   H1309     1.0  0.86251  0.82790  0.44789  1.0000
  H   H1310     1.0  0.85399  0.79132  0.40552  1.0000
  C   C761      1.0  0.58737  0.84832  0.47177  1.0000
  H   H1311     1.0  0.80144  0.85098  0.45265  1.0000
  H   H1312     1.0  0.00014  0.78351  0.21728  1.0000
  H   H1313     1.0  0.90664  0.79330  0.43355  1.0000
  C   C762      1.0  0.59747  0.94041  0.01486  1.0000
  H   H1314     1.0  0.74248  0.87544  0.43532  1.0000
  H   H1315     1.0  0.95582  0.75362  0.02579  1.0000
  H   H1316     1.0  0.72029  0.85282  0.45531  1.0000
  C   C763      1.0  0.54017  0.90983  0.10107  1.0000
  H   H1317     1.0  0.74774  0.80992  0.43112  1.0000
  C   C764      1.0  0.96926  0.75770  0.17766  1.0000
  S   S177      1.0  0.56580  0.87398  0.02821  1.0000
  N   N44       1.0  0.87104  0.88037  0.13026  1.0000
  C   C765      1.0  0.84169  0.88498  0.10857  1.0000
  C   C766      1.0  0.91820  0.88313  0.12287  1.0000
  C   C767      1.0  0.86381  0.85501  0.13855  1.0000
  C   C768      1.0  0.86050  0.89608  0.15143  1.0000
  C   C769      1.0  0.97861  0.83157  0.24744  1.0000
  C   C770      1.0  0.79247  0.88054  0.11254  1.0000
  C   C771      1.0  0.89518  0.84519  0.15851  1.0000
  C   C772      1.0  0.92880  0.90204  0.10280  1.0000
  H   H1318     1.0  0.54178  0.99441  0.48287  1.0000
  H   H1319     1.0  0.86693  0.93253  0.18486  1.0000
  C   C773      1.0  0.76593  0.88960  0.09072  1.0000
  C   C774      1.0  0.88646  0.81889  0.16355  1.0000
  H   H1320     1.0  0.85179  0.87357  0.09320  1.0000
  H   H1321     1.0  0.84518  0.90335  0.10145  1.0000
  H   H1322     1.0  0.93884  0.88669  0.13913  1.0000
  H   H1323     1.0  0.93082  0.86622  0.11544  1.0000
  H   H1324     1.0  0.86592  0.84305  0.12274  1.0000
  H   H1325     1.0  0.83044  0.85260  0.14593  1.0000
  H   H1326     1.0  0.53659  0.87706  0.27060  1.0000
  H   H1327     1.0  0.88354  0.89263  0.16673  1.0000
  C   C775      1.0  0.79410  0.76806  0.46703  1.0000
  H   H1328     1.0  0.99012  0.91372  0.11873  1.0000
  H   H1329     1.0  0.78590  0.86124  0.11453  1.0000
  H   H1330     1.0  0.78040  0.88965  0.12892  1.0000
  H   H1331     1.0  0.89077  0.85463  0.17592  1.0000
  H   H1332     1.0  0.92968  0.84690  0.15301  1.0000
  H   H1333     1.0  0.91798  0.89554  0.08473  1.0000
  H   H1334     1.0  0.83588  0.81780  0.36178  1.0000
  H   H1335     1.0  0.94206  0.77335  0.10303  1.0000
  H   H1336     1.0  0.89641  0.92868  0.14317  1.0000
  H   H1337     1.0  0.95887  0.79297  0.46737  1.0000
  S   S178      1.0  0.99006  0.83304  0.19775  1.0000
  C   C776      1.0  0.96203  0.87933  0.45091  1.0000
  H   H1338     1.0  0.97146  0.98259  0.40376  1.0000
  H   H1339     1.0  0.76835  0.90919  0.08895  1.0000
  H   H1340     1.0  0.77752  0.88153  0.07358  1.0000
  H   H1341     1.0  0.73122  0.88475  0.09318  1.0000
  H   H1342     1.0  0.89323  0.80836  0.14704  1.0000
  H   H1343     1.0  0.90802  0.81244  0.17848  1.0000
  H   H1344     1.0  0.85226  0.81601  0.16926  1.0000
  N   N45       1.0  0.76352  0.90451  0.30075  1.0000
  C   C777      1.0  0.80512  0.89271  0.30904  1.0000
  C   C778      1.0  0.76017  0.92897  0.31156  1.0000
  C   C779      1.0  0.72618  0.88972  0.31044  1.0000
  C   C780      1.0  0.75944  0.90562  0.27334  1.0000
  C   C781      1.0  0.79640  0.91826  0.25921  1.0000
  C   C782      1.0  0.81217  0.86683  0.30088  1.0000
  H   H1345     1.0  0.77789  0.96859  0.34072  1.0000
  C   C783      1.0  0.80299  0.94327  0.31468  1.0000
  C   C784      1.0  0.79399  0.96862  0.32262  1.0000
  C   C785      1.0  0.79159  0.91472  0.23176  1.0000
  C   C786      1.0  0.85666  0.85772  0.30913  1.0000
  H   H1346     1.0  0.59401  0.83286  0.46008  1.0000
  H   H1347     1.0  0.80680  0.89269  0.32931  1.0000
  H   H1348     1.0  0.83406  0.90289  0.30303  1.0000
  H   H1349     1.0  0.73683  0.94010  0.30085  1.0000
  H   H1350     1.0  0.74643  0.92770  0.33033  1.0000
  H   H1351     1.0  0.73089  0.88586  0.33025  1.0000
  H   H1352     1.0  0.72511  0.87222  0.30143  1.0000
  H   H1353     1.0  0.75554  0.88749  0.26594  1.0000
  H   H1354     1.0  0.72928  0.91516  0.26790  1.0000
  H   H1355     1.0  0.82886  0.91153  0.26456  1.0000
  H   H1356     1.0  0.79471  0.93762  0.26224  1.0000
  H   H1357     1.0  0.78757  0.85482  0.30917  1.0000
  H   H1358     1.0  0.81054  0.86550  0.28075  1.0000
  H   H1359     1.0  0.67197  0.90382  0.28783  1.0000
  H   H1360     1.0  0.79750  0.84782  0.42032  1.0000
  H   H1361     1.0  0.82359  0.93488  0.32903  1.0000
  H   H1362     1.0  0.82237  0.94417  0.29780  1.0000
  H   H1363     1.0  0.98853  0.75331  0.22427  1.0000
  H   H1364     1.0  0.55545  0.92346  0.41901  1.0000
  H   H1365     1.0  0.79428  0.89564  0.22730  1.0000
  H   H1366     1.0  0.75978  0.92161  0.22518  1.0000
  H   H1367     1.0  0.81777  0.92452  0.22205  1.0000
  H   H1368     1.0  0.88309  0.86836  0.30058  1.0000
  H   H1369     1.0  0.85983  0.85861  0.32928  1.0000
  H   H1370     1.0  0.86069  0.83897  0.30371  1.0000
  H   H1371     1.0  0.96429  0.80830  0.03000  1.0000
  C   C787      1.0  0.53825  0.98366  0.27228  1.0000
  H   H1372     1.0  0.77304  0.97802  0.30909  1.0000
  H   H1373     1.0  0.65450  0.93336  0.03705  1.0000
  H   H1374     1.0  0.76303  0.73483  0.45654  1.0000
  H   H1375     1.0  0.99572  0.78663  0.07210  1.0000
  H   H1376     1.0  0.65094  0.88034  0.33734  1.0000
  C   C788      1.0  0.78873  0.74115  0.46913  1.0000
  H   H1377     1.0  0.77694  0.77056  0.42910  1.0000
  H   H1378     1.0  0.61287  0.89181  0.31520  1.0000
  H   H1379     1.0  0.96874  0.82907  0.28649  1.0000
  H   H1380     1.0  0.93482  0.74212  0.10918  1.0000
  Fe  Fe89      1.0  0.72918  0.85155  0.02445  1.0000
  H   H1381     1.0  0.77264  0.78818  0.39326  1.0000
  C   C789      1.0  0.68000  0.90050  0.30729  1.0000
  H   H1382     1.0  0.53598  0.89615  0.45324  1.0000
  C   C790      1.0  0.86238  0.92311  0.14651  1.0000
  C   C791      1.0  0.58025  0.96619  0.46840  1.0000
  H   H1383     1.0  0.83858  0.86301  0.03008  1.0000
  H   H1384     1.0  0.67700  0.91745  0.31706  1.0000
  C   C792      1.0  0.54132  0.82303  0.50030  1.0000
  H   H1385     1.0  0.71691  0.84985  0.42248  1.0000
  H   H1386     1.0  0.97883  0.76969  0.26204  1.0000
  C   C793      1.0  0.99204  0.83203  0.27204  1.0000
  H   H1387     1.0  0.01292  0.78672  0.29914  1.0000
  H   H1388     1.0  0.88722  0.77579  0.45895  1.0000
  H   H1389     1.0  0.97162  0.86160  0.44438  1.0000
  H   H1390     1.0  0.57613  0.93865  0.23797  1.0000
  H   H1391     1.0  0.76313  0.77617  0.47289  1.0000
  C   C794      1.0  0.82991  0.80507  0.41024  1.0000
  H   H1392     1.0  0.99536  0.89054  0.09651  1.0000
  C   C795      1.0  0.57256  0.99251  0.47264  1.0000
  H   H1393     1.0  0.78552  0.80512  0.35132  1.0000
  H   H1394     1.0  0.84172  0.92851  0.13082  1.0000
  C   C796      1.0  0.92949  0.80431  0.46847  1.0000
  C   C797      1.0  0.63976  0.94843  0.02679  1.0000
  C   C798      1.0  0.95817  0.75577  0.10259  1.0000
  C   C799      1.0  0.52326  0.96172  0.22746  1.0000
  H   H1395     1.0  0.82852  0.78605  0.36200  1.0000
  H   H1396     1.0  0.82507  0.97848  0.32422  1.0000
  H   H1397     1.0  0.95357  0.93545  0.43075  1.0000
  H   H1398     1.0  0.59943  0.99908  0.48432  1.0000
  H   H1399     1.0  0.55661  0.99575  0.43404  1.0000
  S   S179      1.0  0.53159  0.92285  0.12962  1.0000
  H   H1400     1.0  0.93430  0.88611  0.43983  1.0000
  H   H1401     1.0  0.56074  0.90361  0.28249  1.0000
  H   H1402     1.0  0.88646  0.80817  0.01957  1.0000
  C   C800      1.0  0.81210  0.80328  0.36493  1.0000
  H   H1403     1.0  0.81997  0.77314  0.48002  1.0000
  H   H1404     1.0  0.91244  0.91913  0.10589  1.0000
  H   H1405     1.0  0.84888  0.95611  0.16478  1.0000
  H   H1406     1.0  0.61037  0.96349  0.45769  1.0000
  C   C801      1.0  0.97254  0.75013  0.07674  1.0000
  H   H1407     1.0  0.81210  0.93237  0.17266  1.0000
  C   C802      1.0  0.80517  0.77579  0.44047  1.0000
  C   C803      1.0  0.64544  0.88368  0.31755  1.0000
  H   H1408     1.0  0.58786  0.86455  0.46007  1.0000
  H   H1409     1.0  0.95003  0.74358  0.18695  1.0000
  H   H1410     1.0  0.54881  0.80767  0.48850  1.0000
  H   H1411     1.0  0.63352  0.96287  0.03984  1.0000
  S   S180      1.0  0.69467  0.88614  0.03075  1.0000
  C   C804      1.0  0.94626  0.79131  0.03145  1.0000
  H   H1412     1.0  0.57630  0.93324  0.02941  1.0000
  H   H1413     1.0  0.60595  0.00896  0.44230  1.0000
  H   H1414     1.0  0.51834  0.84543  0.46932  1.0000
  H   H1415     1.0  0.97139  0.75345  0.15803  1.0000
  H   H1416     1.0  0.68080  0.00942  0.42013  1.0000
  H   H1417     1.0  0.00111  0.91204  0.37318  1.0000
  H   H1418     1.0  0.95241  0.77497  0.17944  1.0000
  H   H1419     1.0  0.77944  0.73603  0.48805  1.0000
  C   C805      1.0  0.00859  0.83492  0.22837  1.0000
  H   H1420     1.0  0.98656  0.75572  0.11505  1.0000
  S   S181      1.0  0.00168  0.80590  0.13512  1.0000
  H   H1421     1.0  0.52834  0.95623  0.04625  1.0000
  H   H1422     1.0  0.96395  0.93890  0.39902  1.0000
  S   S182      1.0  0.90238  0.69791  0.46890  1.0000
  H   H1423     1.0  0.91988  0.97159  0.41444  1.0000
  Fe  Fe90      1.0  0.01461  0.83438  0.10727  1.0000
  H   H1424     1.0  0.98335  0.75988  0.30580  1.0000
  H   H1425     1.0  0.98706  0.73211  0.07723  1.0000
  H   H1426     1.0  0.98388  0.92037  0.08664  1.0000
  H   H1427     1.0  0.51781  0.95313  0.21022  1.0000
  H   H1428     1.0  0.53791  0.86183  0.49510  1.0000
  C   C806      1.0  0.00962  0.76189  0.26908  1.0000
  C   C807      1.0  0.01224  0.76729  0.29628  1.0000
  H   H1429     1.0  0.51703  0.01328  0.05568  1.0000
  C   C808      1.0  0.97222  0.94598  0.41712  1.0000
  H   H1430     1.0  0.91876  0.80474  0.48777  1.0000
  H   H1431     1.0  0.98627  0.90108  0.41063  1.0000
  H   H1432     1.0  0.52901  0.90490  0.25469  1.0000
  H   H1433     1.0  0.96146  0.97911  0.43619  1.0000
  H   H1434     1.0  0.00786  0.74240  0.26697  1.0000
  C   C809      1.0  0.00070  0.89622  0.44929  1.0000
  Fe  Fe91      1.0  0.01391  0.83164  0.34299  1.0000
  C   C810      1.0  0.90713  0.79296  0.01434  1.0000
  H   H1435     1.0  0.88721  0.77658  0.01568  1.0000
  Fe  Fe92      1.0  0.70911  0.89453  0.99136  1.0000
  S   S183      1.0  0.64785  0.87844  0.97724  1.0000
  S   S184      1.0  0.73269  0.93142  0.98027  1.0000
  Fe  Fe93      1.0  0.68529  0.84442  0.97489  1.0000
  S   S185      1.0  0.68352  0.82319  0.93986  1.0000
  S   S186      1.0  0.74853  0.86132  0.98613  1.0000
  S   S187      1.0  0.62554  0.99597  0.90582  1.0000
  Fe  Fe94      1.0  0.53167  0.70568  0.83732  1.0000
  H   H1436     1.0  0.60537  0.92550  0.00268  1.0000
  Fe  Fe95      1.0  0.54923  0.71173  0.89225  1.0000
  H   H1437     1.0  0.69007  0.70711  0.79635  1.0000
  S   S188      1.0  0.56480  0.73176  0.92693  1.0000
  H   H1438     1.0  0.77533  0.89083  0.85483  1.0000
  C   C811      1.0  0.59543  0.75819  0.92947  1.0000
  C   C812      1.0  0.61815  0.76805  0.90974  1.0000
  C   C813      1.0  0.64484  0.78806  0.91314  1.0000
  C   C814      1.0  0.64858  0.79854  0.93616  1.0000
  C   C815      1.0  0.62539  0.78882  0.95577  1.0000
  C   C816      1.0  0.59923  0.76867  0.95245  1.0000
  H   H1439     1.0  0.61559  0.76013  0.89198  1.0000
  H   H1440     1.0  0.66269  0.79546  0.89786  1.0000
  H   H1441     1.0  0.62820  0.79660  0.97360  1.0000
  H   H1442     1.0  0.58249  0.76095  0.96794  1.0000
  C   C817      1.0  0.70065  0.95031  0.96151  1.0000
  C   C818      1.0  0.66286  0.94204  0.95043  1.0000
  C   C819      1.0  0.63998  0.95653  0.93383  1.0000
  C   C820      1.0  0.65400  0.97971  0.92850  1.0000
  C   C821      1.0  0.69077  0.98849  0.94037  1.0000
  C   C822      1.0  0.71431  0.97370  0.95663  1.0000
  H   H1443     1.0  0.65196  0.92420  0.95409  1.0000
  H   H1444     1.0  0.61164  0.94959  0.92467  1.0000
  H   H1445     1.0  0.55225  0.84987  0.54145  1.0000
  H   H1446     1.0  0.74355  0.98027  0.96516  1.0000
  H   H1447     1.0  0.57880  0.76220  0.56271  1.0000
  H   H1448     1.0  0.64665  0.89062  0.89230  1.0000
  H   H1449     1.0  0.71001  0.71627  0.85695  1.0000
  C   C823      1.0  0.69386  0.72239  0.94752  1.0000
  H   H1450     1.0  0.72203  0.74736  0.85963  1.0000
  C   C824      1.0  0.93326  0.68288  0.55865  1.0000
  C   C825      1.0  0.70207  0.71783  0.97514  1.0000
  H   H1451     1.0  0.65909  0.74556  0.98820  1.0000
  H   H1452     1.0  0.71367  0.71619  0.56567  1.0000
  N   N46       1.0  0.69707  0.70103  0.93133  1.0000
  H   H1453     1.0  0.59947  0.68549  0.80521  1.0000
  H   H1454     1.0  0.65049  0.71559  0.90575  1.0000
  H   H1455     1.0  0.83690  0.89522  0.82676  1.0000
  C   C826      1.0  0.54188  0.77428  0.67256  1.0000
  C   C827      1.0  0.86295  0.68454  0.58296  1.0000
  H   H1456     1.0  0.66117  0.73055  0.94558  1.0000
  H   H1457     1.0  0.71745  0.73635  0.94188  1.0000
  H   H1458     1.0  0.76754  0.68372  0.56472  1.0000
  H   H1459     1.0  0.52646  0.77190  0.57296  1.0000
  H   H1460     1.0  0.68463  0.69400  0.89310  1.0000
  H   H1461     1.0  0.76662  0.70675  0.93066  1.0000
  H   H1462     1.0  0.55127  0.88917  0.94461  1.0000
  H   H1463     1.0  0.58510  0.70213  0.56630  1.0000
  H   H1464     1.0  0.69541  0.90412  0.92555  1.0000
  H   H1465     1.0  0.91781  0.79580  0.99519  1.0000
  H   H1466     1.0  0.66747  0.73696  0.86482  1.0000
  C   C828      1.0  0.63736  0.69269  0.54196  1.0000
  C   C829      1.0  0.66515  0.68261  0.94076  1.0000
  C   C830      1.0  0.76771  0.92615  0.90605  1.0000
  H   H1467     1.0  0.73630  0.71252  0.97842  1.0000
  H   H1468     1.0  0.69998  0.93182  0.89465  1.0000
  H   H1469     1.0  0.87291  0.90537  0.97412  1.0000
  H   H1470     1.0  0.84304  0.87808  0.97118  1.0000
  H   H1471     1.0  0.73720  0.97153  0.90140  1.0000
  H   H1472     1.0  0.56378  0.80353  0.54930  1.0000
  H   H1473     1.0  0.59766  0.96405  0.98400  1.0000
  S   S189      1.0  0.53773  0.72381  0.79996  1.0000
  C   C831      1.0  0.83402  0.90345  0.94111  1.0000
  H   H1474     1.0  0.70759  0.74597  0.90332  1.0000
  H   H1475     1.0  0.54308  0.68195  0.51686  1.0000
  H   H1476     1.0  0.98443  0.77227  0.00542  1.0000
  C   C832      1.0  0.80517  0.89945  0.86171  1.0000
  C   C833      1.0  0.70235  0.73251  0.86725  1.0000
  S   S190      1.0  0.59125  0.70032  0.86101  1.0000
  H   H1477     1.0  0.70194  0.00630  0.93634  1.0000
  H   H1478     1.0  0.55138  0.76337  0.68875  1.0000
  H   H1479     1.0  0.54508  0.73820  0.74957  1.0000
  H   H1480     1.0  0.79842  0.93618  0.90295  1.0000
  H   H1481     1.0  0.74657  0.86603  0.89850  1.0000
  C   C834      1.0  0.81307  0.89388  0.88909  1.0000
  H   H1482     1.0  0.63617  0.69139  0.94882  1.0000
  H   H1483     1.0  0.54903  0.88621  0.97725  1.0000
  H   H1484     1.0  0.52875  0.87383  0.57606  1.0000
  H   H1485     1.0  0.51702  0.72106  0.71100  1.0000
  H   H1486     1.0  0.57671  0.92605  0.96375  1.0000
  H   H1487     1.0  0.93728  0.70231  0.56066  1.0000
  H   H1488     1.0  0.74982  0.68430  0.95127  1.0000
  H   H1489     1.0  0.54608  0.96816  0.95498  1.0000
  C   C835      1.0  0.79231  0.68824  0.60242  1.0000
  H   H1490     1.0  0.52209  0.83223  0.56351  1.0000
  H   H1491     1.0  0.86229  0.89631  0.93112  1.0000
  H   H1492     1.0  0.74822  0.72440  0.89550  1.0000
  C   C836      1.0  0.71323  0.72882  0.89423  1.0000
  H   H1493     1.0  0.79235  0.71191  0.57020  1.0000
  C   C837      1.0  0.52609  0.72208  0.75018  1.0000
  C   C838      1.0  0.72701  0.70889  0.58306  1.0000
  H   H1494     1.0  0.64402  0.72117  0.81035  1.0000
  C   C839      1.0  0.65662  0.87817  0.90716  1.0000
  H   H1495     1.0  0.81536  0.90505  0.97945  1.0000
  C   C840      1.0  0.52373  0.99984  0.97203  1.0000
  H   H1496     1.0  0.70892  0.96897  0.87283  1.0000
  C   C841      1.0  0.57607  0.96103  0.00005  1.0000
  H   H1497     1.0  0.56705  0.78809  0.66945  1.0000
  N   N47       1.0  0.52943  0.95770  0.99206  1.0000
  H   H1498     1.0  0.65965  0.86000  0.89982  1.0000
  H   H1499     1.0  0.72971  0.72350  0.59630  1.0000
  C   C842      1.0  0.69374  0.74027  0.98968  1.0000
  C   C843      1.0  0.68463  0.70903  0.90586  1.0000
  C   C844      1.0  0.73740  0.88508  0.89998  1.0000
  H   H1500     1.0  0.76577  0.89704  0.94528  1.0000
  H   H1501     1.0  0.54072  0.76290  0.65624  1.0000
  H   H1502     1.0  0.55419  0.00523  0.98130  1.0000
  C   C845      1.0  0.54839  0.78883  0.53930  1.0000
  C   C846      1.0  0.73701  0.96233  0.88369  1.0000
  H   H1503     1.0  0.68050  0.70376  0.98259  1.0000
  H   H1504     1.0  0.87386  0.89916  0.85189  1.0000
  H   H1505     1.0  0.80222  0.70395  0.61318  1.0000
  C   C847      1.0  0.73309  0.93554  0.88760  1.0000
  H   H1506     1.0  0.84947  0.68691  0.56425  1.0000
  C   C848      1.0  0.79105  0.89233  0.93175  1.0000
  C   C849      1.0  0.54570  0.76743  0.55663  1.0000
  H   H1507     1.0  0.72429  0.88997  0.88179  1.0000
  H   H1508     1.0  0.84620  0.87110  0.84804  1.0000
  C   C850      1.0  0.69956  0.88607  0.91847  1.0000
  C   C851      1.0  0.74308  0.69188  0.93280  1.0000
  H   H1509     1.0  0.62122  0.69613  0.77650  1.0000
  C   C852      1.0  0.51874  0.93227  0.98615  1.0000
  C   C853      1.0  0.84164  0.89757  0.96810  1.0000
  H   H1510     1.0  0.63089  0.87791  0.92129  1.0000
  H   H1511     1.0  0.75640  0.93206  0.92426  1.0000
  C   C854      1.0  0.66038  0.70392  0.80736  1.0000
  H   H1512     1.0  0.70678  0.87408  0.93419  1.0000
  C   C855      1.0  0.84294  0.89066  0.84625  1.0000
  H   H1513     1.0  0.86413  0.68475  0.63095  1.0000
  N   N48       1.0  0.77670  0.89979  0.90636  1.0000
  H   H1514     1.0  0.76736  0.96676  0.87373  1.0000
  H   H1515     1.0  0.71439  0.75513  0.98293  1.0000
  H   H1516     1.0  0.80293  0.91889  0.85865  1.0000
  C   C856      1.0  0.52172  0.01247  0.94716  1.0000
  H   H1517     1.0  0.79449  0.87267  0.93309  1.0000
  H   H1518     1.0  0.83354  0.92303  0.93892  1.0000
  H   H1519     1.0  0.82161  0.87473  0.89107  1.0000
  H   H1520     1.0  0.73552  0.92731  0.86951  1.0000
  H   H1521     1.0  0.84289  0.90397  0.89372  1.0000
  H   H1522     1.0  0.53044  0.75211  0.54748  1.0000
  H   H1523     1.0  0.52646  0.92008  0.00163  1.0000
  H   H1524     1.0  0.63256  0.70791  0.53004  1.0000
  S   S191      1.0  0.52270  0.71232  0.64421  1.0000
  C   C857      1.0  0.54145  0.92236  0.96326  1.0000
  C   C858      1.0  0.51767  0.71095  0.77283  1.0000
  C   C859      1.0  0.61045  0.68947  0.56251  1.0000
  C   C860      1.0  0.52167  0.97251  0.96920  1.0000
  H   H1525     1.0  0.57012  0.78385  0.52408  1.0000
  C   C861      1.0  0.77144  0.69786  0.57840  1.0000
  H   H1526     1.0  0.66973  0.69626  0.82535  1.0000
  H   H1527     1.0  0.86932  0.70277  0.58967  1.0000
  H   H1528     1.0  0.55095  0.00831  0.93624  1.0000
  Fe  Fe96      1.0  0.52194  0.68407  0.61567  1.0000
  H   H1529     1.0  0.70142  0.73693  0.00923  1.0000
  C   C862      1.0  0.62938  0.68730  0.79413  1.0000
  H   H1530     1.0  0.52777  0.93061  0.94640  1.0000
  C   C863      1.0  0.53483  0.89564  0.96123  1.0000
  H   H1531     1.0  0.70400  0.69531  0.59021  1.0000
  H   H1532     1.0  0.82361  0.68298  0.91060  1.0000
  C   C864      1.0  0.51970  0.84634  0.54925  1.0000
  H   H1533     1.0  0.51597  0.98837  0.61250  1.0000
  H   H1534     1.0  0.66324  0.95468  0.01275  1.0000
  H   H1535     1.0  0.56918  0.82448  0.51301  1.0000
  H   H1536     1.0  0.57914  0.97749  0.01085  1.0000
  S   S192      1.0  0.66800  0.83245  0.01285  1.0000
