data_image0
_chemical_formula_structural       H4SCFeS2FeS2FeSFeS3FeS2FeSHFeSFeS3HSH2FeSCHFeC4H3CH3C6FeH3C6H4CNH2CNCH2C2H3CHC5H2CH3C2H2C2H3NC11H16CH6NC12H28NC11H24CH5CHC2H2CH3C2HCH5CH2NH2C2HCSH4CH2CH3CHSCHCHC3H6CHCH3SH2CSH2C2H5CH3SH4CH3CH3CH3CHCH6CHCHCH4CH6SHSCHSCHSHCFeS2FeS2FeSFeS3FeS2FeS2FeSFeS3HC6H6CH4C2H2NHFeC5H3Fe2C2HCH4C6H3C6H2C2SHCHNC12H28NHC2HCHCHCH2C2H9NH2CH3NC5HC3H2CH16SHCH2CHCH7CH2C3HFeSH4CH2CHNC2HCH3C2H2C3HCH8NC8HCHCH16C2HCHSC2HCFeH2CH3CH5CH4CHC3H3SH6C3H5CH9CFeSCFeS2FeSFeSHSFeS3FeS2FeS2FeSFeS3HC2H3CH2C3H4NC3H2CHCH4C6H4C2HC4H2NC3NHCHC2HFeCH7CH2CH3CH4SHCHCHCH3FeH2C2H2C2HC2H2NC12H31CSHCHC4HC3H2SH2CH5C2H6CH3CH2CH2NC6HC3H2CH2C2H5CH2CH8C2HC2HSH2CFeH3C2H3SHSCHCHCH11CH4SHCH3CHCH4CH2CH2C2H4C2H3CH3CFeS2FeS2FeCFeCS2FeHSHS2FeS2FeS2FeSFeS3C2H2CNH2C6H3C2HC6H4C3H2CHNH2CHSCH3C4H2C6H9CH4SH2C2HCH2C2SHCH3C3H6CH4CH9SHFeHC2H6SHC2HCH4SH7CHCH2CHCH7CH3CH2CH6NHC3SHC4HCHNH3CH10CH2C3FeC2HCH3SCHCH9CHCH2CHCH5CNC12H16CH6FeCNHC2H4CFeHCH2CHC2H3FeCSHC3H3C3SHSH3SH3FeSHFeS2FeS2FeSFeS3FeSHFeS2FeSFeSHSC7H4C3H3C4H3C7H4C4H5C3H3SFeH2C4H5C2H5SHCH4CH5C2SH2C5H2C3HCHCNC2H3CH3CH8CHC2H7C2H4CH4NC12H29C3H6CH5CHCSC2HCHCH7C2H3N2C12H8SCH2FeH9FeCH7CH5C2H3FeSFeS2FeS2FeSFeS3FeS2FeSHFeSFeS3HFeHSCS3C7H3C6H4C6H4C2FeHCHCHCHCHCH3C6H4C6H4CNC5HC3HCHCH4CH2CH7NHCH13SHSH3CHCH2C2H3NH5CSH7NCHC6SHCH3CSH10C2H9CFeH3CH7CNC12H22CH5C2H2C2NH14CH4C3H5CH5C5H3C3H2CH11NC6HC2H3CHCHC2H2C3H7CH3CH3CHCH4CH2CH2SHFeS2FeS2FeHFeS3FeHS3FeS2FeS2FeSFeS3H3C3H2C7HCH2C6H4C3H7C2SC2HC2H2CSH4CH3SHNC2HC2HC2H2C3HC2H2CH5C2H2CHCH3CNC7HC2H16CH6NC12H29CH2SH3CHCH2CH5CH3CH2CHNHC3H6CH4CNCHCHCH2C3FeHCH2C2H2CFeH2C2HCH5CSH5FeH2C2H6C2HCHCH11NCH5SH6NHFeS2FeS2FeSFeCS2FeSHSFeS2FeSHFeSFeS3C2HC2H4C5H4C4H7C6H4C4HC2H3C4HCH5CHCFeH2CH2NHCH2C2HCH6CHCH2C2HCH3NC12H32CHCHC3H2CH2CH5CH5CHCH2CH3CH2CH2CHCH3CH2CHNHCHCH6C2H3C2H2CH6CSHCHCHC2HCHCH3C3H7S2C3H3CH3SCHCH2NH2CHC2H2C2H4C4H2C2SCH2FeSCH5NHCH3CHFeSHFeSHFeSFeS2HFeHSFeHSFeS2FeS2FeSFeS3CHC2HC6H3C3H2C6H4C2FeCHCH4C3HSH2SH2CHC2H3NC4HC2HC4H2CH3CH7CH2CH2CSH6NH3C3H6CH3NCH4NC12H28SHCSHCH2C2H2SCH5CH3CHFeCH10CHCH2C2HSCHCHC2HCH3NC3H4CH11CHCHCHC3H3C2HC2NHCH6FeH3CHCSH2CH5CH3CHCHCH2CH2C2HCH4SHCFeSHFeS2FeS2FeSFeCS3CFeSFeS2FeSHFeSFeS3HSH2C7HCH2C6H6C7H4CFeNC4H2SC6H4C2H2CH2CNH2C2H6CHSCH3CH4CH15C2NH2NC9HCH10CH6SH2SHCH4SHNC7H2C3H17C2H10NC10HCH27CNC12H21C2H3CSCHCH2C2H4FeH2CHSH2C3HSHCFeH5CH3SHCHCH3CH6CS3C2FeSHFeS2FeS2FeSFeS3FeS2FeS2FeSFeCS2H3C6H6C2H4CH2CHC6H4C2HCHCH2C6H3SHC3H4C5H4C3H3CHCH2CHNH6CH2CHCHCH11C2H2C2H2CHNC2HCHCHC2H8CFeCH3C2H3CH2CHCHCH12C3HCNHC3HC3H3C2H8NH4CH4CHCH6NC12H21SC3H3SH3CH7CSCH2C2HC2H3NH3C2HCH3FeHC2H6C2H4CH3CH4CSHFeS2FeS2FeHFeS3FeS2FeS2FeSFeS3CSHFeSHC4H4CHSC3HC2HC6H10C2HFeCHC7HC3HC4H4NHC10H4CH11NC4HC4HCH7C2H17CHCHSHNC12H28CHC2H10FeSH5CFeSH2C2H5CH3CHCH4CH5CH2CHCH6C2H3CHSH6SH3CHCNHCH2CH3CH3C4H3CNHC2H3C2H2C2H2C3H5CHC2H2FeSCFeS2FeSFeHS2FeS3FeS2FeS2FeSFeS3CH2C6H4CHCH2C3H4C8H4CH2C3HCH2CH2NH3CHCHNC3H6C2HCH3CNC11H25NC4HC2HCHC2HCH6CHCH8CH4CH4C2H4CH5CH2NH2CHCHC2HCH5CH4CH3FeCH2NC10HCH22CH5CHFeCH2SCH2C2H3CHC2H2SCH2CS2H5C3HCSH3C2HCH7CHCH3CHFeS2FeSHFeSFeS3FeHSHS2FeS2FeS2FeSFeS3C3HC5H4C2HCH2C6H5C4HCHC5H5CHCHCHC2HCHNC2HCH2CH2FeHCH2SH3C2HC2HCH4CH2CH3CH2C2H3FeH3CHSH2C2H3CNC12H30NHCFeCH5SHCH4NHC2HCH5NC9H2CH19C3H6NC5H2C3H6CHCHSH3CH5CHSH3CH3C2HCHSHC2HCH3CNH5FeS2FeS2FeSFeS3FeS2FeHSFeCFeS3CS2FeSHC2HCH3C6H3C7H4C2H4CHCH5CH2C4HC2H4FeHC4H6CHCH3C2HC2H4CHCH2C3NH3CH3CH2CHCHC3H14CH2SH3CH2CHCH3C5H10NHCHC2H2CH4CHC2H4CH8CH3C2H3CH5CHCNC5HSC2H6CH6CH7C2HNC2HC3NC4SH5CH12CHSC2H4CH4CH8CH2SH2CHCHSCH4FeSHFeS2FeS2FeS2FeSFeS3FeSCFeS2FeSFeS3C6H4CHCH3C3HC3H2C7SH3C4H2C4HCSH3C2HC2H9CNHC2HC3HNH4C2HCH4CH3C2H4CH2CNC11H4CH10CH7SH5CH3CH10CH5NC2H6CHSCH6FeNC12H28CH2CH4CH2NH2CH2FeH6SHCH2C2HCHC2HCH2CSCH2C2H3CH3C3HCH7CH2CH2FeH2C2HCH2C3H7C4H2CHNH4CH3C
_chemical_formula_sum              "H3072 S384 C1728 Fe192 N96"
_cell_length_a       81.5825
_cell_length_b       81.2888
_cell_length_c       32.6057
_cell_angle_alpha    88.5037
_cell_angle_beta     88.7488
_cell_angle_gamma    88.041

_space_group_name_H-M_alt    "P 1"
_space_group_IT_number       1

loop_
  _space_group_symop_operation_xyz
  'x, y, z'

loop_
  _atom_site_type_symbol
  _atom_site_label
  _atom_site_symmetry_multiplicity
  _atom_site_fract_x
  _atom_site_fract_y
  _atom_site_fract_z
  _atom_site_occupancy
  H   H1        1.0  0.07058  0.10916  0.09842  1.0000
  H   H2        1.0  0.15659  0.10184  0.29530  1.0000
  H   H3        1.0  0.00253  0.05981  0.53160  1.0000
  H   H4        1.0  0.10441  0.03269  0.72383  1.0000
  S   S1        1.0  0.22028  0.21800  0.33111  1.0000
  C   C1        1.0  0.16053  0.11450  0.28737  1.0000
  Fe  Fe1       1.0  0.04633  0.06201  0.65505  1.0000
  S   S2        1.0  0.02555  0.07996  0.63860  1.0000
  S   S3        1.0  0.04284  0.03736  0.68995  1.0000
  Fe  Fe2       1.0  0.07310  0.08545  0.62225  1.0000
  S   S4        1.0  0.05417  0.10489  0.60324  1.0000
  S   S5        1.0  0.10147  0.08557  0.62344  1.0000
  Fe  Fe3       1.0  0.04116  0.09968  0.66446  1.0000
  S   S6        1.0  0.03144  0.12213  0.70163  1.0000
  Fe  Fe4       1.0  0.03962  0.08407  0.57900  1.0000
  S   S7        1.0  0.03049  0.08212  0.51284  1.0000
  S   S8        1.0  0.06094  0.08150  0.68453  1.0000
  S   S9        1.0  0.05950  0.06490  0.59451  1.0000
  Fe  Fe5       1.0  0.20815  0.13984  0.57153  1.0000
  S   S10       1.0  0.19409  0.14587  0.51433  1.0000
  S   S11       1.0  0.20470  0.15689  0.62523  1.0000
  Fe  Fe6       1.0  0.22107  0.10633  0.54009  1.0000
  S   S12       1.0  0.20759  0.11014  0.48063  1.0000
  H   H5        1.0  0.00770  0.15770  0.81001  1.0000
  Fe  Fe7       1.0  0.21663  0.13625  0.48083  1.0000
  S   S13       1.0  0.22935  0.14787  0.42401  1.0000
  Fe  Fe8       1.0  0.18601  0.11957  0.51942  1.0000
  S   S14       1.0  0.15873  0.11527  0.50769  1.0000
  S   S15       1.0  0.23134  0.13178  0.53826  1.0000
  S   S16       1.0  0.19885  0.11417  0.57852  1.0000
  H   H6        1.0  0.02820  0.14859  0.06625  1.0000
  S   S17       1.0  0.01100  0.16213  0.98953  1.0000
  H   H7        1.0  0.03578  0.22426  0.92541  1.0000
  H   H8        1.0  0.17120  0.11745  0.34588  1.0000
  Fe  Fe9       1.0  0.01390  0.18920  0.97518  1.0000
  S   S18       1.0  0.03907  0.19897  0.99193  1.0000
  C   C2        1.0  0.08987  0.03746  0.66796  1.0000
  H   H9        1.0  0.03027  0.00884  0.55835  1.0000
  Fe  Fe10      1.0  0.00044  0.16068  0.92632  1.0000
  C   C3        1.0  0.04784  0.11044  0.13490  1.0000
  C   C4        1.0  0.06468  0.22009  0.99871  1.0000
  C   C5        1.0  0.05058  0.21659  0.97671  1.0000
  C   C6        1.0  0.04650  0.22677  0.94288  1.0000
  H   H10       1.0  0.15631  0.23408  0.00504  1.0000
  H   H11       1.0  0.09347  0.05004  0.65838  1.0000
  H   H12       1.0  0.06805  0.21233  0.02484  1.0000
  C   C7        1.0  0.04170  0.12743  0.11789  1.0000
  H   H13       1.0  0.02252  0.18862  0.11755  1.0000
  H   H14       1.0  0.16386  0.11512  0.25415  1.0000
  H   H15       1.0  0.07242  0.11846  0.14797  1.0000
  C   C8        1.0  0.01621  0.13450  0.83620  1.0000
  C   C9        1.0  0.02364  0.11908  0.82701  1.0000
  C   C10       1.0  0.02822  0.11499  0.78626  1.0000
  C   C11       1.0  0.02550  0.12632  0.75382  1.0000
  C   C12       1.0  0.01815  0.14181  0.76306  1.0000
  C   C13       1.0  0.01346  0.14585  0.80379  1.0000
  Fe  Fe11      1.0  0.23486  0.23299  0.28276  1.0000
  H   H16       1.0  0.03384  0.10306  0.77995  1.0000
  H   H17       1.0  0.01596  0.15071  0.73838  1.0000
  H   H18       1.0  0.17157  0.21992  0.98319  1.0000
  C   C14       1.0  0.11710  0.09368  0.59009  1.0000
  C   C15       1.0  0.13365  0.09141  0.60116  1.0000
  C   C16       1.0  0.14650  0.09784  0.57639  1.0000
  C   C17       1.0  0.14301  0.10671  0.54007  1.0000
  C   C18       1.0  0.12647  0.10887  0.52882  1.0000
  C   C19       1.0  0.11361  0.10246  0.55363  1.0000
  H   H19       1.0  0.13656  0.08466  0.62923  1.0000
  H   H20       1.0  0.15912  0.09591  0.58538  1.0000
  H   H21       1.0  0.12355  0.11559  0.50071  1.0000
  H   H22       1.0  0.10099  0.10433  0.54451  1.0000
  C   C20       1.0  0.01167  0.08723  0.48756  1.0000
  N   N1        1.0  0.24407  0.99579  0.54944  1.0000
  H   H23       1.0  0.00747  0.17912  0.08722  1.0000
  H   H24       1.0  0.14904  0.03365  0.66712  1.0000
  C   C21       1.0  0.01029  0.08344  0.44586  1.0000
  N   N2        1.0  0.02341  0.12997  0.11361  1.0000
  C   C22       1.0  0.21763  0.19607  0.78820  1.0000
  H   H25       1.0  0.02069  0.07780  0.42986  1.0000
  H   H26       1.0  0.15618  0.22974  0.95112  1.0000
  C   C23       1.0  0.04494  0.01652  0.67423  1.0000
  C   C24       1.0  0.04923  0.01237  0.63393  1.0000
  H   H27       1.0  0.03922  0.00675  0.73476  1.0000
  H   H28       1.0  0.05091  0.02204  0.61098  1.0000
  H   H29       1.0  0.06129  0.20625  0.85924  1.0000
  C   C25       1.0  0.22385  0.19889  0.35829  1.0000
  H   H30       1.0  0.04811  0.12988  0.08797  1.0000
  C   C26       1.0  0.06652  0.10860  0.13117  1.0000
  C   C27       1.0  0.22734  0.16794  0.40077  1.0000
  C   C28       1.0  0.21502  0.17936  0.41263  1.0000
  C   C29       1.0  0.21323  0.19466  0.39129  1.0000
  C   C30       1.0  0.99809  0.09461  0.50768  1.0000
  H   H31       1.0  0.12212  0.01791  0.67276  1.0000
  H   H32       1.0  0.20675  0.17634  0.43789  1.0000
  C   C31       1.0  0.18328  0.22603  0.26467  1.0000
  H   H33       1.0  0.20261  0.18566  0.67428  1.0000
  H   H34       1.0  0.18495  0.10906  0.30677  1.0000
  H   H35       1.0  0.09941  0.01585  0.58090  1.0000
  C   C32       1.0  0.21850  0.17290  0.63108  1.0000
  C   C33       1.0  0.23378  0.17282  0.61077  1.0000
  H   H36       1.0  0.15003  0.12322  0.29357  1.0000
  H   H37       1.0  0.02582  0.11013  0.85159  1.0000
  C   C34       1.0  0.22566  0.19772  0.66636  1.0000
  C   C35       1.0  0.21443  0.18548  0.65857  1.0000
  H   H38       1.0  0.23613  0.15352  0.73898  1.0000
  H   H39       1.0  0.02877  0.17893  0.07043  1.0000
  H   H40       1.0  0.22245  0.20726  0.68790  1.0000
  N   N3        1.0  0.19351  0.14299  0.33043  1.0000
  C   C36       1.0  0.18657  0.14427  0.37360  1.0000
  C   C37       1.0  0.20963  0.13318  0.33066  1.0000
  C   C38       1.0  0.19687  0.16030  0.31486  1.0000
  C   C39       1.0  0.18153  0.13581  0.30172  1.0000
  C   C40       1.0  0.17520  0.11853  0.31328  1.0000
  C   C41       1.0  0.17022  0.15440  0.37841  1.0000
  C   C42       1.0  0.20760  0.16180  0.27498  1.0000
  C   C43       1.0  0.21112  0.11815  0.36098  1.0000
  C   C44       1.0  0.05639  0.24018  0.93138  1.0000
  C   C45       1.0  0.16450  0.15465  0.42330  1.0000
  C   C46       1.0  0.20752  0.17956  0.25827  1.0000
  H   H41       1.0  0.19572  0.14980  0.39355  1.0000
  H   H42       1.0  0.18442  0.13197  0.38783  1.0000
  H   H43       1.0  0.21285  0.12889  0.29925  1.0000
  H   H44       1.0  0.21974  0.14124  0.33926  1.0000
  H   H45       1.0  0.20314  0.16722  0.33862  1.0000
  H   H46       1.0  0.18518  0.16734  0.30902  1.0000
  H   H47       1.0  0.17072  0.14439  0.29758  1.0000
  H   H48       1.0  0.18708  0.13470  0.27048  1.0000
  H   H49       1.0  0.17165  0.16739  0.36807  1.0000
  H   H50       1.0  0.16039  0.14895  0.36071  1.0000
  H   H51       1.0  0.20321  0.15402  0.25039  1.0000
  H   H52       1.0  0.22054  0.15803  0.28122  1.0000
  H   H53       1.0  0.21082  0.12233  0.39306  1.0000
  H   H54       1.0  0.20112  0.10948  0.35827  1.0000
  H   H55       1.0  0.00178  0.03664  0.48150  1.0000
  H   H56       1.0  0.24129  0.00329  0.48556  1.0000
  C   C47       1.0  0.01630  0.11765  0.08563  1.0000
  H   H57       1.0  0.17364  0.16069  0.44213  1.0000
  H   H58       1.0  0.15264  0.16169  0.42594  1.0000
  H   H59       1.0  0.16270  0.14194  0.43559  1.0000
  H   H60       1.0  0.21191  0.18795  0.28165  1.0000
  H   H61       1.0  0.21581  0.18043  0.23088  1.0000
  H   H62       1.0  0.19497  0.18371  0.24919  1.0000
  N   N4        1.0  0.14153  0.14379  0.63612  1.0000
  C   C48       1.0  0.12432  0.13820  0.62951  1.0000
  C   C49       1.0  0.14990  0.14770  0.59523  1.0000
  C   C50       1.0  0.15098  0.12964  0.65656  1.0000
  C   C51       1.0  0.14185  0.15829  0.66401  1.0000
  C   C52       1.0  0.13160  0.17384  0.65105  1.0000
  C   C53       1.0  0.11466  0.13214  0.66823  1.0000
  C   C54       1.0  0.16966  0.13195  0.66151  1.0000
  C   C55       1.0  0.13896  0.15507  0.56041  1.0000
  C   C56       1.0  0.14934  0.16184  0.52474  1.0000
  C   C57       1.0  0.13157  0.18675  0.68432  1.0000
  C   C58       1.0  0.09659  0.12990  0.65882  1.0000
  C   C59       1.0  0.17801  0.11634  0.67944  1.0000
  H   H63       1.0  0.12472  0.12790  0.60760  1.0000
  H   H64       1.0  0.11663  0.14800  0.61446  1.0000
  H   H65       1.0  0.16027  0.15605  0.59943  1.0000
  H   H66       1.0  0.15567  0.13631  0.58205  1.0000
  H   H67       1.0  0.14956  0.11821  0.63918  1.0000
  H   H68       1.0  0.14593  0.12699  0.68792  1.0000
  H   H69       1.0  0.13807  0.15462  0.69584  1.0000
  H   H70       1.0  0.15463  0.16246  0.66664  1.0000
  H   H71       1.0  0.11864  0.17103  0.64566  1.0000
  H   H72       1.0  0.13710  0.17956  0.62297  1.0000
  H   H73       1.0  0.11977  0.11998  0.67907  1.0000
  H   H74       1.0  0.11512  0.14097  0.69344  1.0000
  H   H75       1.0  0.17193  0.14210  0.68252  1.0000
  H   H76       1.0  0.17582  0.13474  0.63165  1.0000
  H   H77       1.0  0.13134  0.14528  0.54826  1.0000
  H   H78       1.0  0.13057  0.16512  0.57088  1.0000
  H   H79       1.0  0.14121  0.16673  0.50009  1.0000
  H   H80       1.0  0.15702  0.17193  0.53494  1.0000
  H   H81       1.0  0.15741  0.15189  0.51198  1.0000
  H   H82       1.0  0.12443  0.19792  0.67397  1.0000
  H   H83       1.0  0.12581  0.18194  0.71319  1.0000
  H   H84       1.0  0.14429  0.19035  0.69047  1.0000
  H   H85       1.0  0.09042  0.14194  0.65107  1.0000
  H   H86       1.0  0.09539  0.12154  0.63272  1.0000
  H   H87       1.0  0.09020  0.12439  0.68603  1.0000
  H   H88       1.0  0.19135  0.11830  0.68222  1.0000
  H   H89       1.0  0.17281  0.11330  0.71037  1.0000
  H   H90       1.0  0.17647  0.10580  0.65898  1.0000
  N   N5        1.0  0.05949  0.17007  0.86556  1.0000
  C   C60       1.0  0.06832  0.16427  0.82708  1.0000
  C   C61       1.0  0.06973  0.18256  0.88589  1.0000
  C   C62       1.0  0.05826  0.15531  0.89457  1.0000
  C   C63       1.0  0.04241  0.17712  0.85766  1.0000
  C   C64       1.0  0.03959  0.18596  0.81537  1.0000
  C   C65       1.0  0.06089  0.14916  0.80698  1.0000
  C   C66       1.0  0.05199  0.15884  0.93880  1.0000
  C   C67       1.0  0.07289  0.19875  0.86139  1.0000
  C   C68       1.0  0.02317  0.19554  0.81463  1.0000
  C   C69       1.0  0.06685  0.14726  0.76254  1.0000
  C   C70       1.0  0.04875  0.14284  0.96290  1.0000
  H   H91       1.0  0.08134  0.16080  0.83381  1.0000
  H   H92       1.0  0.06908  0.17428  0.80349  1.0000
  H   H93       1.0  0.06369  0.18674  0.91495  1.0000
  H   H94       1.0  0.08180  0.17679  0.89458  1.0000
  H   H95       1.0  0.07043  0.14874  0.89723  1.0000
  H   H96       1.0  0.04980  0.14622  0.88225  1.0000
  H   H97       1.0  0.03317  0.16732  0.86007  1.0000
  H   H98       1.0  0.03867  0.18587  0.88217  1.0000
  H   H99       1.0  0.03945  0.17681  0.79072  1.0000
  H   H100      1.0  0.08032  0.00755  0.66391  1.0000
  H   H101      1.0  0.06451  0.13768  0.82425  1.0000
  H   H102      1.0  0.04733  0.15014  0.80739  1.0000
  H   H103      1.0  0.04050  0.16653  0.93822  1.0000
  H   H104      1.0  0.06130  0.16535  0.95598  1.0000
  H   H105      1.0  0.07796  0.19648  0.83020  1.0000
  H   H106      1.0  0.01296  0.18716  0.82130  1.0000
  H   H107      1.0  0.21955  0.23858  0.03636  1.0000
  H   H108      1.0  0.02287  0.20542  0.83760  1.0000
  H   H109      1.0  0.06253  0.15795  0.74330  1.0000
  H   H110      1.0  0.08044  0.14611  0.76072  1.0000
  H   H111      1.0  0.06175  0.13597  0.74995  1.0000
  H   H112      1.0  0.03855  0.13629  0.94917  1.0000
  H   H113      1.0  0.05992  0.13465  0.96318  1.0000
  H   H114      1.0  0.04527  0.14573  0.99508  1.0000
  C   C71       1.0  0.07447  0.23360  0.98750  1.0000
  H   H115      1.0  0.08632  0.22121  0.86695  1.0000
  H   H116      1.0  0.08018  0.02447  0.59794  1.0000
  H   H117      1.0  0.12352  0.01969  0.61874  1.0000
  H   H118      1.0  0.03684  0.11426  0.04114  1.0000
  H   H119      1.0  0.22452  0.17042  0.79260  1.0000
  C   C72       1.0  0.16423  0.23148  0.97761  1.0000
  H   H120      1.0  0.18854  0.21613  0.28505  1.0000
  C   C73       1.0  0.01469  0.12941  0.15508  1.0000
  C   C74       1.0  0.23693  0.01197  0.56485  1.0000
  H   H121      1.0  0.09863  0.00570  0.69199  1.0000
  H   H122      1.0  0.02134  0.20133  0.78376  1.0000
  C   C75       1.0  0.23628  0.18755  0.34676  1.0000
  H   H123      1.0  0.20445  0.19351  0.79347  1.0000
  H   H124      1.0  0.09741  0.20278  0.88396  1.0000
  H   H125      1.0  0.09217  0.06198  0.72541  1.0000
  C   C76       1.0  0.12452  0.04280  0.65078  1.0000
  C   C77       1.0  0.08514  0.20913  0.88328  1.0000
  H   H126      1.0  0.11155  0.04229  0.57019  1.0000
  C   C78       1.0  0.24115  0.19730  0.64715  1.0000
  H   H127      1.0  0.08520  0.23608  0.00494  1.0000
  H   H128      1.0  0.12172  0.04745  0.68194  1.0000
  H   H129      1.0  0.17067  0.22270  0.25665  1.0000
  H   H130      1.0  0.09528  0.03213  0.51410  1.0000
  H   H131      1.0  0.07065  0.09650  0.14460  1.0000
  C   C79       1.0  0.22667  0.18088  0.77115  1.0000
  H   H132      1.0  0.00841  0.00699  0.56240  1.0000
  H   H133      1.0  0.04926  0.19473  0.80720  1.0000
  N   N6        1.0  0.09903  0.02444  0.64340  1.0000
  H   H134      1.0  0.16960  0.23792  0.83906  1.0000
  H   H135      1.0  0.09370  0.05298  0.59153  1.0000
  C   C80       1.0  0.21531  0.03520  0.55894  1.0000
  C   C81       1.0  0.99568  0.08711  0.42445  1.0000
  H   H136      1.0  0.01506  0.16203  0.14884  1.0000
  C   C82       1.0  0.09369  0.02590  0.59934  1.0000
  S   S19       1.0  0.00437  0.18738  0.91149  1.0000
  H   H137      1.0  0.03625  0.16170  0.13212  1.0000
  H   H138      1.0  0.07217  0.05308  0.73300  1.0000
  H   H139      1.0  0.07652  0.03738  0.66154  1.0000
  H   H140      1.0  0.20353  0.20329  0.40047  1.0000
  C   C83       1.0  0.09391  0.00784  0.66045  1.0000
  H   H141      1.0  0.14659  0.03869  0.61300  1.0000
  H   H142      1.0  0.21842  0.20663  0.76599  1.0000
  C   C84       1.0  0.09807  0.04186  0.57527  1.0000
  H   H143      1.0  0.02228  0.13505  0.17862  1.0000
  H   H144      1.0  0.08089  0.21147  0.91526  1.0000
  H   H145      1.0  0.99889  0.09760  0.53970  1.0000
  C   C85       1.0  0.02343  0.16186  0.12154  1.0000
  H   H146      1.0  0.04649  0.13661  0.13887  1.0000
  S   S20       1.0  0.01090  0.13888  0.88864  1.0000
  C   C86       1.0  0.08556  0.05105  0.73723  1.0000
  H   H147      1.0  0.21523  0.01275  0.52536  1.0000
  C   C87       1.0  0.02036  0.17807  0.09761  1.0000
  H   H148      1.0  0.00751  0.14824  0.08388  1.0000
  C   C88       1.0  0.14315  0.04239  0.64470  1.0000
  C   C89       1.0  0.02037  0.14690  0.09430  1.0000
  C   C90       1.0  0.22443  0.02123  0.53655  1.0000
  H   H149      1.0  0.00307  0.13704  0.15403  1.0000
  H   H150      1.0  0.01473  0.11548  0.23640  1.0000
  H   H151      1.0  0.08388  0.02533  0.72715  1.0000
  H   H152      1.0  0.19371  0.23695  0.00982  1.0000
  H   H153      1.0  0.23061  0.01008  0.59513  1.0000
  H   H154      1.0  0.19104  0.22677  0.23629  1.0000
  C   C91       1.0  0.04258  0.00371  0.70350  1.0000
  H   H155      1.0  0.23093  0.02691  0.50970  1.0000
  C   C92       1.0  0.02348  0.11728  0.04120  1.0000
  H   H156      1.0  0.20700  0.04202  0.53743  1.0000
  H   H157      1.0  0.09339  0.05426  0.51676  1.0000
  H   H158      1.0  0.04457  0.10926  0.16804  1.0000
  S   S21       1.0  0.23049  0.23353  0.21433  1.0000
  H   H159      1.0  0.22286  0.19956  0.81779  1.0000
  H   H160      1.0  0.22081  0.17811  0.74185  1.0000
  C   C93       1.0  0.22740  0.10861  0.35456  1.0000
  S   S22       1.0  0.20160  0.23827  0.80088  1.0000
  H   H161      1.0  0.22410  0.04403  0.57059  1.0000
  H   H162      1.0  0.20783  0.03027  0.58504  1.0000
  C   C94       1.0  0.09153  0.03555  0.71526  1.0000
  C   C95       1.0  0.09040  0.04248  0.53285  1.0000
  H   H163      1.0  0.14784  0.05486  0.64939  1.0000
  H   H164      1.0  0.07684  0.04185  0.53549  1.0000
  H   H165      1.0  0.11935  0.05202  0.62872  1.0000
  H   H166      1.0  0.08773  0.04951  0.77063  1.0000
  H   H167      1.0  0.04267  0.10017  0.11825  1.0000
  C   C96       1.0  0.11747  0.02540  0.64610  1.0000
  H   H168      1.0  0.21291  0.23513  0.96176  1.0000
  H   H169      1.0  0.23130  0.23883  0.10567  1.0000
  H   H170      1.0  0.02132  0.12925  0.02491  1.0000
  S   S23       1.0  0.23570  0.08361  0.56506  1.0000
  H   H171      1.0  0.22828  0.10357  0.32323  1.0000
  H   H172      1.0  0.23703  0.16322  0.58942  1.0000
  H   H173      1.0  0.99502  0.08458  0.39221  1.0000
  H   H174      1.0  0.01876  0.00661  0.51254  1.0000
  C   C97       1.0  0.23792  0.17215  0.36768  1.0000
  H   H175      1.0  0.01886  0.10257  0.16896  1.0000
  H   H176      1.0  0.16873  0.24095  0.12324  1.0000
  H   H177      1.0  0.01136  0.04073  0.55103  1.0000
  C   C98       1.0  0.05148  0.99566  0.62343  1.0000
  H   H178      1.0  0.22831  0.09821  0.37729  1.0000
  H   H179      1.0  0.23568  0.23508  0.91002  1.0000
  H   H180      1.0  0.01761  0.10491  0.09834  1.0000
  C   C99       1.0  0.99974  0.04705  0.54138  1.0000
  H   H181      1.0  0.17566  0.24098  0.31555  1.0000
  H   H182      1.0  0.24226  0.16604  0.69692  1.0000
  H   H183      1.0  0.23588  0.12839  0.69786  1.0000
  C   C100      1.0  0.18300  0.24242  0.28672  1.0000
  H   H184      1.0  0.24216  0.14380  0.79949  1.0000
  C   C101      1.0  0.01965  0.00275  0.54537  1.0000
  H   H185      1.0  0.24114  0.14092  0.65320  1.0000
  H   H186      1.0  0.23786  0.11675  0.35917  1.0000
  H   H187      1.0  0.00839  0.04497  0.34880  1.0000
  H   H188      1.0  0.00031  0.04948  0.42089  1.0000
  H   H189      1.0  0.20410  0.24215  0.07526  1.0000
  H   H190      1.0  0.24310  0.16081  0.83415  1.0000
  C   C102      1.0  0.00920  0.11234  0.17195  1.0000
  H   H191      1.0  0.00282  0.12008  0.08346  1.0000
  C   C103      1.0  0.00403  0.11305  0.21723  1.0000
  H   H192      1.0  0.01742  0.09184  0.03000  1.0000
  C   C104      1.0  0.01527  0.10434  0.01619  1.0000
  H   H193      1.0  0.99441  0.12284  0.22210  1.0000
  H   H194      1.0  0.02045  0.10450  0.98436  1.0000
  H   H195      1.0  0.99849  0.10843  0.15466  1.0000
  H   H196      1.0  0.00185  0.10707  0.01459  1.0000
  C   C105      1.0  0.99533  0.04783  0.35691  1.0000
  H   H197      1.0  0.99891  0.10109  0.22743  1.0000
  H   H198      1.0  0.99490  0.02938  0.40435  1.0000
  H   H199      1.0  0.18274  0.24283  0.94004  1.0000
  H   H200      1.0  0.15327  0.25892  0.87808  1.0000
  H   H201      1.0  0.15715  0.27089  0.19673  1.0000
  H   H202      1.0  0.11762  0.44282  0.60326  1.0000
  S   S24       1.0  0.22918  0.26028  0.28856  1.0000
  H   H203      1.0  0.22352  0.25959  0.11248  1.0000
  S   S25       1.0  0.20821  0.27760  0.18455  1.0000
  C   C106      1.0  0.20967  0.47041  0.64629  1.0000
  H   H204      1.0  0.12878  0.47025  0.98457  1.0000
  S   S26       1.0  0.15165  0.48073  0.51284  1.0000
  C   C107      1.0  0.10350  0.48851  0.49980  1.0000
  H   H205      1.0  0.20989  0.27051  0.82910  1.0000
  S   S27       1.0  0.19818  0.46527  0.47970  1.0000
  H   H206      1.0  0.23203  0.31928  0.60966  1.0000
  C   C108      1.0  0.18963  0.32726  0.63899  1.0000
  Fe  Fe12      1.0  0.07405  0.41806  0.87220  1.0000
  S   S28       1.0  0.08834  0.44116  0.87963  1.0000
  S   S29       1.0  0.08626  0.39201  0.87120  1.0000
  Fe  Fe13      1.0  0.04125  0.43784  0.85940  1.0000
  S   S30       1.0  0.05337  0.46214  0.86588  1.0000
  S   S31       1.0  0.01331  0.43428  0.86408  1.0000
  Fe  Fe14      1.0  0.07410  0.45156  0.82543  1.0000
  S   S32       1.0  0.08470  0.46943  0.77564  1.0000
  Fe  Fe15      1.0  0.06693  0.45041  0.91895  1.0000
  S   S33       1.0  0.06691  0.45965  0.98515  1.0000
  S   S34       1.0  0.06087  0.42794  0.81565  1.0000
  S   S35       1.0  0.05381  0.42653  0.91483  1.0000
  Fe  Fe16      1.0  0.13885  0.28732  0.93990  1.0000
  S   S36       1.0  0.14049  0.30038  0.99939  1.0000
  S   S37       1.0  0.16068  0.29257  0.89828  1.0000
  Fe  Fe17      1.0  0.10524  0.27267  0.96371  1.0000
  S   S38       1.0  0.10544  0.28450  0.02543  1.0000
  S   S39       1.0  0.08257  0.26075  0.93704  1.0000
  Fe  Fe18      1.0  0.11378  0.30736  0.99047  1.0000
  S   S40       1.0  0.10165  0.33293  0.00113  1.0000
  Fe  Fe19      1.0  0.13235  0.27653  0.02772  1.0000
  S   S41       1.0  0.14603  0.26172  0.07809  1.0000
  S   S42       1.0  0.11281  0.29585  0.92911  1.0000
  S   S43       1.0  0.13153  0.26312  0.96801  1.0000
  H   H207      1.0  0.17746  0.28784  0.22430  1.0000
  C   C109      1.0  0.08983  0.37549  0.90760  1.0000
  C   C110      1.0  0.08331  0.37568  0.94762  1.0000
  C   C111      1.0  0.08696  0.36256  0.97571  1.0000
  C   C112      1.0  0.09704  0.34896  0.96411  1.0000
  C   C113      1.0  0.10330  0.34861  0.92382  1.0000
  C   C114      1.0  0.09971  0.36177  0.89585  1.0000
  H   H208      1.0  0.07536  0.38590  0.95673  1.0000
  H   H209      1.0  0.08192  0.36295  0.00665  1.0000
  H   H210      1.0  0.11119  0.33837  0.91447  1.0000
  H   H211      1.0  0.10483  0.36144  0.86499  1.0000
  H   H212      1.0  0.16369  0.29739  0.25890  1.0000
  H   H213      1.0  0.18149  0.29458  0.34604  1.0000
  C   C115      1.0  0.14865  0.28600  0.32356  1.0000
  H   H214      1.0  0.05038  0.36562  0.92157  1.0000
  H   H215      1.0  0.00986  0.44362  0.77653  1.0000
  H   H216      1.0  0.18725  0.29801  0.13345  1.0000
  H   H217      1.0  0.20448  0.29660  0.97042  1.0000
  C   C116      1.0  0.17542  0.24584  0.96811  1.0000
  C   C117      1.0  0.07074  0.47887  0.00778  1.0000
  H   H218      1.0  0.21654  0.27274  0.95786  1.0000
  H   H219      1.0  0.17414  0.25477  0.67192  1.0000
  N   N7        1.0  0.17253  0.27299  0.27899  1.0000
  H   H220      1.0  0.16585  0.26623  0.34158  1.0000
  Fe  Fe20      1.0  0.22654  0.26082  0.21969  1.0000
  C   C118      1.0  0.12447  0.47154  0.67078  1.0000
  C   C119      1.0  0.12121  0.45652  0.69159  1.0000
  C   C120      1.0  0.10933  0.45562  0.72388  1.0000
  C   C121      1.0  0.10036  0.46976  0.73591  1.0000
  C   C122      1.0  0.17589  0.25661  0.25890  1.0000
  H   H221      1.0  0.09402  0.31839  0.80734  1.0000
  H   H222      1.0  0.12787  0.44543  0.68247  1.0000
  H   H223      1.0  0.10701  0.44394  0.73921  1.0000
  Fe  Fe21      1.0  0.24045  0.26844  0.70267  1.0000
  Fe  Fe22      1.0  0.22490  0.24538  0.76684  1.0000
  C   C123      1.0  0.21115  0.44871  0.49855  1.0000
  C   C124      1.0  0.22294  0.44144  0.47180  1.0000
  H   H224      1.0  0.14672  0.28068  0.38940  1.0000
  C   C125      1.0  0.21019  0.44275  0.53917  1.0000
  H   H225      1.0  0.22378  0.44586  0.44027  1.0000
  H   H226      1.0  0.02079  0.28152  0.84754  1.0000
  H   H227      1.0  0.20106  0.44799  0.56002  1.0000
  H   H228      1.0  0.09952  0.43704  0.63188  1.0000
  C   C126      1.0  0.16413  0.26629  0.10449  1.0000
  C   C127      1.0  0.16966  0.28233  0.10697  1.0000
  C   C128      1.0  0.18340  0.28548  0.13080  1.0000
  C   C129      1.0  0.19195  0.27265  0.15191  1.0000
  C   C130      1.0  0.18680  0.25652  0.14815  1.0000
  C   C131      1.0  0.17287  0.25341  0.12500  1.0000
  H   H229      1.0  0.16303  0.29237  0.09159  1.0000
  H   H230      1.0  0.23280  0.34370  0.47294  1.0000
  H   H231      1.0  0.21494  0.47535  0.56390  1.0000
  C   C132      1.0  0.19074  0.25295  0.83066  1.0000
  C   C133      1.0  0.19757  0.26795  0.83957  1.0000
  C   C134      1.0  0.18837  0.27972  0.86187  1.0000
  C   C135      1.0  0.17232  0.27661  0.87525  1.0000
  C   C136      1.0  0.16566  0.26140  0.86776  1.0000
  C   C137      1.0  0.13855  0.28285  0.36284  1.0000
  H   H232      1.0  0.19365  0.29136  0.86849  1.0000
  H   H233      1.0  0.15435  0.30094  0.17677  1.0000
  C   C138      1.0  0.22101  0.42990  0.55285  1.0000
  C   C139      1.0  0.21958  0.24661  0.95568  1.0000
  S   S44       1.0  0.23336  0.29009  0.66098  1.0000
  H   H234      1.0  0.99689  0.38638  0.74611  1.0000
  C   C140      1.0  0.10227  0.46654  0.55215  1.0000
  H   H235      1.0  0.24260  0.42303  0.46432  1.0000
  N   N8        1.0  0.10791  0.42335  0.00196  1.0000
  C   C141      1.0  0.11218  0.44023  0.98517  1.0000
  C   C142      1.0  0.11118  0.41031  0.96997  1.0000
  C   C143      1.0  0.08969  0.42385  0.01156  1.0000
  C   C144      1.0  0.11679  0.41890  0.04096  1.0000
  C   C145      1.0  0.13574  0.41897  0.03819  1.0000
  C   C146      1.0  0.11100  0.45455  0.01591  1.0000
  C   C147      1.0  0.08269  0.40790  0.03120  1.0000
  C   C148      1.0  0.12597  0.41271  0.93982  1.0000
  C   C149      1.0  0.13013  0.39713  0.91594  1.0000
  C   C150      1.0  0.14314  0.41731  0.08082  1.0000
  C   C151      1.0  0.15262  0.27996  0.21959  1.0000
  C   C152      1.0  0.06396  0.40828  0.03008  1.0000
  H   H236      1.0  0.10418  0.44369  0.95883  1.0000
  H   H237      1.0  0.12486  0.44038  0.97248  1.0000
  H   H238      1.0  0.11270  0.39791  0.98501  1.0000
  H   H239      1.0  0.10039  0.40932  0.94975  1.0000
  H   H240      1.0  0.08277  0.42701  0.98309  1.0000
  H   H241      1.0  0.08623  0.43370  0.03333  1.0000
  H   H242      1.0  0.11238  0.42708  0.06609  1.0000
  H   H243      1.0  0.11377  0.40626  0.05191  1.0000
  H   H244      1.0  0.14022  0.43046  0.02355  1.0000
  H   H245      1.0  0.14044  0.40828  0.02042  1.0000
  H   H246      1.0  0.09844  0.45641  0.02879  1.0000
  H   H247      1.0  0.11947  0.45226  0.04175  1.0000
  H   H248      1.0  0.08620  0.40670  0.06390  1.0000
  H   H249      1.0  0.08737  0.39675  0.01546  1.0000
  H   H250      1.0  0.12290  0.42274  0.91711  1.0000
  H   H251      1.0  0.13718  0.41604  0.95568  1.0000
  H   H252      1.0  0.14093  0.39919  0.89538  1.0000
  H   H253      1.0  0.13304  0.38656  0.93714  1.0000
  H   H254      1.0  0.11971  0.39403  0.89663  1.0000
  H   H255      1.0  0.13924  0.42798  0.09974  1.0000
  H   H256      1.0  0.13931  0.40575  0.09663  1.0000
  H   H257      1.0  0.15674  0.41698  0.07795  1.0000
  H   H258      1.0  0.04752  0.35575  0.87370  1.0000
  H   H259      1.0  0.23912  0.25526  0.07361  1.0000
  H   H260      1.0  0.99803  0.38575  0.80166  1.0000
  H   H261      1.0  0.05924  0.39703  0.04566  1.0000
  H   H262      1.0  0.05873  0.41927  0.04595  1.0000
  H   H263      1.0  0.05978  0.40864  0.99787  1.0000
  N   N9        1.0  0.19805  0.26305  0.99962  1.0000
  H   H264      1.0  0.09863  0.30149  0.84258  1.0000
  C   C153      1.0  0.22336  0.48267  0.58210  1.0000
  C   C154      1.0  0.18732  0.27860  0.99698  1.0000
  H   H265      1.0  0.11878  0.49208  0.57252  1.0000
  C   C155      1.0  0.19633  0.29514  0.99783  1.0000
  H   H266      1.0  0.21472  0.32189  0.73165  1.0000
  C   C156      1.0  0.06680  0.48094  0.04967  1.0000
  H   H267      1.0  0.19346  0.33888  0.65261  1.0000
  C   C157      1.0  0.18409  0.30979  0.99765  1.0000
  H   H268      1.0  0.16741  0.25679  0.96135  1.0000
  H   H269      1.0  0.18462  0.25812  0.23253  1.0000
  C   C158      1.0  0.15980  0.27077  0.31291  1.0000
  C   C159      1.0  0.17653  0.27645  0.70848  1.0000
  H   H270      1.0  0.17795  0.27866  0.02239  1.0000
  H   H271      1.0  0.18027  0.27914  0.96817  1.0000
  H   H272      1.0  0.05298  0.31012  0.04241  1.0000
  H   H273      1.0  0.21365  0.30097  0.29818  1.0000
  H   H274      1.0  0.20377  0.29599  0.02571  1.0000
  H   H275      1.0  0.20206  0.27100  0.06155  1.0000
  H   H276      1.0  0.09899  0.46685  0.61969  1.0000
  H   H277      1.0  0.00971  0.27352  0.89171  1.0000
  H   H278      1.0  0.23348  0.25713  0.90374  1.0000
  N   N10       1.0  0.23872  0.48622  0.55709  1.0000
  H   H279      1.0  0.11594  0.46513  0.55068  1.0000
  H   H280      1.0  0.13039  0.29377  0.36913  1.0000
  C   C160      1.0  0.23277  0.42259  0.52606  1.0000
  H   H281      1.0  0.17653  0.30988  0.96970  1.0000
  H   H282      1.0  0.17591  0.30927  0.02532  1.0000
  H   H283      1.0  0.19078  0.32145  0.99782  1.0000
  N   N11       1.0  0.18447  0.30301  0.74423  1.0000
  C   C161      1.0  0.18980  0.28601  0.73044  1.0000
  C   C162      1.0  0.19722  0.30925  0.77237  1.0000
  C   C163      1.0  0.16870  0.30136  0.76913  1.0000
  C   C164      1.0  0.18139  0.31506  0.70882  1.0000
  C   C165      1.0  0.19215  0.31279  0.66930  1.0000
  H   H284      1.0  0.19318  0.26931  0.31941  1.0000
  C   C166      1.0  0.16243  0.31689  0.79224  1.0000
  C   C167      1.0  0.21469  0.31137  0.75403  1.0000
  C   C168      1.0  0.22793  0.25059  0.08934  1.0000
  H   H285      1.0  0.09764  0.45819  0.52901  1.0000
  H   H286      1.0  0.05319  0.24781  0.90494  1.0000
  C   C169      1.0  0.14447  0.31550  0.80603  1.0000
  H   H287      1.0  0.19375  0.27818  0.75724  1.0000
  H   H288      1.0  0.20084  0.28637  0.71001  1.0000
  H   H289      1.0  0.19344  0.32155  0.78411  1.0000
  H   H290      1.0  0.19827  0.30090  0.79976  1.0000
  H   H291      1.0  0.16998  0.29115  0.79249  1.0000
  H   H292      1.0  0.15858  0.29787  0.74909  1.0000
  H   H293      1.0  0.16845  0.31463  0.69868  1.0000
  H   H294      1.0  0.18274  0.32791  0.71902  1.0000
  H   H295      1.0  0.18894  0.30145  0.65349  1.0000
  H   H296      1.0  0.20534  0.31174  0.67590  1.0000
  H   H297      1.0  0.18338  0.30523  0.29669  1.0000
  H   H298      1.0  0.17020  0.28436  0.68508  1.0000
  H   H299      1.0  0.16344  0.32819  0.77268  1.0000
  H   H300      1.0  0.16973  0.31829  0.82027  1.0000
  H   H301      1.0  0.21943  0.30011  0.73899  1.0000
  H   H302      1.0  0.24267  0.25326  0.54323  1.0000
  S   S45       1.0  0.22541  0.24599  0.69794  1.0000
  H   H303      1.0  0.15126  0.26093  0.30527  1.0000
  C   C170      1.0  0.18857  0.27830  0.29576  1.0000
  H   H304      1.0  0.02968  0.28432  0.93823  1.0000
  H   H305      1.0  0.03172  0.35499  0.91370  1.0000
  C   C171      1.0  0.10367  0.48479  0.71520  1.0000
  H   H306      1.0  0.13989  0.28882  0.29856  1.0000
  C   C172      1.0  0.20830  0.26215  0.96062  1.0000
  H   H307      1.0  0.21193  0.46381  0.67599  1.0000
  H   H308      1.0  0.13639  0.31552  0.77907  1.0000
  H   H309      1.0  0.14272  0.30402  0.82462  1.0000
  H   H310      1.0  0.14075  0.32614  0.82526  1.0000
  H   H311      1.0  0.19343  0.26473  0.66446  1.0000
  H   H312      1.0  0.10099  0.43344  0.57750  1.0000
  H   H313      1.0  0.11385  0.48101  0.01661  1.0000
  C   C173      1.0  0.23363  0.42845  0.48534  1.0000
  H   H314      1.0  0.06148  0.47091  0.06723  1.0000
  H   H315      1.0  0.22761  0.30485  0.81039  1.0000
  C   C174      1.0  0.20875  0.26412  0.03682  1.0000
  C   C175      1.0  0.09282  0.31402  0.83979  1.0000
  C   C176      1.0  0.11570  0.47079  0.99482  1.0000
  H   H316      1.0  0.20034  0.26346  0.93338  1.0000
  Fe  Fe23      1.0  0.15232  0.48784  0.57956  1.0000
  S   S46       1.0  0.13881  0.47154  0.62808  1.0000
  H   H317      1.0  0.08269  0.45754  0.59307  1.0000
  H   H318      1.0  0.20576  0.31178  0.34230  1.0000
  H   H319      1.0  0.19586  0.24471  0.29462  1.0000
  H   H320      1.0  0.08399  0.47679  0.46581  1.0000
  C   C177      1.0  0.14491  0.29459  0.19578  1.0000
  H   H321      1.0  0.22016  0.42548  0.58438  1.0000
  H   H322      1.0  0.02995  0.26530  0.87958  1.0000
  C   C178      1.0  0.99779  0.44177  0.78989  1.0000
  H   H323      1.0  0.23917  0.31674  0.77326  1.0000
  N   N12       1.0  0.09709  0.48423  0.54252  1.0000
  C   C179      1.0  0.02206  0.27671  0.87956  1.0000
  C   C180      1.0  0.10407  0.44204  0.60187  1.0000
  H   H324      1.0  0.16719  0.27209  0.73121  1.0000
  C   C181      1.0  0.06475  0.30418  0.03196  1.0000
  H   H325      1.0  0.21184  0.29031  0.34742  1.0000
  H   H326      1.0  0.21978  0.27137  0.02894  1.0000
  H   H327      1.0  0.09943  0.32255  0.85915  1.0000
  C   C182      1.0  0.11566  0.48572  0.68318  1.0000
  C   C183      1.0  0.09615  0.45909  0.59364  1.0000
  H   H328      1.0  0.15572  0.29717  0.32781  1.0000
  H   H329      1.0  0.10329  0.46522  0.46652  1.0000
  C   C184      1.0  0.09752  0.47777  0.46468  1.0000
  C   C185      1.0  0.18855  0.29519  0.31661  1.0000
  C   C186      1.0  0.18390  0.26123  0.68764  1.0000
  H   H330      1.0  0.24156  0.24940  0.41446  1.0000
  C   C187      1.0  0.22678  0.31516  0.78739  1.0000
  H   H331      1.0  0.19725  0.32511  0.61085  1.0000
  H   H332      1.0  0.14292  0.27411  0.23872  1.0000
  H   H333      1.0  0.23638  0.26372  0.58963  1.0000
  H   H334      1.0  0.23351  0.48053  0.64438  1.0000
  H   H335      1.0  0.06425  0.29063  0.03700  1.0000
  H   H336      1.0  0.13894  0.30349  0.21715  1.0000
  H   H337      1.0  0.13547  0.29017  0.17499  1.0000
  H   H338      1.0  0.11597  0.48532  0.41970  1.0000
  N   N13       1.0  0.05507  0.30728  0.91432  1.0000
  C   C188      1.0  0.07252  0.30794  0.89808  1.0000
  C   C189      1.0  0.05476  0.30187  0.95912  1.0000
  C   C190      1.0  0.04671  0.29428  0.89067  1.0000
  C   C191      1.0  0.04569  0.32345  0.90780  1.0000
  C   C192      1.0  0.05330  0.33898  0.92514  1.0000
  C   C193      1.0  0.07469  0.31370  0.85255  1.0000
  C   C194      1.0  0.02931  0.28963  0.90653  1.0000
  C   C195      1.0  0.06820  0.30836  0.98670  1.0000
  H   H339      1.0  0.07475  0.30880  0.05070  1.0000
  C   C196      1.0  0.04516  0.35474  0.90735  1.0000
  H   H340      1.0  0.22615  0.48375  0.50014  1.0000
  C   C197      1.0  0.10240  0.48499  0.42266  1.0000
  H   H341      1.0  0.07869  0.29556  0.90178  1.0000
  H   H342      1.0  0.07992  0.31623  0.91620  1.0000
  H   H343      1.0  0.04261  0.30510  0.97355  1.0000
  H   H344      1.0  0.05626  0.28818  0.96206  1.0000
  H   H345      1.0  0.05443  0.28265  0.89054  1.0000
  H   H346      1.0  0.04534  0.29820  0.85799  1.0000
  H   H347      1.0  0.04355  0.32575  0.87450  1.0000
  H   H348      1.0  0.03322  0.32289  0.92206  1.0000
  H   H349      1.0  0.06659  0.33965  0.91812  1.0000
  H   H350      1.0  0.05124  0.33918  0.95888  1.0000
  H   H351      1.0  0.06878  0.30528  0.83162  1.0000
  H   H352      1.0  0.06940  0.32633  0.84765  1.0000
  H   H353      1.0  0.02074  0.30051  0.90628  1.0000
  H   H354      1.0  0.23001  0.24708  0.97688  1.0000
  H   H355      1.0  0.08023  0.30250  0.97827  1.0000
  H   H356      1.0  0.06933  0.32181  0.98350  1.0000
  C   C198      1.0  0.20603  0.29978  0.32672  1.0000
  C   C199      1.0  0.23164  0.33084  0.46298  1.0000
  H   H357      1.0  0.00055  0.40484  0.77345  1.0000
  C   C200      1.0  0.05166  0.48990  0.58365  1.0000
  H   H358      1.0  0.01581  0.47224  0.85595  1.0000
  S   S47       1.0  0.17997  0.48765  0.57917  1.0000
  C   C201      1.0  0.07774  0.49193  0.98566  1.0000
  C   C202      1.0  0.16707  0.28524  0.24597  1.0000
  H   H359      1.0  0.17657  0.32859  0.63018  1.0000
  C   C203      1.0  0.23342  0.49302  0.51575  1.0000
  Fe  Fe24      1.0  0.17929  0.48232  0.51235  1.0000
  H   H360      1.0  0.19806  0.27848  0.27065  1.0000
  H   H361      1.0  0.22296  0.32669  0.80304  1.0000
  C   C204      1.0  0.07029  0.49107  0.58528  1.0000
  H   H362      1.0  0.17888  0.25031  0.03268  1.0000
  H   H363      1.0  0.11716  0.48790  0.49883  1.0000
  H   H364      1.0  0.10789  0.47351  0.96784  1.0000
  C   C205      1.0  0.17489  0.24957  0.84553  1.0000
  H   H365      1.0  0.07291  0.47522  0.53258  1.0000
  H   H366      1.0  0.19330  0.24649  0.16389  1.0000
  H   H367      1.0  0.23995  0.45967  0.55100  1.0000
  H   H368      1.0  0.10107  0.49275  0.60397  1.0000
  H   H369      1.0  0.16446  0.25198  0.24600  1.0000
  C   C206      1.0  0.00750  0.48165  0.87034  1.0000
  H   H370      1.0  0.23856  0.26928  0.47514  1.0000
  H   H371      1.0  0.03753  0.48527  0.97355  1.0000
  H   H372      1.0  0.23101  0.29825  0.46957  1.0000
  H   H373      1.0  0.24285  0.32050  0.51672  1.0000
  C   C207      1.0  0.22599  0.47334  0.62385  1.0000
  H   H374      1.0  0.08086  0.49059  0.95347  1.0000
  C   C208      1.0  0.21459  0.24772  0.05829  1.0000
  C   C209      1.0  0.07861  0.48653  0.54349  1.0000
  C   C210      1.0  0.99619  0.43709  0.83133  1.0000
  H   H375      1.0  0.23214  0.46110  0.61953  1.0000
  H   H376      1.0  0.21920  0.32673  0.47197  1.0000
  H   H377      1.0  0.09790  0.47720  0.39807  1.0000
  S   S48       1.0  0.23793  0.26905  0.77136  1.0000
  H   H378      1.0  0.01157  0.48336  0.90216  1.0000
  H   H379      1.0  0.23309  0.33080  0.42903  1.0000
  H   H380      1.0  0.13078  0.27201  0.35956  1.0000
  H   H381      1.0  0.23591  0.28597  0.53632  1.0000
  H   H382      1.0  0.18941  0.25259  0.71091  1.0000
  H   H383      1.0  0.24366  0.33124  0.34942  1.0000
  C   C211      1.0  0.18678  0.24874  0.00461  1.0000
  C   C212      1.0  0.07042  0.24376  0.95363  1.0000
  C   C213      1.0  0.22686  0.24576  0.91213  1.0000
  H   H384      1.0  0.04826  0.47705  0.57792  1.0000
  H   H385      1.0  0.20179  0.46272  0.62774  1.0000
  H   H386      1.0  0.07459  0.48304  0.61102  1.0000
  H   H387      1.0  0.21704  0.24410  0.88970  1.0000
  H   H388      1.0  0.20311  0.48230  0.65265  1.0000
  C   C214      1.0  0.24407  0.30190  0.46787  1.0000
  H   H389      1.0  0.00853  0.49336  0.85231  1.0000
  H   H390      1.0  0.01814  0.49357  0.03841  1.0000
  H   H391      1.0  0.04604  0.49360  0.61350  1.0000
  H   H392      1.0  0.01933  0.49351  0.16103  1.0000
  H   H393      1.0  0.04663  0.49822  0.55909  1.0000
  H   H394      1.0  0.11583  0.73514  0.89619  1.0000
  H   H395      1.0  0.02998  0.52674  0.12393  1.0000
  H   H396      1.0  0.20519  0.69246  0.01904  1.0000
  H   H397      1.0  0.17715  0.56680  0.64130  1.0000
  C   C215      1.0  0.02579  0.51403  0.11992  1.0000
  Fe  Fe25      1.0  0.10584  0.72907  0.09260  1.0000
  S   S49       1.0  0.10742  0.70766  0.05012  1.0000
  C   C216      1.0  0.12212  0.51125  0.33526  1.0000
  Fe  Fe26      1.0  0.13166  0.71234  0.14972  1.0000
  S   S50       1.0  0.13485  0.69013  0.10999  1.0000
  S   S51       1.0  0.14524  0.71069  0.21023  1.0000
  Fe  Fe27      1.0  0.13477  0.70853  0.05720  1.0000
  S   S52       1.0  0.15208  0.70468  0.00221  1.0000
  Fe  Fe28      1.0  0.10738  0.69096  0.10673  1.0000
  S   S53       1.0  0.09021  0.66900  0.11294  1.0000
  H   H398      1.0  0.20683  0.59866  0.60624  1.0000
  S   S54       1.0  0.10395  0.71248  0.14915  1.0000
  Fe  Fe29      1.0  0.17838  0.51451  0.55969  1.0000
  S   S55       1.0  0.19685  0.52974  0.59463  1.0000
  S   S56       1.0  0.13186  0.52177  0.45557  1.0000
  S   S57       1.0  0.15057  0.51511  0.56468  1.0000
  Fe  Fe30      1.0  0.05029  0.54955  0.19609  1.0000
  S   S58       1.0  0.06108  0.56185  0.13941  1.0000
  S   S59       1.0  0.02298  0.54746  0.21351  1.0000
  Fe  Fe31      1.0  0.08419  0.53707  0.22829  1.0000
  S   S60       1.0  0.09668  0.54789  0.17173  1.0000
  S   S61       1.0  0.10031  0.52194  0.27512  1.0000
  Fe  Fe32      1.0  0.08068  0.57075  0.18084  1.0000
  S   S62       1.0  0.09605  0.59420  0.18176  1.0000
  Fe  Fe33      1.0  0.07632  0.53819  0.13445  1.0000
  S   S63       1.0  0.08074  0.52808  0.06975  1.0000
  S   S64       1.0  0.06870  0.56014  0.23855  1.0000
  S   S65       1.0  0.06495  0.52563  0.18971  1.0000
  H   H399      1.0  0.08612  0.51683  0.98772  1.0000
  C   C217      1.0  0.00499  0.55060  0.18386  1.0000
  C   C218      1.0  0.17158  0.71698  0.25793  1.0000
  H   H400      1.0  0.13772  0.59259  0.20968  1.0000
  H   H401      1.0  0.22915  0.51902  0.53303  1.0000
  H   H402      1.0  0.15482  0.53529  0.17914  1.0000
  C   C219      1.0  0.12390  0.52204  0.40441  1.0000
  H   H403      1.0  0.12641  0.50246  0.31275  1.0000
  H   H404      1.0  0.22995  0.68412  0.98208  1.0000
  C   C220      1.0  0.10924  0.52256  0.32509  1.0000
  C   C221      1.0  0.10395  0.53381  0.35485  1.0000
  C   C222      1.0  0.11118  0.53351  0.39404  1.0000
  H   H405      1.0  0.19097  0.61393  0.70893  1.0000
  H   H406      1.0  0.09396  0.54245  0.34810  1.0000
  H   H407      1.0  0.10666  0.54208  0.41682  1.0000
  H   H408      1.0  0.16427  0.54624  0.27691  1.0000
  N   N14       1.0  0.01112  0.51900  0.05016  1.0000
  C   C223      1.0  0.22113  0.55090  0.61451  1.0000
  C   C224      1.0  0.20999  0.54664  0.58438  1.0000
  C   C225      1.0  0.20932  0.55621  0.54809  1.0000
  H   H409      1.0  0.21527  0.59770  0.70991  1.0000
  H   H410      1.0  0.23186  0.68910  0.57818  1.0000
  C   C226      1.0  0.16744  0.73461  0.99749  1.0000
  H   H411      1.0  0.20083  0.55319  0.52461  1.0000
  C   C227      1.0  0.10357  0.51392  0.56240  1.0000
  H   H412      1.0  0.04780  0.50473  0.96911  1.0000
  H   H413      1.0  0.06118  0.74160  0.10863  1.0000
  H   H414      1.0  0.23926  0.59859  0.75493  1.0000
  H   H415      1.0  0.18503  0.59058  0.68276  1.0000
  C   C228      1.0  0.09234  0.64783  0.12928  1.0000
  C   C229      1.0  0.10744  0.64052  0.14034  1.0000
  C   C230      1.0  0.10834  0.62407  0.15566  1.0000
  C   C231      1.0  0.09424  0.61452  0.15938  1.0000
  C   C232      1.0  0.07919  0.62173  0.14749  1.0000
  C   C233      1.0  0.07827  0.63827  0.13280  1.0000
  H   H416      1.0  0.11839  0.64759  0.13721  1.0000
  H   H417      1.0  0.12007  0.61864  0.16435  1.0000
  H   H418      1.0  0.06821  0.61466  0.15027  1.0000
  H   H419      1.0  0.06651  0.64373  0.12431  1.0000
  C   C234      1.0  0.24358  0.68676  0.75813  1.0000
  C   C235      1.0  0.21928  0.57006  0.54269  1.0000
  H   H420      1.0  0.13779  0.52168  0.18045  1.0000
  C   C236      1.0  0.16502  0.71951  0.97937  1.0000
  C   C237      1.0  0.17324  0.71592  0.94218  1.0000
  C   C238      1.0  0.18416  0.72711  0.92378  1.0000
  C   C239      1.0  0.22306  0.50936  0.51612  1.0000
  H   H421      1.0  0.17135  0.70430  0.92783  1.0000
  H   H422      1.0  0.19057  0.72414  0.89536  1.0000
  N   N15       1.0  0.21950  0.71423  0.02676  1.0000
  C   C240      1.0  0.21759  0.62605  0.63032  1.0000
  C   C241      1.0  0.08068  0.50683  0.00519  1.0000
  C   C242      1.0  0.20651  0.63765  0.60345  1.0000
  N   N16       1.0  0.20888  0.61418  0.65896  1.0000
  H   H423      1.0  0.23308  0.71969  0.10542  1.0000
  C   C243      1.0  0.16237  0.72218  0.22368  1.0000
  H   H424      1.0  0.13924  0.50217  0.38136  1.0000
  C   C244      1.0  0.23832  0.67709  0.72606  1.0000
  C   C245      1.0  0.22978  0.73333  0.69302  1.0000
  H   H425      1.0  0.16021  0.54423  0.37106  1.0000
  Fe  Fe34      1.0  0.23651  0.72688  0.39161  1.0000
  C   C246      1.0  0.18671  0.74214  0.94210  1.0000
  H   H426      1.0  0.11802  0.49740  0.66800  1.0000
  H   H427      1.0  0.21834  0.57753  0.51483  1.0000
  H   H428      1.0  0.10055  0.73218  0.93645  1.0000
  H   H429      1.0  0.18472  0.72116  0.58201  1.0000
  H   H430      1.0  0.18726  0.57571  0.59693  1.0000
  H   H431      1.0  0.18851  0.61001  0.61910  1.0000
  H   H432      1.0  0.09703  0.49765  0.41821  1.0000
  C   C247      1.0  0.22125  0.60351  0.68236  1.0000
  H   H433      1.0  0.06668  0.49720  0.10142  1.0000
  H   H434      1.0  0.18676  0.62896  0.67040  1.0000
  C   C248      1.0  0.21086  0.70244  0.00020  1.0000
  H   H435      1.0  0.18804  0.70352  0.06397  1.0000
  H   H436      1.0  0.23489  0.62373  0.71012  1.0000
  H   H437      1.0  0.19885  0.63056  0.58302  1.0000
  C   C249      1.0  0.19700  0.62293  0.68782  1.0000
  H   H438      1.0  0.24183  0.69921  0.02936  1.0000
  H   H439      1.0  0.13620  0.73706  0.95961  1.0000
  H   H440      1.0  0.21640  0.49430  0.58931  1.0000
  H   H441      1.0  0.09124  0.51747  0.55080  1.0000
  S   S66       1.0  0.23682  0.72715  0.88380  1.0000
  H   H442      1.0  0.21233  0.52744  0.47367  1.0000
  C   C250      1.0  0.23130  0.56458  0.60880  1.0000
  H   H443      1.0  0.21918  0.67790  0.91492  1.0000
  C   C251      1.0  0.23935  0.68990  0.60604  1.0000
  H   H444      1.0  0.22662  0.68000  0.71217  1.0000
  C   C252      1.0  0.18549  0.72057  0.11255  1.0000
  H   H445      1.0  0.09711  0.52160  0.62447  1.0000
  H   H446      1.0  0.13459  0.54430  0.30855  1.0000
  H   H447      1.0  0.21405  0.50686  0.45417  1.0000
  Fe  Fe35      1.0  0.15095  0.50802  0.49744  1.0000
  H   H448      1.0  0.16113  0.73749  0.02605  1.0000
  H   H449      1.0  0.01663  0.56345  0.13334  1.0000
  C   C253      1.0  0.21686  0.64894  0.57588  1.0000
  C   C254      1.0  0.13986  0.55918  0.23013  1.0000
  H   H450      1.0  0.11752  0.70833  0.96393  1.0000
  H   H451      1.0  0.22542  0.72089  0.68684  1.0000
  C   C255      1.0  0.02168  0.50719  0.98122  1.0000
  C   C256      1.0  0.12948  0.51106  0.37431  1.0000
  H   H452      1.0  0.21087  0.50733  0.53061  1.0000
  C   C257      1.0  0.23226  0.70443  0.05065  1.0000
  C   C258      1.0  0.19637  0.71074  0.08249  1.0000
  H   H453      1.0  0.20433  0.70215  0.10077  1.0000
  H   H454      1.0  0.20337  0.69375  0.91953  1.0000
  N   N17       1.0  0.11119  0.66535  0.25721  1.0000
  C   C259      1.0  0.11622  0.67977  0.28163  1.0000
  C   C260      1.0  0.09954  0.67164  0.22458  1.0000
  C   C261      1.0  0.10316  0.65295  0.28570  1.0000
  C   C262      1.0  0.12582  0.65693  0.23656  1.0000
  C   C263      1.0  0.13787  0.66833  0.21317  1.0000
  C   C264      1.0  0.12905  0.67582  0.31522  1.0000
  C   C265      1.0  0.09480  0.63863  0.26441  1.0000
  C   C266      1.0  0.08306  0.67957  0.24030  1.0000
  C   C267      1.0  0.07117  0.68283  0.20522  1.0000
  C   C268      1.0  0.15113  0.65840  0.18989  1.0000
  C   C269      1.0  0.13492  0.69163  0.33362  1.0000
  C   C270      1.0  0.08802  0.62624  0.29586  1.0000
  H   H455      1.0  0.10539  0.68546  0.29779  1.0000
  H   H456      1.0  0.12088  0.68974  0.26074  1.0000
  H   H457      1.0  0.10537  0.68113  0.20449  1.0000
  H   H458      1.0  0.09676  0.66166  0.20353  1.0000
  H   H459      1.0  0.09395  0.65908  0.30637  1.0000
  H   H460      1.0  0.11238  0.64718  0.30676  1.0000
  H   H461      1.0  0.13310  0.64940  0.25909  1.0000
  H   H462      1.0  0.12168  0.64802  0.21407  1.0000
  H   H463      1.0  0.14421  0.67618  0.23469  1.0000
  H   H464      1.0  0.13132  0.67644  0.19078  1.0000
  H   H465      1.0  0.12355  0.66826  0.34047  1.0000
  H   H466      1.0  0.14001  0.66900  0.30303  1.0000
  H   H467      1.0  0.10362  0.63182  0.24418  1.0000
  H   H468      1.0  0.08438  0.64327  0.24559  1.0000
  H   H469      1.0  0.07679  0.67156  0.26324  1.0000
  H   H470      1.0  0.08520  0.69157  0.25440  1.0000
  H   H471      1.0  0.06810  0.67109  0.19089  1.0000
  H   H472      1.0  0.05964  0.68880  0.21710  1.0000
  H   H473      1.0  0.07659  0.69112  0.18139  1.0000
  H   H474      1.0  0.15837  0.65040  0.21142  1.0000
  H   H475      1.0  0.14558  0.65069  0.16660  1.0000
  H   H476      1.0  0.15956  0.66698  0.17377  1.0000
  H   H477      1.0  0.14083  0.69948  0.30950  1.0000
  H   H478      1.0  0.12447  0.69870  0.34782  1.0000
  H   H479      1.0  0.14407  0.68857  0.35759  1.0000
  H   H480      1.0  0.07893  0.63234  0.31682  1.0000
  H   H481      1.0  0.08177  0.61647  0.27955  1.0000
  H   H482      1.0  0.09809  0.62036  0.31403  1.0000
  H   H483      1.0  0.11889  0.52076  0.61285  1.0000
  H   H484      1.0  0.19841  0.64560  0.62290  1.0000
  H   H485      1.0  0.22472  0.65658  0.59459  1.0000
  C   C271      1.0  0.03652  0.49824  0.96196  1.0000
  S   S67       1.0  0.23064  0.70325  0.77525  1.0000
  H   H486      1.0  0.03570  0.50657  0.10495  1.0000
  C   C272      1.0  0.22026  0.51606  0.47252  1.0000
  H   H487      1.0  0.20226  0.57862  0.66319  1.0000
  C   C273      1.0  0.01720  0.53626  0.04353  1.0000
  C   C274      1.0  0.03608  0.53817  0.03955  1.0000
  C   C275      1.0  0.10661  0.52397  0.60031  1.0000
  C   C276      1.0  0.24162  0.71385  0.08283  1.0000
  H   H488      1.0  0.13341  0.56601  0.20482  1.0000
  C   C277      1.0  0.22743  0.72701  0.99870  1.0000
  C   C278      1.0  0.04052  0.55627  0.03935  1.0000
  C   C279      1.0  0.02292  0.50652  0.16286  1.0000
  H   H489      1.0  0.20057  0.70906  0.98446  1.0000
  H   H490      1.0  0.11181  0.70583  0.91155  1.0000
  S   S68       1.0  0.13353  0.73061  0.09707  1.0000
  H   H491      1.0  0.22858  0.68005  0.49816  1.0000
  H   H492      1.0  0.17787  0.71204  0.13141  1.0000
  C   C280      1.0  0.00974  0.51457  0.09536  1.0000
  H   H493      1.0  0.20448  0.72440  0.60320  1.0000
  H   H494      1.0  0.01203  0.54209  0.01511  1.0000
  H   H495      1.0  0.11818  0.73878  0.98966  1.0000
  H   H496      1.0  0.00393  0.50240  0.09961  1.0000
  H   H497      1.0  0.04274  0.53179  0.06482  1.0000
  C   C281      1.0  0.18087  0.57859  0.62641  1.0000
  C   C282      1.0  0.21115  0.68470  0.93711  1.0000
  H   H498      1.0  0.13999  0.62184  0.22255  1.0000
  H   H499      1.0  0.18252  0.63797  0.75599  1.0000
  H   H500      1.0  0.22563  0.63411  0.64719  1.0000
  H   H501      1.0  0.21146  0.62953  0.74031  1.0000
  H   H502      1.0  0.22479  0.64154  0.55458  1.0000
  H   H503      1.0  0.04091  0.53296  0.01038  1.0000
  C   C283      1.0  0.19062  0.64605  0.73719  1.0000
  H   H504      1.0  0.03495  0.56307  0.01287  1.0000
  H   H505      1.0  0.03626  0.56209  0.06831  1.0000
  H   H506      1.0  0.05408  0.55719  0.03683  1.0000
  C   C284      1.0  0.14482  0.61274  0.24560  1.0000
  H   H507      1.0  0.20874  0.65727  0.55725  1.0000
  H   H508      1.0  0.22180  0.54363  0.64272  1.0000
  C   C285      1.0  0.10536  0.49513  0.57197  1.0000
  H   H509      1.0  0.07293  0.50390  0.59304  1.0000
  H   H510      1.0  0.13238  0.71146  0.92283  1.0000
  N   N18       1.0  0.13521  0.56663  0.27090  1.0000
  C   C286      1.0  0.14286  0.58322  0.27250  1.0000
  C   C287      1.0  0.14132  0.55598  0.30634  1.0000
  C   C288      1.0  0.23714  0.61166  0.69591  1.0000
  C   C289      1.0  0.11675  0.56818  0.27451  1.0000
  C   C290      1.0  0.10982  0.57759  0.31238  1.0000
  C   C291      1.0  0.13602  0.59658  0.24182  1.0000
  H   H511      1.0  0.15317  0.56048  0.22302  1.0000
  C   C292      1.0  0.15999  0.55174  0.30614  1.0000
  C   C293      1.0  0.16425  0.53938  0.34078  1.0000
  C   C294      1.0  0.09118  0.57971  0.31121  1.0000
  H   H512      1.0  0.16843  0.70585  0.27470  1.0000
  H   H513      1.0  0.20317  0.67579  0.95361  1.0000
  C   C295      1.0  0.00519  0.55889  0.14574  1.0000
  H   H514      1.0  0.14185  0.58814  0.30403  1.0000
  H   H515      1.0  0.13854  0.56205  0.33598  1.0000
  C   C296      1.0  0.22169  0.69353  0.96724  1.0000
  C   C297      1.0  0.24025  0.73958  0.17911  1.0000
  H   H516      1.0  0.10612  0.53730  0.59188  1.0000
  H   H517      1.0  0.11151  0.57406  0.24629  1.0000
  H   H518      1.0  0.11136  0.55579  0.27623  1.0000
  H   H519      1.0  0.11474  0.59008  0.31376  1.0000
  H   H520      1.0  0.11282  0.57075  0.34128  1.0000
  C   C298      1.0  0.19914  0.60309  0.63274  1.0000
  H   H521      1.0  0.12275  0.59926  0.24741  1.0000
  H   H522      1.0  0.12252  0.53932  0.22853  1.0000
  C   C299      1.0  0.23031  0.57442  0.57297  1.0000
  H   H523      1.0  0.23987  0.72256  0.98818  1.0000
  H   H524      1.0  0.16699  0.56299  0.31084  1.0000
  H   H525      1.0  0.15823  0.52754  0.33611  1.0000
  H   H526      1.0  0.17772  0.53694  0.34117  1.0000
  H   H527      1.0  0.19784  0.72976  0.03541  1.0000
  H   H528      1.0  0.08545  0.56753  0.31333  1.0000
  H   H529      1.0  0.08664  0.58703  0.33764  1.0000
  H   H530      1.0  0.08740  0.58624  0.28239  1.0000
  C   C300      1.0  0.13586  0.54083  0.22548  1.0000
  C   C301      1.0  0.11925  0.71315  0.93206  1.0000
  H   H531      1.0  0.15629  0.58199  0.26601  1.0000
  C   C302      1.0  0.14130  0.53468  0.18326  1.0000
  C   C303      1.0  0.19665  0.72709  0.57630  1.0000
  H   H532      1.0  0.22030  0.72898  0.97004  1.0000
  S   S69       1.0  0.17859  0.50920  0.49217  1.0000
  H   H533      1.0  0.23223  0.68495  0.63274  1.0000
  H   H534      1.0  0.22598  0.61903  0.60926  1.0000
  C   C304      1.0  0.07670  0.50893  0.04704  1.0000
  Fe  Fe36      1.0  0.23702  0.72477  0.81508  1.0000
  H   H535      1.0  0.14272  0.61778  0.27669  1.0000
  H   H536      1.0  0.19307  0.72751  0.13359  1.0000
  H   H537      1.0  0.19170  0.72206  0.29750  1.0000
  C   C305      1.0  0.20421  0.63586  0.71579  1.0000
  C   C306      1.0  0.19218  0.58749  0.65459  1.0000
  H   H538      1.0  0.11273  0.51745  0.53828  1.0000
  H   H539      1.0  0.10001  0.50148  0.49115  1.0000
  H   H540      1.0  0.21204  0.64462  0.69849  1.0000
  S   S70       1.0  0.23748  0.72335  0.32323  1.0000
  H   H541      1.0  0.15821  0.61086  0.23965  1.0000
  S   S71       1.0  0.23037  0.70720  0.44011  1.0000
  C   C307      1.0  0.18480  0.72615  0.27093  1.0000
  H   H542      1.0  0.21216  0.73130  0.07461  1.0000
  C   C308      1.0  0.20667  0.72234  0.05441  1.0000
  H   H543      1.0  0.13520  0.54213  0.15855  1.0000
  C   C309      1.0  0.02188  0.50620  0.02891  1.0000
  H   H544      1.0  0.22583  0.59314  0.66300  1.0000
  H   H545      1.0  0.15955  0.74084  0.17612  1.0000
  H   H546      1.0  0.16966  0.58628  0.62000  1.0000
  H   H547      1.0  0.19617  0.65491  0.75781  1.0000
  H   H548      1.0  0.00157  0.52362  0.11160  1.0000
  H   H549      1.0  0.14200  0.53274  0.24879  1.0000
  H   H550      1.0  0.18317  0.65317  0.71431  1.0000
  H   H551      1.0  0.22936  0.70215  0.94910  1.0000
  H   H552      1.0  0.20256  0.72165  0.54850  1.0000
  H   H553      1.0  0.01257  0.54423  0.06876  1.0000
  H   H554      1.0  0.01318  0.51365  0.17973  1.0000
  C   C310      1.0  0.11387  0.73132  0.92865  1.0000
  H   H555      1.0  0.22674  0.69353  0.06622  1.0000
  H   H556      1.0  0.17710  0.72930  0.09574  1.0000
  H   H557      1.0  0.23392  0.73351  0.72515  1.0000
  H   H558      1.0  0.24001  0.50878  0.59065  1.0000
  S   S72       1.0  0.24179  0.59269  0.56507  1.0000
  H   H559      1.0  0.03436  0.50680  0.18056  1.0000
  C   C311      1.0  0.24139  0.68161  0.49035  1.0000
  H   H560      1.0  0.22709  0.74006  0.17118  1.0000
  H   H561      1.0  0.23209  0.51915  0.45723  1.0000
  H   H562      1.0  0.23885  0.74059  0.63216  1.0000
  C   C312      1.0  0.16662  0.73661  0.20225  1.0000
  H   H563      1.0  0.02154  0.52016  0.96965  1.0000
  C   C313      1.0  0.06970  0.49586  0.06918  1.0000
  H   H564      1.0  0.23971  0.56764  0.63239  1.0000
  H   H565      1.0  0.03482  0.50662  0.03858  1.0000
  H   H566      1.0  0.23176  0.71502  0.61511  1.0000
  H   H567      1.0  0.07464  0.49649  0.52135  1.0000
  C   C314      1.0  0.18882  0.74075  0.25006  1.0000
  H   H568      1.0  0.09692  0.49585  0.72416  1.0000
  H   H569      1.0  0.23419  0.72638  0.23581  1.0000
  C   C315      1.0  0.24257  0.72491  0.20880  1.0000
  H   H570      1.0  0.01052  0.50135  0.97022  1.0000
  H   H571      1.0  0.23952  0.71339  0.19354  1.0000
  C   C316      1.0  0.12331  0.74184  0.95861  1.0000
  C   C317      1.0  0.24349  0.70784  0.61253  1.0000
  H   H572      1.0  0.20543  0.74182  0.71243  1.0000
  H   H573      1.0  0.99429  0.52181  0.99967  1.0000
  H   H574      1.0  0.03546  0.49824  0.92808  1.0000
  H   H575      1.0  0.99445  0.59769  0.15233  1.0000
  C   C318      1.0  0.24392  0.73836  0.66323  1.0000
  C   C319      1.0  0.99411  0.51818  0.03280  1.0000
  H   H576      1.0  0.24377  0.65619  0.68764  1.0000
  H   H577      1.0  0.24407  0.49512  0.49486  1.0000
  H   H578      1.0  0.15148  0.82124  0.67418  1.0000
  C   C320      1.0  0.14155  0.77405  0.05355  1.0000
  H   H579      1.0  0.12573  0.75500  0.03676  1.0000
  H   H580      1.0  0.06735  0.78973  0.13010  1.0000
  H   H581      1.0  0.10177  0.93433  0.59001  1.0000
  C   C321      1.0  0.07137  0.76074  0.07022  1.0000
  Fe  Fe37      1.0  0.20456  0.85545  0.54722  1.0000
  S   S73       1.0  0.22876  0.85828  0.57765  1.0000
  S   S74       1.0  0.19792  0.83617  0.50166  1.0000
  Fe  Fe38      1.0  0.18728  0.88372  0.59472  1.0000
  S   S75       1.0  0.21037  0.88857  0.62852  1.0000
  S   S76       1.0  0.16471  0.90099  0.60364  1.0000
  Fe  Fe39      1.0  0.22401  0.88582  0.56812  1.0000
  C   C322      1.0  0.09953  0.99259  0.63548  1.0000
  Fe  Fe40      1.0  0.21322  0.86084  0.63540  1.0000
  C   C323      1.0  0.16249  0.83896  0.71290  1.0000
  S   S77       1.0  0.20063  0.88254  0.53376  1.0000
  S   S78       1.0  0.18928  0.85640  0.60548  1.0000
  Fe  Fe41      1.0  0.00347  0.80370  0.03661  1.0000
  H   H582      1.0  0.14499  0.87836  0.48737  1.0000
  S   S79       1.0  0.01813  0.78288  0.07031  1.0000
  H   H583      1.0  0.14662  0.85780  0.50923  1.0000
  S   S80       1.0  0.01324  0.83870  0.90672  1.0000
  S   S81       1.0  0.00898  0.83070  0.03055  1.0000
  Fe  Fe42      1.0  0.06823  0.90233  0.67016  1.0000
  S   S82       1.0  0.05924  0.92032  0.71798  1.0000
  S   S83       1.0  0.09198  0.88629  0.66811  1.0000
  Fe  Fe43      1.0  0.03565  0.90571  0.62273  1.0000
  S   S84       1.0  0.02437  0.92339  0.66794  1.0000
  S   S85       1.0  0.02756  0.89913  0.55846  1.0000
  Fe  Fe44      1.0  0.04862  0.93602  0.66551  1.0000
  S   S86       1.0  0.05217  0.96205  0.63728  1.0000
  Fe  Fe45      1.0  0.03554  0.90634  0.71755  1.0000
  S   S87       1.0  0.02071  0.89980  0.77719  1.0000
  S   S88       1.0  0.05942  0.91871  0.61867  1.0000
  S   S89       1.0  0.04505  0.88787  0.67169  1.0000
  C   C324      1.0  0.00802  0.90248  0.53588  1.0000
  C   C325      1.0  0.00655  0.90061  0.49331  1.0000
  H   H584      1.0  0.01726  0.89702  0.47510  1.0000
  H   H585      1.0  0.21084  0.85194  0.82132  1.0000
  C   C326      1.0  0.04903  0.98286  0.65269  1.0000
  N   N19       1.0  0.20861  0.77258  0.55141  1.0000
  H   H586      1.0  0.00292  0.84648  0.28053  1.0000
  H   H587      1.0  0.04263  0.97736  0.71577  1.0000
  C   C327      1.0  0.12480  0.87937  0.76678  1.0000
  C   C328      1.0  0.01599  0.85627  0.87267  1.0000
  C   C329      1.0  0.02564  0.85437  0.83652  1.0000
  C   C330      1.0  0.02756  0.86753  0.80758  1.0000
  C   C331      1.0  0.01968  0.88288  0.81391  1.0000
  C   C332      1.0  0.01012  0.88481  0.85021  1.0000
  H   H588      1.0  0.23439  0.80787  0.28140  1.0000
  H   H589      1.0  0.03163  0.84256  0.83068  1.0000
  H   H590      1.0  0.03496  0.86572  0.78002  1.0000
  C   C333      1.0  0.01472  0.84191  0.26659  1.0000
  C   C334      1.0  0.23133  0.81891  0.67830  1.0000
  H   H591      1.0  0.03731  0.79705  0.17580  1.0000
  C   C335      1.0  0.14477  0.89657  0.62305  1.0000
  C   C336      1.0  0.13975  0.88045  0.63031  1.0000
  C   C337      1.0  0.12362  0.87756  0.64462  1.0000
  C   C338      1.0  0.11230  0.89072  0.65160  1.0000
  C   C339      1.0  0.11738  0.90683  0.64467  1.0000
  C   C340      1.0  0.13349  0.90971  0.63035  1.0000
  H   H592      1.0  0.14820  0.87024  0.62412  1.0000
  H   H593      1.0  0.11981  0.86505  0.64980  1.0000
  H   H594      1.0  0.10887  0.91705  0.65045  1.0000
  H   H595      1.0  0.13725  0.92223  0.62484  1.0000
  C   C341      1.0  0.05147  0.78229  0.04694  1.0000
  C   C342      1.0  0.03871  0.77451  0.06838  1.0000
  C   C343      1.0  0.04245  0.75981  0.09066  1.0000
  H   H596      1.0  0.04889  0.79364  0.02985  1.0000
  H   H597      1.0  0.00493  0.84275  0.20631  1.0000
  C   C344      1.0  0.22379  0.82847  0.70889  1.0000
  H   H598      1.0  0.00690  0.95228  0.47140  1.0000
  N   N20       1.0  0.17096  0.86468  0.75147  1.0000
  H   H599      1.0  0.17996  0.75760  0.99288  1.0000
  H   H600      1.0  0.21058  0.95688  0.56671  1.0000
  C   C345      1.0  0.22207  0.76703  0.11570  1.0000
  H   H601      1.0  0.17367  0.84158  0.78581  1.0000
  S   S90       1.0  0.21907  0.74620  0.80649  1.0000
  C   C346      1.0  0.20307  0.86330  0.82533  1.0000
  H   H602      1.0  0.05083  0.86360  0.58474  1.0000
  H   H603      1.0  0.18815  0.75048  0.59888  1.0000
  H   H604      1.0  0.00028  0.82414  0.15683  1.0000
  C   C347      1.0  0.22927  0.82289  0.48776  1.0000
  C   C348      1.0  0.21273  0.82310  0.47737  1.0000
  C   C349      1.0  0.20759  0.81218  0.44793  1.0000
  C   C350      1.0  0.23602  0.79616  0.72802  1.0000
  H   H605      1.0  0.21007  0.77012  0.46240  1.0000
  H   H606      1.0  0.06688  0.85127  0.56045  1.0000
  C   C351      1.0  0.16950  0.85649  0.71073  1.0000
  C   C352      1.0  0.18094  0.87989  0.74514  1.0000
  C   C353      1.0  0.18060  0.85294  0.77933  1.0000
  C   C354      1.0  0.17364  0.89366  0.71677  1.0000
  C   C355      1.0  0.18502  0.90820  0.71278  1.0000
  C   C356      1.0  0.15606  0.83394  0.67154  1.0000
  H   H607      1.0  0.11712  0.77550  0.03072  1.0000
  H   H608      1.0  0.18177  0.85532  0.69525  1.0000
  H   H609      1.0  0.19339  0.87639  0.73258  1.0000
  H   H610      1.0  0.19207  0.84844  0.76344  1.0000
  H   H611      1.0  0.17236  0.82986  0.72179  1.0000
  H   H612      1.0  0.08184  0.80016  0.16018  1.0000
  H   H613      1.0  0.17181  0.88908  0.68560  1.0000
  H   H614      1.0  0.18007  0.91730  0.68980  1.0000
  H   H615      1.0  0.12095  0.87043  0.79116  1.0000
  C   C357      1.0  0.15447  0.86878  0.77165  1.0000
  H   H616      1.0  0.16600  0.83416  0.64778  1.0000
  H   H617      1.0  0.10292  0.90248  0.38553  1.0000
  H   H618      1.0  0.09517  0.92536  0.50102  1.0000
  H   H619      1.0  0.20541  0.86817  0.85609  1.0000
  S   S91       1.0  0.21957  0.74943  0.38704  1.0000
  H   H620      1.0  0.21829  0.75151  0.58575  1.0000
  H   H621      1.0  0.12084  0.76044  0.88396  1.0000
  C   C358      1.0  0.24046  0.81154  0.46956  1.0000
  C   C359      1.0  0.02324  0.94826  0.54388  1.0000
  H   H622      1.0  0.17244  0.76816  0.46250  1.0000
  C   C360      1.0  0.21506  0.74541  0.68963  1.0000
  H   H623      1.0  0.21806  0.95499  0.51416  1.0000
  H   H624      1.0  0.14635  0.76166  0.97935  1.0000
  C   C361      1.0  0.13405  0.76791  0.98034  1.0000
  C   C362      1.0  0.05255  0.94277  0.51836  1.0000
  S   S92       1.0  0.20023  0.75662  0.92006  1.0000
  H   H625      1.0  0.09347  0.75595  0.90600  1.0000
  C   C363      1.0  0.19623  0.77681  0.51870  1.0000
  H   H626      1.0  0.13603  0.78105  0.97146  1.0000
  H   H627      1.0  0.21769  0.77118  0.18113  1.0000
  H   H628      1.0  0.05508  0.99263  0.59235  1.0000
  C   C364      1.0  0.22146  0.95381  0.54693  1.0000
  C   C365      1.0  0.09718  0.97660  0.66036  1.0000
  C   C366      1.0  0.22223  0.82170  0.74888  1.0000
  H   H629      1.0  0.19821  0.75372  0.48353  1.0000
  H   H630      1.0  0.19824  0.82037  0.63023  1.0000
  H   H631      1.0  0.03525  0.95968  0.48927  1.0000
  H   H632      1.0  0.05286  0.93027  0.53296  1.0000
  H   H633      1.0  0.22530  0.94077  0.55344  1.0000
  H   H634      1.0  0.15585  0.76362  0.91628  1.0000
  C   C367      1.0  0.23056  0.98348  0.54864  1.0000
  H   H635      1.0  0.24020  0.76778  0.99905  1.0000
  H   H636      1.0  0.99491  0.90834  0.59182  1.0000
  H   H637      1.0  0.02974  0.95379  0.56935  1.0000
  H   H638      1.0  0.15293  0.76619  0.05144  1.0000
  C   C368      1.0  0.22820  0.80561  0.75838  1.0000
  H   H639      1.0  0.13607  0.86134  0.72773  1.0000
  H   H640      1.0  0.05716  0.95175  0.54015  1.0000
  H   H641      1.0  0.19659  0.79012  0.50993  1.0000
  H   H642      1.0  0.17724  0.87034  0.83109  1.0000
  H   H643      1.0  0.20991  0.77572  0.61732  1.0000
  H   H644      1.0  0.20203  0.80112  0.65743  1.0000
  H   H645      1.0  0.11374  0.92085  0.52924  1.0000
  H   H646      1.0  0.00012  0.93561  0.50266  1.0000
  H   H647      1.0  0.19707  0.76091  0.13350  1.0000
  S   S93       1.0  0.09222  0.75314  0.07153  1.0000
  H   H648      1.0  0.11266  0.99318  0.62608  1.0000
  Fe  Fe46      1.0  0.22255  0.74702  0.31831  1.0000
  H   H649      1.0  0.18398  0.78515  0.44153  1.0000
  C   C369      1.0  0.18443  0.77174  0.44882  1.0000
  C   C370      1.0  0.19833  0.76723  0.47818  1.0000
  H   H650      1.0  0.18351  0.77511  0.53074  1.0000
  H   H651      1.0  0.03275  0.75368  0.10752  1.0000
  H   H652      1.0  0.15549  0.87944  0.79213  1.0000
  H   H653      1.0  0.00281  0.82361  0.23315  1.0000
  H   H654      1.0  0.23051  0.78178  0.24716  1.0000
  H   H655      1.0  0.00961  0.79847  0.20714  1.0000
  S   S94       1.0  0.99548  0.80238  0.97124  1.0000
  H   H656      1.0  0.08420  0.97565  0.67094  1.0000
  C   C371      1.0  0.23620  0.79186  0.22910  1.0000
  C   C372      1.0  0.01025  0.81483  0.15160  1.0000
  H   H657      1.0  0.01191  0.78793  0.15978  1.0000
  C   C373      1.0  0.03508  0.94763  0.50601  1.0000
  H   H658      1.0  0.23342  0.83136  0.51007  1.0000
  H   H659      1.0  0.02267  0.85262  0.26114  1.0000
  H   H660      1.0  0.09743  0.77736  0.89837  1.0000
  H   H661      1.0  0.18293  0.80489  0.63084  1.0000
  S   S95       1.0  0.20482  0.75320  0.26624  1.0000
  H   H662      1.0  0.02070  0.83305  0.28856  1.0000
  H   H663      1.0  0.23620  0.75723  0.22571  1.0000
  H   H664      1.0  0.15085  0.77632  0.84730  1.0000
  H   H665      1.0  0.21655  0.82900  0.77285  1.0000
  H   H666      1.0  0.14273  0.88177  0.71839  1.0000
  H   H667      1.0  0.11442  0.88157  0.74557  1.0000
  H   H668      1.0  0.08276  0.93843  0.56384  1.0000
  C   C374      1.0  0.22686  0.77472  0.15679  1.0000
  H   H669      1.0  0.10124  0.94797  0.54565  1.0000
  C   C375      1.0  0.23517  0.80014  0.44141  1.0000
  H   H670      1.0  0.10613  0.78053  0.96706  1.0000
  H   H671      1.0  0.02152  0.93527  0.55448  1.0000
  C   C376      1.0  0.19633  0.80691  0.62974  1.0000
  H   H672      1.0  0.18997  0.77805  0.59775  1.0000
  C   C377      1.0  0.23928  0.77589  0.56750  1.0000
  H   H673      1.0  0.22615  0.79897  0.21357  1.0000
  H   H674      1.0  0.19780  0.80579  0.56410  1.0000
  H   H675      1.0  0.18477  0.74756  0.54533  1.0000
  H   H676      1.0  0.08990  0.88583  0.40090  1.0000
  H   H677      1.0  0.20058  0.76355  0.07906  1.0000
  H   H678      1.0  0.06993  0.85975  0.61058  1.0000
  H   H679      1.0  0.22921  0.77232  0.50826  1.0000
  C   C378      1.0  0.18490  0.85943  0.82221  1.0000
  H   H680      1.0  0.07559  0.78452  0.95043  1.0000
  H   H681      1.0  0.22590  0.75393  0.11377  1.0000
  H   H682      1.0  0.08371  0.90690  0.41198  1.0000
  C   C379      1.0  0.20299  0.78083  0.59053  1.0000
  H   H683      1.0  0.14578  0.84237  0.66180  1.0000
  H   H684      1.0  0.07742  0.78180  0.03197  1.0000
  C   C380      1.0  0.06767  0.77551  0.04813  1.0000
  H   H685      1.0  0.14438  0.78694  0.04469  1.0000
  H   H686      1.0  0.16211  0.86425  0.68915  1.0000
  H   H687      1.0  0.14781  0.87522  0.54191  1.0000
  H   H688      1.0  0.10036  0.96587  0.64097  1.0000
  H   H689      1.0  0.12873  0.77841  0.90359  1.0000
  H   H690      1.0  0.00614  0.84768  0.12828  1.0000
  N   N21       1.0  0.02673  0.82136  0.16187  1.0000
  H   H691      1.0  0.22708  0.80064  0.78939  1.0000
  C   C381      1.0  0.03069  0.83547  0.13259  1.0000
  C   C382      1.0  0.03939  0.80767  0.15431  1.0000
  C   C383      1.0  0.02758  0.82658  0.20598  1.0000
  S   S96       1.0  0.24171  0.76721  0.86687  1.0000
  H   H692      1.0  0.22409  0.79184  0.52783  1.0000
  C   C384      1.0  0.05761  0.81212  0.15862  1.0000
  C   C385      1.0  0.01898  0.85086  0.13375  1.0000
  C   C386      1.0  0.02378  0.86371  0.10097  1.0000
  C   C387      1.0  0.22508  0.77857  0.53683  1.0000
  H   H693      1.0  0.10521  0.97603  0.68747  1.0000
  C   C388      1.0  0.06884  0.79666  0.15863  1.0000
  H   H694      1.0  0.01496  0.87441  0.10222  1.0000
  N   N22       1.0  0.00681  0.95685  0.53663  1.0000
  H   H695      1.0  0.04300  0.84017  0.13874  1.0000
  H   H696      1.0  0.03132  0.83104  0.10049  1.0000
  H   H697      1.0  0.22809  0.77371  0.08956  1.0000
  C   C389      1.0  0.21009  0.75426  0.55955  1.0000
  H   H698      1.0  0.03166  0.81603  0.22621  1.0000
  H   H699      1.0  0.03720  0.83586  0.20884  1.0000
  H   H700      1.0  0.03405  0.98058  0.53576  1.0000
  H   H701      1.0  0.18258  0.75727  0.19961  1.0000
  H   H702      1.0  0.00976  0.81243  0.11816  1.0000
  H   H703      1.0  0.21670  0.75092  0.01680  1.0000
  H   H704      1.0  0.05950  0.81867  0.18747  1.0000
  H   H705      1.0  0.06158  0.82004  0.13221  1.0000
  H   H706      1.0  0.02264  0.98088  0.58300  1.0000
  H   H707      1.0  0.01974  0.85693  0.16365  1.0000
  C   C390      1.0  0.20415  0.79987  0.59063  1.0000
  H   H708      1.0  0.21714  0.80353  0.58934  1.0000
  H   H709      1.0  0.24099  0.98475  0.62976  1.0000
  C   C391      1.0  0.00841  0.87173  0.87948  1.0000
  C   C392      1.0  0.05859  0.75290  0.09134  1.0000
  C   C393      1.0  0.12837  0.76764  0.02605  1.0000
  Fe  Fe47      1.0  0.24286  0.76342  0.38385  1.0000
  C   C394      1.0  0.00801  0.97519  0.52856  1.0000
  C   C395      1.0  0.13978  0.87264  0.74289  1.0000
  H   H710      1.0  0.23911  0.96253  0.58803  1.0000
  C   C396      1.0  0.19377  0.74566  0.57013  1.0000
  H   H711      1.0  0.06601  0.78849  0.18551  1.0000
  H   H712      1.0  0.19750  0.90409  0.70239  1.0000
  H   H713      1.0  0.18589  0.91433  0.74266  1.0000
  S   S97       1.0  0.21657  0.84903  0.69907  1.0000
  C   C397      1.0  0.02197  0.98405  0.54989  1.0000
  H   H714      1.0  0.01350  0.95583  0.62255  1.0000
  C   C398      1.0  0.21874  0.80070  0.43009  1.0000
  H   H715      1.0  0.12751  0.89126  0.78081  1.0000
  H   H716      1.0  0.03812  0.80282  0.12290  1.0000
  H   H717      1.0  0.19488  0.81254  0.43916  1.0000
  H   H718      1.0  0.03629  0.86809  0.10630  1.0000
  H   H719      1.0  0.18645  0.76511  0.41969  1.0000
  H   H720      1.0  0.23272  0.82400  0.64747  1.0000
  H   H721      1.0  0.06749  0.88788  0.58045  1.0000
  H   H722      1.0  0.15238  0.83805  0.73607  1.0000
  H   H723      1.0  0.14294  0.75705  0.83069  1.0000
  C   C399      1.0  0.20355  0.76833  0.10952  1.0000
  H   H724      1.0  0.03109  0.93821  0.48453  1.0000
  C   C400      1.0  0.14662  0.75821  0.89663  1.0000
  H   H725      1.0  0.06076  0.94260  0.49076  1.0000
  H   H726      1.0  0.00282  0.86229  0.74881  1.0000
  C   C401      1.0  0.22899  0.74459  0.01548  1.0000
  H   H727      1.0  0.13704  0.77374  0.08596  1.0000
  C   C402      1.0  0.15131  0.76275  0.85225  1.0000
  H   H728      1.0  0.21461  0.79223  0.40774  1.0000
  H   H729      1.0  0.18229  0.84972  0.84592  1.0000
  H   H730      1.0  0.23414  0.74439  0.04651  1.0000
  H   H731      1.0  0.99978  0.97351  0.61453  1.0000
  H   H732      1.0  0.19904  0.78136  0.11089  1.0000
  C   C403      1.0  0.01144  0.83361  0.22622  1.0000
  N   N23       1.0  0.09762  0.89012  0.52880  1.0000
  C   C404      1.0  0.11602  0.88781  0.53157  1.0000
  C   C405      1.0  0.09231  0.90611  0.54855  1.0000
  C   C406      1.0  0.08990  0.87633  0.55371  1.0000
  C   C407      1.0  0.09162  0.88962  0.48531  1.0000
  C   C408      1.0  0.10310  0.89646  0.45078  1.0000
  C   C409      1.0  0.12315  0.87042  0.52132  1.0000
  C   C410      1.0  0.07097  0.87768  0.55980  1.0000
  C   C411      1.0  0.10020  0.92204  0.53158  1.0000
  C   C412      1.0  0.09620  0.93653  0.55951  1.0000
  C   C413      1.0  0.09431  0.89799  0.40986  1.0000
  C   C414      1.0  0.14176  0.87051  0.51456  1.0000
  C   C415      1.0  0.06433  0.86205  0.58009  1.0000
  H   H733      1.0  0.11993  0.89044  0.56308  1.0000
  H   H734      1.0  0.12253  0.89683  0.51172  1.0000
  H   H735      1.0  0.07887  0.90842  0.54554  1.0000
  H   H736      1.0  0.09452  0.90517  0.58215  1.0000
  H   H737      1.0  0.09532  0.87529  0.58477  1.0000
  H   H738      1.0  0.09265  0.86426  0.53929  1.0000
  H   H739      1.0  0.08925  0.87674  0.47679  1.0000
  H   H740      1.0  0.07947  0.89625  0.48291  1.0000
  H   H741      1.0  0.11394  0.88801  0.44643  1.0000
  H   H742      1.0  0.10765  0.90870  0.45777  1.0000
  H   H743      1.0  0.12064  0.86169  0.54734  1.0000
  H   H744      1.0  0.11755  0.86572  0.49341  1.0000
  H   H745      1.0  0.06474  0.87987  0.53015  1.0000
  H   H746      1.0  0.15053  0.85845  0.79232  1.0000
  H   H747      1.0  0.02342  0.85858  0.06982  1.0000
  H   H748      1.0  0.16186  0.89860  0.72968  1.0000
  C   C416      1.0  0.04451  0.98700  0.69283  1.0000
  H   H749      1.0  0.06789  0.77286  0.90917  1.0000
  H   H750      1.0  0.09201  0.99186  0.60760  1.0000
  H   H751      1.0  0.22481  0.78820  0.15115  1.0000
  H   H752      1.0  0.20681  0.87258  0.80172  1.0000
  H   H753      1.0  0.18296  0.88585  0.77477  1.0000
  H   H754      1.0  0.00400  0.89659  0.85580  1.0000
  Fe  Fe48      1.0  0.22078  0.74978  0.87433  1.0000
  C   C417      1.0  0.00566  0.79862  0.17482  1.0000
  N   N24       1.0  0.12277  0.76024  0.95054  1.0000
  H   H755      1.0  0.21868  0.75811  0.69625  1.0000
  C   C418      1.0  0.00080  0.95986  0.61487  1.0000
  C   C419      1.0  0.10562  0.76743  0.95795  1.0000
  H   H756      1.0  0.23586  0.78030  0.59849  1.0000
  H   H757      1.0  0.16404  0.75811  0.84553  1.0000
  H   H758      1.0  0.00112  0.87361  0.90715  1.0000
  H   H759      1.0  0.09962  0.76088  0.98444  1.0000
  C   C420      1.0  0.09368  0.76785  0.92151  1.0000
  Fe  Fe49      1.0  0.99941  0.82984  0.96596  1.0000
  H   H760      1.0  0.23541  0.75561  0.95585  1.0000
  C   C421      1.0  0.12899  0.76475  0.90787  1.0000
  H   H761      1.0  0.21623  0.74800  0.53305  1.0000
  H   H762      1.0  0.07161  0.76289  0.95825  1.0000
  C   C422      1.0  0.17813  0.74594  0.97869  1.0000
  H   H763      1.0  0.24284  0.76261  0.57017  1.0000
  C   C423      1.0  0.23747  0.80286  0.68790  1.0000
  C   C424      1.0  0.07615  0.77231  0.93583  1.0000
  H   H764      1.0  0.20983  0.74525  0.65858  1.0000
  H   H765      1.0  0.22401  0.98467  0.51902  1.0000
  H   H766      1.0  0.00978  0.97797  0.49513  1.0000
  Fe  Fe50      1.0  0.24134  0.76155  0.79933  1.0000
  C   C425      1.0  0.23559  0.96499  0.55572  1.0000
  S   S98       1.0  0.24133  0.90386  0.53464  1.0000
  H   H767      1.0  0.22095  0.98620  0.57255  1.0000
  C   C426      1.0  0.99952  0.94928  0.49955  1.0000
  C   C427      1.0  0.17971  0.74588  0.21558  1.0000
  C   C428      1.0  0.24003  0.75504  0.98765  1.0000
  H   H768      1.0  0.24360  0.79570  0.66427  1.0000
  H   H769      1.0  0.99617  0.98159  0.53705  1.0000
  H   H770      1.0  0.14766  0.74460  0.89997  1.0000
  C   C429      1.0  0.99560  0.95334  0.57306  1.0000
  C   C430      1.0  0.24388  0.80340  0.25901  1.0000
  C   C431      1.0  0.24512  0.18491  0.61907  1.0000
  S   S99       1.0  0.24775  0.22923  0.77187  1.0000
  H   H771      1.0  0.47074  0.22150  0.99104  1.0000
  S   S100      1.0  0.35239  0.23055  0.96785  1.0000
  H   H772      1.0  0.44136  0.10812  0.80082  1.0000
  H   H773      1.0  0.24999  0.18972  0.79153  1.0000
  H   H774      1.0  0.40497  0.01502  0.78721  1.0000
  S   S101      1.0  0.33202  0.01595  0.51503  1.0000
  H   H775      1.0  0.35234  0.21783  0.76551  1.0000
  H   H776      1.0  0.48303  0.02728  0.90446  1.0000
  H   H777      1.0  0.30051  0.17729  0.05597  1.0000
  Fe  Fe51      1.0  0.30470  0.01250  0.51305  1.0000
  S   S102      1.0  0.28720  0.03201  0.48422  1.0000
  H   H778      1.0  0.25414  0.05595  0.59841  1.0000
  Fe  Fe52      1.0  0.40888  0.04943  0.79433  1.0000
  S   S103      1.0  0.41958  0.07393  0.80852  1.0000
  S   S104      1.0  0.40254  0.04176  0.72895  1.0000
  Fe  Fe53      1.0  0.41223  0.03674  0.88363  1.0000
  S   S105      1.0  0.42252  0.06039  0.90473  1.0000
  S   S106      1.0  0.40928  0.01141  0.91506  1.0000
  Fe  Fe54      1.0  0.40346  0.07358  0.86561  1.0000
  S   S107      1.0  0.38712  0.09670  0.87851  1.0000
  Fe  Fe55      1.0  0.43821  0.05971  0.84663  1.0000
  S   S108      1.0  0.46465  0.06742  0.85590  1.0000
  S   S109      1.0  0.39170  0.04979  0.84897  1.0000
  S   S110      1.0  0.42907  0.03534  0.82803  1.0000
  Fe  Fe56      1.0  0.37978  0.22678  0.95631  1.0000
  S   S111      1.0  0.38287  0.20950  0.01097  1.0000
  H   H779      1.0  0.48426  0.99914  0.10661  1.0000
  Fe  Fe57      1.0  0.34981  0.20848  0.92846  1.0000
  S   S112      1.0  0.35087  0.19006  0.98100  1.0000
  S   S113      1.0  0.33173  0.20398  0.87844  1.0000
  Fe  Fe58      1.0  0.35526  0.21194  0.01986  1.0000
  S   S114      1.0  0.34471  0.21376  0.08571  1.0000
  Fe  Fe59      1.0  0.37803  0.18874  0.96818  1.0000
  S   S115      1.0  0.39346  0.16453  0.97281  1.0000
  H   H780      1.0  0.24994  0.13452  0.86910  1.0000
  S   S116      1.0  0.37676  0.20586  0.91305  1.0000
  C   C432      1.0  0.26295  0.16028  0.78809  1.0000
  C   C433      1.0  0.38970  0.11562  0.90401  1.0000
  C   C434      1.0  0.40046  0.11696  0.93653  1.0000
  C   C435      1.0  0.40159  0.13204  0.95675  1.0000
  C   C436      1.0  0.39182  0.14597  0.94525  1.0000
  C   C437      1.0  0.38105  0.14465  0.91277  1.0000
  C   C438      1.0  0.37999  0.12958  0.89242  1.0000
  H   H781      1.0  0.40760  0.10627  0.94674  1.0000
  H   H782      1.0  0.40988  0.13284  0.98200  1.0000
  H   H783      1.0  0.37341  0.15518  0.90353  1.0000
  H   H784      1.0  0.37147  0.12869  0.86768  1.0000
  C   C439      1.0  0.48337  0.05599  0.78919  1.0000
  C   C440      1.0  0.48300  0.06432  0.82621  1.0000
  C   C441      1.0  0.45429  0.99480  0.03202  1.0000
  H   H785      1.0  0.47216  0.05131  0.77760  1.0000
  H   H786      1.0  0.38114  0.01267  0.85338  1.0000
  H   H787      1.0  0.35911  0.03141  0.87986  1.0000
  C   C442      1.0  0.29452  0.19550  0.71937  1.0000
  C   C443      1.0  0.40821  0.01688  0.99918  1.0000
  C   C444      1.0  0.40849  0.00541  0.96793  1.0000
  C   C445      1.0  0.25411  0.07033  0.49977  1.0000
  H   H788      1.0  0.30357  0.18507  0.71621  1.0000
  H   H789      1.0  0.40861  0.02988  0.99141  1.0000
  H   H790      1.0  0.28461  0.18674  0.77684  1.0000
  C   C446      1.0  0.35285  0.03041  0.85012  1.0000
  C   C447      1.0  0.35680  0.02311  0.66389  1.0000
  C   C448      1.0  0.35529  0.02955  0.70362  1.0000
  C   C449      1.0  0.36905  0.03526  0.72403  1.0000
  C   C450      1.0  0.38462  0.03458  0.70507  1.0000
  C   C451      1.0  0.38611  0.02817  0.66535  1.0000
  C   C452      1.0  0.37235  0.02246  0.64491  1.0000
  H   H791      1.0  0.34335  0.03020  0.71867  1.0000
  H   H792      1.0  0.36757  0.04042  0.75414  1.0000
  H   H793      1.0  0.39804  0.02763  0.65016  1.0000
  H   H794      1.0  0.36232  0.20003  0.82351  1.0000
  C   C453      1.0  0.25916  0.14029  0.84821  1.0000
  C   C454      1.0  0.26546  0.05874  0.48277  1.0000
  C   C455      1.0  0.27287  0.04619  0.50728  1.0000
  C   C456      1.0  0.26871  0.04528  0.54907  1.0000
  H   H795      1.0  0.43542  0.99539  0.18280  1.0000
  H   H796      1.0  0.26856  0.05956  0.45035  1.0000
  H   H797      1.0  0.27424  0.03567  0.56831  1.0000
  H   H798      1.0  0.27583  0.99974  0.44685  1.0000
  H   H799      1.0  0.44994  0.09354  0.97996  1.0000
  C   C457      1.0  0.31221  0.22488  0.07546  1.0000
  C   C458      1.0  0.32422  0.21884  0.10247  1.0000
  C   C459      1.0  0.25043  0.15152  0.81664  1.0000
  H   H800      1.0  0.32717  0.14028  0.12671  1.0000
  H   H801      1.0  0.34167  0.12722  0.18601  1.0000
  H   H802      1.0  0.25706  0.18455  0.60397  1.0000
  S   S117      1.0  0.25623  0.21127  0.65993  1.0000
  Fe  Fe60      1.0  0.33068  0.00497  0.57932  1.0000
  H   H803      1.0  0.35734  0.04003  0.82823  1.0000
  H   H804      1.0  0.41257  0.10883  0.82745  1.0000
  C   C460      1.0  0.24521  0.18402  0.76365  1.0000
  C   C461      1.0  0.31672  0.21897  0.86376  1.0000
  C   C462      1.0  0.30617  0.21562  0.83178  1.0000
  C   C463      1.0  0.29464  0.22763  0.81780  1.0000
  H   H805      1.0  0.42021  0.13466  0.88050  1.0000
  H   H806      1.0  0.30705  0.20375  0.81751  1.0000
  H   H807      1.0  0.28670  0.22506  0.79279  1.0000
  H   H808      1.0  0.45125  0.22861  0.97107  1.0000
  H   H809      1.0  0.33618  0.12478  0.09339  1.0000
  C   C464      1.0  0.27987  0.19039  0.74623  1.0000
  C   C465      1.0  0.47197  0.11242  0.83870  1.0000
  H   H810      1.0  0.42255  0.17901  0.85027  1.0000
  H   H811      1.0  0.46466  0.13232  0.87911  1.0000
  H   H812      1.0  0.34752  0.23886  0.15667  1.0000
  H   H813      1.0  0.26672  0.18063  0.69579  1.0000
  H   H814      1.0  0.31125  0.18193  0.10180  1.0000
  S   S118      1.0  0.33885  0.01600  0.64002  1.0000
  H   H815      1.0  0.37018  0.23551  0.83326  1.0000
  C   C466      1.0  0.25111  0.99906  0.50687  1.0000
  H   H816      1.0  0.29040  0.19969  0.68844  1.0000
  H   H817      1.0  0.41067  0.13060  0.81789  1.0000
  H   H818      1.0  0.44039  0.12947  0.78921  1.0000
  H   H819      1.0  0.36962  0.10985  0.98892  1.0000
  C   C467      1.0  0.44638  0.10902  0.92548  1.0000
  H   H820      1.0  0.39896  0.11491  0.76264  1.0000
  H   H821      1.0  0.30064  0.20586  0.73363  1.0000
  H   H822      1.0  0.47233  0.10293  0.86375  1.0000
  H   H823      1.0  0.26937  0.16876  0.80805  1.0000
  H   H824      1.0  0.25356  0.12291  0.66635  1.0000
  C   C468      1.0  0.45448  0.02304  0.99669  1.0000
  C   C469      1.0  0.46023  0.12711  0.85028  1.0000
  S   S119      1.0  0.30312  0.00300  0.57795  1.0000
  H   H825      1.0  0.45430  0.03650  0.00186  1.0000
  H   H826      1.0  0.26746  0.14746  0.86696  1.0000
  C   C470      1.0  0.43314  0.13775  0.87321  1.0000
  C   C471      1.0  0.44501  0.09255  0.94868  1.0000
  C   C472      1.0  0.40717  0.01152  0.04064  1.0000
  C   C473      1.0  0.46430  0.22572  0.96278  1.0000
  C   C474      1.0  0.31987  0.21662  0.14427  1.0000
  H   H827      1.0  0.25700  0.99439  0.42308  1.0000
  H   H828      1.0  0.36670  0.18406  0.10886  1.0000
  C   C475      1.0  0.35591  0.01329  0.83268  1.0000
  C   C476      1.0  0.24992  0.06941  0.54158  1.0000
  C   C477      1.0  0.41245  0.11622  0.76398  1.0000
  H   H829      1.0  0.42876  0.15262  0.81628  1.0000
  C   C478      1.0  0.37445  0.00951  0.82542  1.0000
  H   H830      1.0  0.35372  0.15046  0.14303  1.0000
  C   C479      1.0  0.29372  0.24312  0.83555  1.0000
  N   N25       1.0  0.25623  0.16955  0.75109  1.0000
  C   C480      1.0  0.42431  0.99764  0.77241  1.0000
  C   C481      1.0  0.48951  0.11800  0.83140  1.0000
  H   H831      1.0  0.31728  0.19106  0.05270  1.0000
  H   H832      1.0  0.43842  0.14055  0.90329  1.0000
  H   H833      1.0  0.30051  0.21807  0.19080  1.0000
  C   C482      1.0  0.43968  0.10824  0.88131  1.0000
  H   H834      1.0  0.37250  0.22623  0.75896  1.0000
  H   H835      1.0  0.25303  0.00258  0.63592  1.0000
  H   H836      1.0  0.42641  0.10579  0.88472  1.0000
  C   C483      1.0  0.41720  0.11912  0.80824  1.0000
  H   H837      1.0  0.32898  0.21181  0.16544  1.0000
  H   H838      1.0  0.32360  0.23699  0.90681  1.0000
  H   H839      1.0  0.36541  0.12123  0.05861  1.0000
  H   H840      1.0  0.45797  0.00323  0.11276  1.0000
  H   H841      1.0  0.37381  0.01757  0.61445  1.0000
  H   H842      1.0  0.45947  0.11221  0.92525  1.0000
  H   H843      1.0  0.44576  0.15893  0.84565  1.0000
  H   H844      1.0  0.45638  0.00152  0.18885  1.0000
  C   C484      1.0  0.29175  0.22637  0.13184  1.0000
  H   H845      1.0  0.33948  0.03271  0.85542  1.0000
  C   C485      1.0  0.31556  0.23433  0.88207  1.0000
  C   C486      1.0  0.24621  0.13339  0.67920  1.0000
  H   H846      1.0  0.32870  0.11313  0.16128  1.0000
  H   H847      1.0  0.27257  0.15105  0.77850  1.0000
  H   H848      1.0  0.43201  0.08907  0.95171  1.0000
  H   H849      1.0  0.37851  0.01864  0.80169  1.0000
  H   H850      1.0  0.27172  0.20149  0.74967  1.0000
  H   H851      1.0  0.37422  0.16690  0.13983  1.0000
  H   H852      1.0  0.43925  0.11833  0.94343  1.0000
  C   C487      1.0  0.43317  0.15414  0.84780  1.0000
  C   C488      1.0  0.40604  0.00212  0.77719  1.0000
  H   H853      1.0  0.34821  0.11343  0.00165  1.0000
  H   H854      1.0  0.44502  0.09704  0.86655  1.0000
  H   H855      1.0  0.41852  0.10476  0.75245  1.0000
  H   H856      1.0  0.39446  0.18506  0.07338  1.0000
  C   C489      1.0  0.30375  0.22032  0.15887  1.0000
  H   H857      1.0  0.41595  0.12678  0.74372  1.0000
  H   H858      1.0  0.32593  0.16427  0.02646  1.0000
  H   H859      1.0  0.46809  0.10653  0.81037  1.0000
  H   H860      1.0  0.31529  0.22659  0.04322  1.0000
  N   N26       1.0  0.30952  0.07414  0.57152  1.0000
  C   C490      1.0  0.31538  0.06271  0.53800  1.0000
  C   C491      1.0  0.30078  0.06464  0.60559  1.0000
  C   C492      1.0  0.29730  0.08641  0.55273  1.0000
  C   C493      1.0  0.32342  0.08353  0.58834  1.0000
  C   C494      1.0  0.33776  0.07307  0.60713  1.0000
  C   C495      1.0  0.32349  0.07090  0.49949  1.0000
  C   C496      1.0  0.28758  0.09778  0.58300  1.0000
  C   C497      1.0  0.30678  0.04660  0.61432  1.0000
  C   C498      1.0  0.29843  0.03942  0.65287  1.0000
  C   C499      1.0  0.35191  0.08387  0.61812  1.0000
  C   C500      1.0  0.33014  0.05796  0.46971  1.0000
  C   C501      1.0  0.27566  0.10944  0.55998  1.0000
  H   H861      1.0  0.30486  0.05577  0.52717  1.0000
  H   H862      1.0  0.32422  0.05311  0.54958  1.0000
  H   H863      1.0  0.30099  0.07142  0.63483  1.0000
  H   H864      1.0  0.28758  0.06365  0.59865  1.0000
  H   H865      1.0  0.28808  0.07981  0.53507  1.0000
  H   H866      1.0  0.30353  0.09477  0.53025  1.0000
  H   H867      1.0  0.32852  0.09205  0.56446  1.0000
  H   H868      1.0  0.31882  0.09168  0.61320  1.0000
  H   H869      1.0  0.34280  0.06372  0.58576  1.0000
  H   H870      1.0  0.33358  0.06688  0.63604  1.0000
  H   H871      1.0  0.31441  0.07878  0.48253  1.0000
  H   H872      1.0  0.33391  0.07845  0.50786  1.0000
  H   H873      1.0  0.29594  0.10547  0.60001  1.0000
  H   H874      1.0  0.28019  0.09056  0.60556  1.0000
  H   H875      1.0  0.30372  0.03882  0.58828  1.0000
  H   H876      1.0  0.32017  0.04552  0.61831  1.0000
  H   H877      1.0  0.30173  0.04634  0.68027  1.0000
  H   H878      1.0  0.28489  0.03983  0.64969  1.0000
  H   H879      1.0  0.30263  0.02638  0.65759  1.0000
  H   H880      1.0  0.35707  0.09005  0.59016  1.0000
  H   H881      1.0  0.34774  0.09331  0.64044  1.0000
  H   H882      1.0  0.36182  0.07607  0.63237  1.0000
  H   H883      1.0  0.32023  0.04980  0.46071  1.0000
  H   H884      1.0  0.33513  0.06411  0.44153  1.0000
  H   H885      1.0  0.34019  0.05038  0.48391  1.0000
  H   H886      1.0  0.26852  0.11714  0.58218  1.0000
  H   H887      1.0  0.28239  0.11771  0.53837  1.0000
  H   H888      1.0  0.26684  0.10238  0.54250  1.0000
  H   H889      1.0  0.34945  0.01315  0.80311  1.0000
  C   C502      1.0  0.43607  0.12005  0.81197  1.0000
  C   C503      1.0  0.29610  0.22853  0.09006  1.0000
  C   C504      1.0  0.42202  0.16721  0.86813  1.0000
  H   H890      1.0  0.26207  0.13559  0.73029  1.0000
  H   H891      1.0  0.46536  0.01981  0.97709  1.0000
  H   H892      1.0  0.42593  0.16936  0.89994  1.0000
  H   H893      1.0  0.31891  0.15393  0.07252  1.0000
  H   H894      1.0  0.39501  0.18809  0.12785  1.0000
  H   H895      1.0  0.35871  0.12746  0.96698  1.0000
  C   C505      1.0  0.45524  0.01363  0.03789  1.0000
  H   H896      1.0  0.34690  0.99417  0.71367  1.0000
  H   H897      1.0  0.26640  0.13034  0.83272  1.0000
  H   H898      1.0  0.35040  0.00437  0.85474  1.0000
  H   H899      1.0  0.40909  0.16329  0.86923  1.0000
  H   H900      1.0  0.40053  0.00149  0.74650  1.0000
  C   C506      1.0  0.40638  0.99468  0.05144  1.0000
  H   H901      1.0  0.43858  0.99517  0.10530  1.0000
  C   C507      1.0  0.36346  0.22137  0.78169  1.0000
  S   S120      1.0  0.27099  0.23051  0.14785  1.0000
  C   C508      1.0  0.24712  0.15858  0.72335  1.0000
  C   C509      1.0  0.49028  0.23747  0.93046  1.0000
  H   H902      1.0  0.26730  0.14794  0.68527  1.0000
  C   C510      1.0  0.25705  0.14373  0.70543  1.0000
  H   H903      1.0  0.40681  0.02051  0.06456  1.0000
  C   C511      1.0  0.27069  0.17616  0.72670  1.0000
  H   H904      1.0  0.35058  0.11166  0.15264  1.0000
  H   H905      1.0  0.34034  0.24164  0.74609  1.0000
  H   H906      1.0  0.44461  0.01803  0.05706  1.0000
  H   H907      1.0  0.46658  0.01696  0.05320  1.0000
  H   H908      1.0  0.44318  0.02017  0.98023  1.0000
  H   H909      1.0  0.46209  0.13698  0.82649  1.0000
  H   H910      1.0  0.37725  0.13426  0.02459  1.0000
  C   C512      1.0  0.37104  0.20562  0.80094  1.0000
  C   C513      1.0  0.25729  0.05679  0.56604  1.0000
  H   H911      1.0  0.28008  0.16620  0.72094  1.0000
  H   H912      1.0  0.45220  0.08273  0.93260  1.0000
  H   H913      1.0  0.40165  0.16853  0.10717  1.0000
  N   N27       1.0  0.44227  0.12331  0.85422  1.0000
  N   N28       1.0  0.35430  0.15383  0.07696  1.0000
  C   C514      1.0  0.35237  0.14428  0.03829  1.0000
  C   C515      1.0  0.34160  0.16787  0.07932  1.0000
  C   C516      1.0  0.37109  0.16117  0.07449  1.0000
  C   C517      1.0  0.35349  0.14293  0.11509  1.0000
  C   C518      1.0  0.33818  0.13229  0.12059  1.0000
  C   C519      1.0  0.36481  0.12968  0.03143  1.0000
  C   C520      1.0  0.37513  0.17305  0.10918  1.0000
  C   C521      1.0  0.32461  0.16523  0.06033  1.0000
  C   C522      1.0  0.31272  0.17977  0.06839  1.0000
  C   C523      1.0  0.33996  0.12038  0.15742  1.0000
  C   C524      1.0  0.35999  0.11952  0.99503  1.0000
  C   C525      1.0  0.39264  0.17902  0.10398  1.0000
  H   H914      1.0  0.35339  0.15274  0.01090  1.0000
  H   H915      1.0  0.33997  0.13919  0.03688  1.0000
  H   H916      1.0  0.33956  0.17170  0.11166  1.0000
  H   H917      1.0  0.34619  0.17905  0.06311  1.0000
  H   H918      1.0  0.37265  0.16815  0.04483  1.0000
  H   H919      1.0  0.38092  0.15135  0.07465  1.0000
  H   H920      1.0  0.36463  0.13467  0.11705  1.0000
  H   H921      1.0  0.47544  0.02936  0.85318  1.0000
  S   S121      1.0  0.26216  0.23623  0.27495  1.0000
  C   C526      1.0  0.48380  0.02195  0.87342  1.0000
  H   H922      1.0  0.49007  0.12716  0.80556  1.0000
  H   H923      1.0  0.37390  0.19655  0.77671  1.0000
  Fe  Fe61      1.0  0.25752  0.23889  0.20683  1.0000
  H   H924      1.0  0.24745  0.16341  0.35809  1.0000
  H   H925      1.0  0.32913  0.23875  0.79291  1.0000
  H   H926      1.0  0.38259  0.20825  0.81659  1.0000
  H   H927      1.0  0.43047  0.99823  0.80236  1.0000
  H   H928      1.0  0.28690  0.23298  0.06870  1.0000
  H   H929      1.0  0.24539  0.19385  0.73917  1.0000
  H   H930      1.0  0.31630  0.24102  0.22329  1.0000
  H   H931      1.0  0.26819  0.99890  0.57341  1.0000
  H   H932      1.0  0.30423  0.22990  0.28756  1.0000
  Fe  Fe62      1.0  0.24923  0.23181  0.70303  1.0000
  C   C527      1.0  0.35904  0.23422  0.81487  1.0000
  H   H933      1.0  0.35001  0.22855  0.83653  1.0000
  H   H934      1.0  0.25989  0.00928  0.50757  1.0000
  H   H935      1.0  0.24856  0.07992  0.48050  1.0000
  H   H936      1.0  0.46472  0.21565  0.94034  1.0000
  H   H937      1.0  0.37199  0.00069  0.75139  1.0000
  H   H938      1.0  0.47953  0.00912  0.87505  1.0000
  H   H939      1.0  0.24690  0.02062  0.57034  1.0000
  C   C528      1.0  0.47213  0.24110  0.94424  1.0000
  H   H940      1.0  0.43009  0.00654  0.75057  1.0000
  H   H941      1.0  0.48969  0.22901  0.90423  1.0000
  H   H942      1.0  0.48869  0.00076  0.05197  1.0000
  H   H943      1.0  0.24448  0.19053  0.32134  1.0000
  H   H944      1.0  0.40317  0.99375  0.83931  1.0000
  C   C529      1.0  0.30640  0.24329  0.28411  1.0000
  C   C530      1.0  0.36420  0.25928  0.77090  1.0000
  H   H945      1.0  0.45436  0.29873  0.08944  1.0000
  H   H946      1.0  0.26729  0.47888  0.50737  1.0000
  H   H947      1.0  0.36436  0.25117  0.17052  1.0000
  Fe  Fe63      1.0  0.25608  0.26360  0.27754  1.0000
  S   S122      1.0  0.27331  0.27896  0.31495  1.0000
  Fe  Fe64      1.0  0.41541  0.41131  0.60109  1.0000
  S   S123      1.0  0.44126  0.40199  0.58522  1.0000
  S   S124      1.0  0.39405  0.39451  0.58726  1.0000
  Fe  Fe65      1.0  0.42835  0.44162  0.64419  1.0000
  S   S125      1.0  0.45453  0.43413  0.63062  1.0000
  S   S126      1.0  0.42100  0.46226  0.68802  1.0000
  Fe  Fe66      1.0  0.44607  0.42832  0.56756  1.0000
  S   S127      1.0  0.46063  0.43897  0.51280  1.0000
  Fe  Fe67      1.0  0.44758  0.40841  0.64996  1.0000
  S   S128      1.0  0.46598  0.39354  0.69002  1.0000
  S   S129      1.0  0.41991  0.43745  0.57998  1.0000
  S   S130      1.0  0.42173  0.41610  0.66674  1.0000
  Fe  Fe68      1.0  0.28377  0.35645  0.54491  1.0000
  S   S131      1.0  0.29965  0.35518  0.48770  1.0000
  S   S132      1.0  0.28893  0.33718  0.59481  1.0000
  Fe  Fe69      1.0  0.26532  0.38849  0.51692  1.0000
  S   S133      1.0  0.28001  0.38925  0.45758  1.0000
  H   H948      1.0  0.26963  0.26854  0.54425  1.0000
  Fe  Fe70      1.0  0.27612  0.36169  0.45501  1.0000
  S   S134      1.0  0.26481  0.34909  0.40031  1.0000
  Fe  Fe71      1.0  0.30240  0.38248  0.49571  1.0000
  S   S135      1.0  0.32597  0.39749  0.49125  1.0000
  S   S136      1.0  0.26020  0.36147  0.51243  1.0000
  S   S137      1.0  0.28781  0.38322  0.55471  1.0000
  H   H949      1.0  0.43420  0.31017  0.13561  1.0000
  Fe  Fe72      1.0  0.47320  0.30870  0.96164  1.0000
  H   H950      1.0  0.47089  0.25087  0.96715  1.0000
  S   S138      1.0  0.45771  0.28750  0.98806  1.0000
  C   C531      1.0  0.48723  0.30053  0.10678  1.0000
  S   S139      1.0  0.46123  0.35723  0.86733  1.0000
  S   S140      1.0  0.24640  0.40673  0.54571  1.0000
  S   S141      1.0  0.46811  0.33564  0.97190  1.0000
  C   C532      1.0  0.43737  0.32313  0.12798  1.0000
  C   C533      1.0  0.41271  0.25888  0.94769  1.0000
  C   C534      1.0  0.41863  0.27204  0.92318  1.0000
  C   C535      1.0  0.43244  0.28080  0.93460  1.0000
  C   C536      1.0  0.44059  0.27653  0.97088  1.0000
  C   C537      1.0  0.43475  0.26331  0.99528  1.0000
  C   C538      1.0  0.42095  0.25454  0.98383  1.0000
  H   H951      1.0  0.43663  0.29099  0.91559  1.0000
  H   H952      1.0  0.44089  0.25987  0.02345  1.0000
  H   H953      1.0  0.24595  0.27945  0.40516  1.0000
  C   C539      1.0  0.46415  0.38282  0.73850  1.0000
  C   C540      1.0  0.47842  0.37606  0.75686  1.0000
  C   C541      1.0  0.47776  0.36787  0.79566  1.0000
  C   C542      1.0  0.46277  0.36641  0.81695  1.0000
  C   C543      1.0  0.44848  0.37317  0.79856  1.0000
  C   C544      1.0  0.44911  0.38119  0.75953  1.0000
  H   H954      1.0  0.27119  0.34890  0.71925  1.0000
  H   H955      1.0  0.25140  0.29891  0.54977  1.0000
  H   H956      1.0  0.43680  0.37216  0.81464  1.0000
  H   H957      1.0  0.43798  0.38617  0.74588  1.0000
  C   C545      1.0  0.37501  0.39596  0.56109  1.0000
  C   C546      1.0  0.36893  0.41057  0.54251  1.0000
  C   C547      1.0  0.35392  0.41080  0.52148  1.0000
  C   C548      1.0  0.34455  0.39659  0.51953  1.0000
  C   C549      1.0  0.35067  0.38199  0.53808  1.0000
  C   C550      1.0  0.36586  0.38167  0.55823  1.0000
  H   H958      1.0  0.37578  0.42168  0.54422  1.0000
  H   H959      1.0  0.34943  0.42214  0.50691  1.0000
  H   H960      1.0  0.34387  0.37085  0.53608  1.0000
  H   H961      1.0  0.37068  0.37022  0.57145  1.0000
  C   C551      1.0  0.47163  0.42910  0.47218  1.0000
  C   C552      1.0  0.47145  0.41209  0.46692  1.0000
  Fe  Fe73      1.0  0.26099  0.25298  0.77135  1.0000
  H   H962      1.0  0.44070  0.35188  0.02544  1.0000
  C   C553      1.0  0.44268  0.35486  0.05801  1.0000
  H   H963      1.0  0.46432  0.40452  0.48790  1.0000
  C   C554      1.0  0.42197  0.33443  0.13496  1.0000
  H   H964      1.0  0.41239  0.27558  0.89520  1.0000
  C   C555      1.0  0.35211  0.37943  0.73985  1.0000
  H   H965      1.0  0.30568  0.29756  0.49672  1.0000
  C   C556      1.0  0.27067  0.45276  0.51643  1.0000
  H   H966      1.0  0.48795  0.41291  0.82878  1.0000
  C   C557      1.0  0.35192  0.25163  0.15730  1.0000
  H   H967      1.0  0.34388  0.38550  0.76292  1.0000
  H   H968      1.0  0.27782  0.45121  0.48732  1.0000
  H   H969      1.0  0.45351  0.37504  0.08978  1.0000
  C   C558      1.0  0.27026  0.29817  0.33987  1.0000
  C   C559      1.0  0.28274  0.30373  0.36474  1.0000
  C   C560      1.0  0.28114  0.31904  0.38430  1.0000
  C   C561      1.0  0.26706  0.32911  0.37892  1.0000
  C   C562      1.0  0.25454  0.32350  0.35420  1.0000
  C   C563      1.0  0.25604  0.30808  0.33512  1.0000
  H   H970      1.0  0.29383  0.29622  0.36860  1.0000
  H   H971      1.0  0.29098  0.32327  0.40255  1.0000
  H   H972      1.0  0.31881  0.25128  0.15878  1.0000
  H   H973      1.0  0.26227  0.27861  0.58874  1.0000
  C   C564      1.0  0.30413  0.24638  0.86787  1.0000
  C   C565      1.0  0.25827  0.27343  0.55950  1.0000
  C   C566      1.0  0.26503  0.30093  0.65612  1.0000
  C   C567      1.0  0.27720  0.31143  0.64090  1.0000
  C   C568      1.0  0.27317  0.32466  0.61409  1.0000
  C   C569      1.0  0.25683  0.32754  0.60312  1.0000
  H   H974      1.0  0.30400  0.26935  0.72994  1.0000
  H   H975      1.0  0.26829  0.29065  0.67638  1.0000
  H   H976      1.0  0.28981  0.30918  0.64961  1.0000
  H   H977      1.0  0.39524  0.25965  0.73166  1.0000
  C   C570      1.0  0.24873  0.30364  0.64463  1.0000
  N   N29       1.0  0.31018  0.27349  0.18884  1.0000
  C   C571      1.0  0.34736  0.26148  0.83531  1.0000
  C   C572      1.0  0.31493  0.29127  0.18925  1.0000
  C   C573      1.0  0.47754  0.41680  0.84925  1.0000
  C   C574      1.0  0.32301  0.26386  0.16460  1.0000
  C   C575      1.0  0.34031  0.26240  0.18345  1.0000
  H   H978      1.0  0.41743  0.30368  0.08551  1.0000
  C   C576      1.0  0.49132  0.49016  0.42346  1.0000
  C   C577      1.0  0.30172  0.30361  0.20657  1.0000
  C   C578      1.0  0.30837  0.32091  0.20852  1.0000
  H   H979      1.0  0.29649  0.25007  0.30120  1.0000
  C   C579      1.0  0.29757  0.30849  0.50305  1.0000
  H   H980      1.0  0.43304  0.29376  0.05411  1.0000
  C   C580      1.0  0.41360  0.33039  0.17622  1.0000
  H   H981      1.0  0.31969  0.27043  0.25037  1.0000
  H   H982      1.0  0.32605  0.29246  0.20798  1.0000
  H   H983      1.0  0.31859  0.29573  0.15791  1.0000
  H   H984      1.0  0.40281  0.33889  0.18094  1.0000
  C   C581      1.0  0.48690  0.43981  0.69856  1.0000
  H   H985      1.0  0.46464  0.24526  0.91769  1.0000
  H   H986      1.0  0.32475  0.26957  0.13350  1.0000
  C   C582      1.0  0.30638  0.24836  0.23865  1.0000
  H   H987      1.0  0.34569  0.27471  0.18505  1.0000
  H   H988      1.0  0.36029  0.33304  0.60136  1.0000
  H   H989      1.0  0.40927  0.31756  0.17694  1.0000
  H   H990      1.0  0.30050  0.27088  0.10331  1.0000
  H   H991      1.0  0.30011  0.35697  0.72325  1.0000
  H   H992      1.0  0.29081  0.30445  0.18679  1.0000
  H   H993      1.0  0.29766  0.29993  0.23808  1.0000
  N   N30       1.0  0.35224  0.25073  0.79952  1.0000
  H   H994      1.0  0.30524  0.24820  0.74734  1.0000
  C   C583      1.0  0.48268  0.26296  0.85883  1.0000
  H   H995      1.0  0.49293  0.30320  0.07623  1.0000
  H   H996      1.0  0.25613  0.25405  0.37390  1.0000
  H   H997      1.0  0.30341  0.25833  0.88178  1.0000
  H   H998      1.0  0.25306  0.49265  0.60903  1.0000
  H   H999      1.0  0.28040  0.28104  0.48240  1.0000
  H   H1000     1.0  0.34141  0.33705  0.57464  1.0000
  H   H1001     1.0  0.35832  0.39212  0.38910  1.0000
  H   H1002     1.0  0.38764  0.28057  0.73956  1.0000
  H   H1003     1.0  0.48927  0.40426  0.90107  1.0000
  H   H1004     1.0  0.43054  0.35675  0.07318  1.0000
  H   H1005     1.0  0.46428  0.33963  0.05919  1.0000
  H   H1006     1.0  0.35340  0.37493  0.67547  1.0000
  H   H1007     1.0  0.33972  0.27154  0.91493  1.0000
  S   S142      1.0  0.26457  0.25433  0.70272  1.0000
  H   H1008     1.0  0.36627  0.25219  0.74244  1.0000
  S   S143      1.0  0.28043  0.25897  0.81664  1.0000
  H   H1009     1.0  0.29658  0.34403  0.68055  1.0000
  H   H1010     1.0  0.32884  0.36017  0.71428  1.0000
  H   H1011     1.0  0.44399  0.38089  0.04190  1.0000
  C   C584      1.0  0.29444  0.35654  0.69268  1.0000
  H   H1012     1.0  0.45760  0.34560  0.10853  1.0000
  C   C585      1.0  0.41223  0.30335  0.02152  1.0000
  H   H1013     1.0  0.33775  0.41439  0.61420  1.0000
  H   H1014     1.0  0.31938  0.38003  0.71781  1.0000
  C   C586      1.0  0.25948  0.46820  0.51317  1.0000
  C   C587      1.0  0.25157  0.27266  0.46956  1.0000
  H   H1015     1.0  0.44044  0.32102  0.02204  1.0000
  H   H1016     1.0  0.25914  0.26254  0.48393  1.0000
  H   H1017     1.0  0.46997  0.45152  0.82081  1.0000
  N   N31       1.0  0.44546  0.32427  0.08606  1.0000
  H   H1018     1.0  0.42218  0.33187  0.20178  1.0000
  H   H1019     1.0  0.29525  0.36879  0.63292  1.0000
  H   H1020     1.0  0.42412  0.33085  0.04942  1.0000
  H   H1021     1.0  0.48669  0.44942  0.67369  1.0000
  H   H1022     1.0  0.30303  0.31552  0.52780  1.0000
  C   C588      1.0  0.27586  0.35883  0.69858  1.0000
  S   S144      1.0  0.48163  0.31313  0.89647  1.0000
  H   H1023     1.0  0.44610  0.32638  0.15196  1.0000
  H   H1024     1.0  0.27266  0.37090  0.71240  1.0000
  H   H1025     1.0  0.33993  0.25678  0.21479  1.0000
  H   H1026     1.0  0.49013  0.37717  0.74099  1.0000
  H   H1027     1.0  0.26752  0.27609  0.41449  1.0000
  H   H1028     1.0  0.32113  0.34332  0.65823  1.0000
  H   H1029     1.0  0.46357  0.36994  0.04154  1.0000
  N   N32       1.0  0.45850  0.43078  0.79437  1.0000
  C   C589      1.0  0.44306  0.42734  0.77174  1.0000
  H   H1030     1.0  0.29618  0.29145  0.12103  1.0000
  C   C590      1.0  0.46119  0.41694  0.82574  1.0000
  C   C591      1.0  0.45742  0.44699  0.81620  1.0000
  C   C592      1.0  0.47296  0.44337  0.72953  1.0000
  C   C593      1.0  0.42768  0.42431  0.79951  1.0000
  C   C594      1.0  0.42447  0.30458  0.05611  1.0000
  C   C595      1.0  0.38108  0.26303  0.78858  1.0000
  S   S145      1.0  0.39497  0.24855  0.93169  1.0000
  H   H1031     1.0  0.37113  0.26070  0.86765  1.0000
  C   C596      1.0  0.41186  0.42565  0.77533  1.0000
  H   H1032     1.0  0.42558  0.34745  0.13572  1.0000
  H   H1033     1.0  0.44505  0.41627  0.75254  1.0000
  H   H1034     1.0  0.43992  0.43736  0.74924  1.0000
  C   C597      1.0  0.25394  0.25420  0.40765  1.0000
  S   S146      1.0  0.25314  0.26629  0.20928  1.0000
  H   H1035     1.0  0.46064  0.40481  0.81089  1.0000
  H   H1036     1.0  0.45120  0.41714  0.84951  1.0000
  H   H1037     1.0  0.45211  0.44531  0.84776  1.0000
  H   H1038     1.0  0.31776  0.40384  0.66871  1.0000
  H   H1039     1.0  0.43371  0.45872  0.79870  1.0000
  H   H1040     1.0  0.48888  0.36284  0.80930  1.0000
  H   H1041     1.0  0.42851  0.41169  0.81348  1.0000
  H   H1042     1.0  0.42669  0.43321  0.82473  1.0000
  H   H1043     1.0  0.34155  0.32429  0.62101  1.0000
  H   H1044     1.0  0.41278  0.33311  0.11086  1.0000
  C   C598      1.0  0.32577  0.26291  0.76487  1.0000
  C   C599      1.0  0.48071  0.40483  0.43466  1.0000
  H   H1045     1.0  0.35892  0.27136  0.76011  1.0000
  H   H1046     1.0  0.26648  0.28541  0.12788  1.0000
  H   H1047     1.0  0.32189  0.41267  0.57664  1.0000
  H   H1048     1.0  0.33476  0.25870  0.84650  1.0000
  H   H1049     1.0  0.47171  0.28731  0.84626  1.0000
  H   H1050     1.0  0.34972  0.34844  0.66085  1.0000
  H   H1051     1.0  0.41173  0.41575  0.75256  1.0000
  H   H1052     1.0  0.40115  0.42418  0.79657  1.0000
  H   H1053     1.0  0.41057  0.43785  0.75930  1.0000
  C   C600      1.0  0.27499  0.27762  0.10900  1.0000
  Fe  Fe74      1.0  0.47804  0.34030  0.90747  1.0000
  H   H1054     1.0  0.30296  0.40169  0.62933  1.0000
  H   H1055     1.0  0.34313  0.39381  0.68871  1.0000
  H   H1056     1.0  0.26333  0.44162  0.52192  1.0000
  C   C601      1.0  0.45914  0.31125  0.08411  1.0000
  H   H1057     1.0  0.35283  0.25664  0.12532  1.0000
  H   H1058     1.0  0.31897  0.32098  0.22933  1.0000
  H   H1059     1.0  0.25166  0.46689  0.48598  1.0000
  H   H1060     1.0  0.46486  0.31122  0.05269  1.0000
  H   H1061     1.0  0.49018  0.27350  0.98483  1.0000
  H   H1062     1.0  0.31900  0.42673  0.61806  1.0000
  H   H1063     1.0  0.31880  0.35247  0.60855  1.0000
  C   C602      1.0  0.43373  0.32094  0.05222  1.0000
  N   N33       1.0  0.40977  0.39729  0.45296  1.0000
  C   C603      1.0  0.39324  0.38962  0.44991  1.0000
  C   C604      1.0  0.41880  0.39012  0.48981  1.0000
  C   C605      1.0  0.40669  0.41549  0.45936  1.0000
  C   C606      1.0  0.42006  0.39539  0.41421  1.0000
  C   C607      1.0  0.42346  0.37766  0.39950  1.0000
  C   C608      1.0  0.38193  0.39661  0.41552  1.0000
  C   C609      1.0  0.42195  0.42561  0.46862  1.0000
  C   C610      1.0  0.41584  0.37179  0.50190  1.0000
  C   C611      1.0  0.42750  0.36541  0.53519  1.0000
  C   C612      1.0  0.43251  0.37776  0.35791  1.0000
  C   C613      1.0  0.36649  0.38656  0.41290  1.0000
  C   C614      1.0  0.41717  0.44390  0.47186  1.0000
  H   H1064     1.0  0.38627  0.39101  0.47947  1.0000
  H   H1065     1.0  0.39451  0.37615  0.44567  1.0000
  H   H1066     1.0  0.43226  0.39174  0.48589  1.0000
  H   H1067     1.0  0.41522  0.39702  0.51783  1.0000
  H   H1068     1.0  0.39767  0.41739  0.48518  1.0000
  H   H1069     1.0  0.40109  0.42149  0.43174  1.0000
  H   H1070     1.0  0.41457  0.40283  0.38852  1.0000
  H   H1071     1.0  0.43238  0.40051  0.41814  1.0000
  H   H1072     1.0  0.41199  0.37098  0.39592  1.0000
  H   H1073     1.0  0.43155  0.37081  0.42139  1.0000
  H   H1074     1.0  0.37778  0.40945  0.42192  1.0000
  H   H1075     1.0  0.38828  0.39634  0.38512  1.0000
  H   H1076     1.0  0.43150  0.42461  0.44405  1.0000
  H   H1077     1.0  0.42754  0.42142  0.49795  1.0000
  H   H1078     1.0  0.40315  0.37053  0.51444  1.0000
  H   H1079     1.0  0.41737  0.36359  0.47552  1.0000
  H   H1080     1.0  0.44049  0.36703  0.52546  1.0000
  H   H1081     1.0  0.42491  0.37199  0.56416  1.0000
  H   H1082     1.0  0.42563  0.35211  0.54142  1.0000
  H   H1083     1.0  0.42491  0.38416  0.33413  1.0000
  H   H1084     1.0  0.44437  0.38401  0.35989  1.0000
  H   H1085     1.0  0.43513  0.36491  0.34832  1.0000
  C   C615      1.0  0.47291  0.43018  0.76454  1.0000
  H   H1086     1.0  0.36970  0.37367  0.40459  1.0000
  H   H1087     1.0  0.35960  0.38652  0.44267  1.0000
  H   H1088     1.0  0.42802  0.45083  0.48054  1.0000
  H   H1089     1.0  0.41280  0.44896  0.44192  1.0000
  H   H1090     1.0  0.40736  0.44581  0.49558  1.0000
  C   C616      1.0  0.48097  0.43875  0.44455  1.0000
  C   C617      1.0  0.42459  0.48342  0.69631  1.0000
  H   H1091     1.0  0.29818  0.27324  0.24874  1.0000
  H   H1092     1.0  0.31810  0.25509  0.70483  1.0000
  C   C618      1.0  0.39282  0.26924  0.75488  1.0000
  C   C619      1.0  0.49027  0.43148  0.41239  1.0000
  N   N34       1.0  0.25477  0.28889  0.48911  1.0000
  H   H1093     1.0  0.27087  0.26472  0.11049  1.0000
  H   H1094     1.0  0.47402  0.41779  0.75065  1.0000
  H   H1095     1.0  0.48282  0.28774  0.10780  1.0000
  H   H1096     1.0  0.25609  0.46743  0.57959  1.0000
  H   H1097     1.0  0.48458  0.43184  0.78057  1.0000
  H   H1098     1.0  0.40664  0.29107  0.02300  1.0000
  H   H1099     1.0  0.46851  0.31028  0.14705  1.0000
  H   H1100     1.0  0.33278  0.27306  0.75056  1.0000
  H   H1101     1.0  0.26969  0.35811  0.66863  1.0000
  H   H1102     1.0  0.24742  0.30294  0.43468  1.0000
  H   H1103     1.0  0.28167  0.29613  0.54581  1.0000
  H   H1104     1.0  0.40231  0.31297  0.02432  1.0000
  H   H1105     1.0  0.47524  0.39185  0.87459  1.0000
  H   H1106     1.0  0.48556  0.41213  0.54915  1.0000
  C   C620      1.0  0.27272  0.29262  0.48344  1.0000
  H   H1107     1.0  0.36399  0.38575  0.73890  1.0000
  H   H1108     1.0  0.48544  0.42764  0.68456  1.0000
  H   H1109     1.0  0.28395  0.27784  0.18774  1.0000
  H   H1110     1.0  0.35448  0.36636  0.74939  1.0000
  C   C621      1.0  0.45312  0.34088  0.07916  1.0000
  C   C622      1.0  0.45150  0.37116  0.05791  1.0000
  C   C623      1.0  0.49044  0.26640  0.90082  1.0000
  H   H1111     1.0  0.29662  0.38192  0.67535  1.0000
  H   H1112     1.0  0.27443  0.28214  0.07661  1.0000
  H   H1113     1.0  0.29863  0.32947  0.22070  1.0000
  H   H1114     1.0  0.31917  0.38067  0.59497  1.0000
  H   H1115     1.0  0.38707  0.25202  0.80325  1.0000
  C   C624      1.0  0.29255  0.27845  0.12409  1.0000
  H   H1116     1.0  0.48857  0.39233  0.57436  1.0000
  H   H1117     1.0  0.47824  0.32532  0.11411  1.0000
  H   H1118     1.0  0.27297  0.31453  0.52301  1.0000
  H   H1119     1.0  0.29061  0.25866  0.16832  1.0000
  H   H1120     1.0  0.27484  0.29879  0.45302  1.0000
  C   C625      1.0  0.35788  0.25968  0.87440  1.0000
  C   C626      1.0  0.35284  0.27265  0.90573  1.0000
  C   C627      1.0  0.49029  0.41445  0.40744  1.0000
  C   C628      1.0  0.30881  0.26713  0.23268  1.0000
  C   C629      1.0  0.47310  0.31286  0.11532  1.0000
  H   H1121     1.0  0.48062  0.39164  0.43103  1.0000
  H   H1122     1.0  0.34677  0.27470  0.82536  1.0000
  H   H1123     1.0  0.31221  0.32545  0.17746  1.0000
  C   C630      1.0  0.32429  0.41449  0.60959  1.0000
  C   C631      1.0  0.44697  0.46125  0.79585  1.0000
  C   C632      1.0  0.28043  0.30325  0.51649  1.0000
  H   H1124     1.0  0.25689  0.32488  0.47442  1.0000
  H   H1125     1.0  0.33703  0.38478  0.62110  1.0000
  C   C633      1.0  0.29383  0.27181  0.16899  1.0000
  H   H1126     1.0  0.27938  0.45376  0.54187  1.0000
  H   H1127     1.0  0.37960  0.27294  0.81126  1.0000
  H   H1128     1.0  0.36039  0.27075  0.93354  1.0000
  H   H1129     1.0  0.35489  0.28521  0.89289  1.0000
  H   H1130     1.0  0.34927  0.36098  0.61439  1.0000
  H   H1131     1.0  0.41851  0.30484  0.99113  1.0000
  H   H1132     1.0  0.47503  0.45566  0.74216  1.0000
  H   H1133     1.0  0.46231  0.27091  0.82065  1.0000
  H   H1134     1.0  0.29691  0.31657  0.47512  1.0000
  H   H1135     1.0  0.44983  0.46301  0.76277  1.0000
  H   H1136     1.0  0.46133  0.44387  0.71270  1.0000
  N   N35       1.0  0.31975  0.37009  0.65670  1.0000
  C   C634      1.0  0.32362  0.38370  0.62586  1.0000
  C   C635      1.0  0.32499  0.35382  0.63837  1.0000
  C   C636      1.0  0.30130  0.37002  0.66288  1.0000
  C   C637      1.0  0.32756  0.37230  0.69772  1.0000
  C   C638      1.0  0.34450  0.38055  0.69742  1.0000
  C   C639      1.0  0.31628  0.40104  0.63593  1.0000
  H   H1137     1.0  0.47991  0.42912  0.86123  1.0000
  C   C640      1.0  0.34358  0.35060  0.63103  1.0000
  C   C641      1.0  0.34686  0.33528  0.60547  1.0000
  H   H1138     1.0  0.45846  0.27345  0.87474  1.0000
  H   H1139     1.0  0.46748  0.40786  0.90808  1.0000
  H   H1140     1.0  0.40468  0.27223  0.76858  1.0000
  C   C642      1.0  0.33700  0.24760  0.77560  1.0000
  H   H1141     1.0  0.35606  0.24744  0.88932  1.0000
  C   C643      1.0  0.47730  0.40445  0.88544  1.0000
  H   H1142     1.0  0.48061  0.27067  0.92251  1.0000
  C   C644      1.0  0.41843  0.48984  0.73318  1.0000
  C   C645      1.0  0.44960  0.47757  0.81658  1.0000
  H   H1143     1.0  0.25358  0.33780  0.58281  1.0000
  H   H1144     1.0  0.31942  0.26762  0.79287  1.0000
  C   C646      1.0  0.24484  0.31973  0.48313  1.0000
  C   C647      1.0  0.31252  0.25856  0.73489  1.0000
  C   C648      1.0  0.24842  0.47012  0.55223  1.0000
  H   H1145     1.0  0.29445  0.24493  0.22628  1.0000
  H   H1146     1.0  0.46258  0.48113  0.81282  1.0000
  H   H1147     1.0  0.44172  0.48743  0.80219  1.0000
  H   H1148     1.0  0.48108  0.45193  0.44818  1.0000
  H   H1149     1.0  0.26335  0.24595  0.42239  1.0000
  H   H1150     1.0  0.47867  0.25010  0.85742  1.0000
  H   H1151     1.0  0.41209  0.48191  0.75499  1.0000
  C   C649      1.0  0.46789  0.27440  0.84980  1.0000
  H   H1152     1.0  0.49087  0.36064  0.13976  1.0000
  H   H1153     1.0  0.38748  0.49164  0.69550  1.0000
  H   H1154     1.0  0.25396  0.24978  0.58970  1.0000
  C   C650      1.0  0.25508  0.27180  0.42258  1.0000
  H   H1155     1.0  0.43757  0.48923  0.63971  1.0000
  H   H1156     1.0  0.36765  0.48389  0.68535  1.0000
  H   H1157     1.0  0.31839  0.24580  0.29776  1.0000
  C   C651      1.0  0.24709  0.25921  0.57095  1.0000
  H   H1158     1.0  0.49196  0.26482  0.83377  1.0000
  C   C652      1.0  0.24944  0.28737  0.53365  1.0000
  H   H1159     1.0  0.44629  0.47664  0.84977  1.0000
  H   H1160     1.0  0.24635  0.30407  0.31599  1.0000
  H   H1161     1.0  0.47784  0.48876  0.42653  1.0000
  H   H1162     1.0  0.49209  0.25274  0.00625  1.0000
  C   C653      1.0  0.24463  0.31708  0.61851  1.0000
  H   H1163     1.0  0.41662  0.24448  0.00307  1.0000
  H   H1164     1.0  0.35033  0.74119  0.16933  1.0000
  C   C654      1.0  0.37407  0.49423  0.69884  1.0000
  H   H1165     1.0  0.39312  0.63617  0.78202  1.0000
  H   H1166     1.0  0.28013  0.72321  0.62182  1.0000
  S   S147      1.0  0.27756  0.74047  0.92295  1.0000
  H   H1167     1.0  0.37066  0.49478  0.73196  1.0000
  Fe  Fe75      1.0  0.28106  0.63878  0.56497  1.0000
  S   S148      1.0  0.25847  0.63460  0.60349  1.0000
  S   S149      1.0  0.28563  0.65980  0.51936  1.0000
  Fe  Fe76      1.0  0.30047  0.60939  0.60427  1.0000
  S   S150      1.0  0.27902  0.60271  0.64575  1.0000
  S   S151      1.0  0.32462  0.59401  0.59884  1.0000
  Fe  Fe77      1.0  0.26284  0.60741  0.59097  1.0000
  H   H1168     1.0  0.48662  0.61254  0.61599  1.0000
  Fe  Fe78      1.0  0.27598  0.63018  0.65521  1.0000
  S   S152      1.0  0.27424  0.64113  0.71862  1.0000
  S   S153      1.0  0.28452  0.61219  0.54857  1.0000
  S   S154      1.0  0.29843  0.63630  0.61751  1.0000
  Fe  Fe79      1.0  0.47048  0.69598  0.01502  1.0000
  H   H1169     1.0  0.39934  0.65674  0.78116  1.0000
  S   S155      1.0  0.45322  0.71904  0.00963  1.0000
  S   S156      1.0  0.47322  0.64179  0.93524  1.0000
  S   S157      1.0  0.46678  0.66921  0.03212  1.0000
  Fe  Fe80      1.0  0.42099  0.59332  0.66265  1.0000
  S   S158      1.0  0.42705  0.58567  0.72743  1.0000
  S   S159      1.0  0.39701  0.60878  0.65803  1.0000
  Fe  Fe81      1.0  0.45487  0.58020  0.63019  1.0000
  S   S160      1.0  0.46252  0.57197  0.69373  1.0000
  S   S161      1.0  0.47405  0.57202  0.58169  1.0000
  Fe  Fe82      1.0  0.43710  0.56212  0.69945  1.0000
  S   S162      1.0  0.42982  0.53787  0.73036  1.0000
  Fe  Fe83      1.0  0.45188  0.59625  0.71582  1.0000
  S   S163      1.0  0.46508  0.61620  0.75104  1.0000
  S   S164      1.0  0.42970  0.56924  0.63540  1.0000
  S   S165      1.0  0.44552  0.60497  0.65155  1.0000
  H   H1170     1.0  0.40406  0.70425  0.93610  1.0000
  H   H1171     1.0  0.41903  0.67135  0.82531  1.0000
  H   H1172     1.0  0.26602  0.70550  0.43014  1.0000
  C   C655      1.0  0.42833  0.51708  0.71498  1.0000
  C   C656      1.0  0.42032  0.50639  0.74242  1.0000
  C   C657      1.0  0.43461  0.51085  0.67766  1.0000
  H   H1173     1.0  0.24629  0.69279  0.12436  1.0000
  H   H1174     1.0  0.44092  0.51894  0.65623  1.0000
  C   C658      1.0  0.47151  0.63484  0.88362  1.0000
  C   C659      1.0  0.46508  0.61923  0.87724  1.0000
  C   C660      1.0  0.46317  0.61323  0.83725  1.0000
  C   C661      1.0  0.46761  0.62280  0.80267  1.0000
  C   C662      1.0  0.47410  0.63839  0.80898  1.0000
  C   C663      1.0  0.47601  0.64438  0.84899  1.0000
  C   C664      1.0  0.34266  0.72127  0.91814  1.0000
  H   H1175     1.0  0.45837  0.60116  0.83329  1.0000
  C   C665      1.0  0.27003  0.51988  0.58180  1.0000
  H   H1176     1.0  0.32936  0.56088  0.63842  1.0000
  H   H1177     1.0  0.47576  0.51942  0.43472  1.0000
  C   C666      1.0  0.34461  0.59826  0.61611  1.0000
  C   C667      1.0  0.35798  0.58787  0.60440  1.0000
  C   C668      1.0  0.37403  0.59068  0.61750  1.0000
  C   C669      1.0  0.37695  0.60407  0.64214  1.0000
  C   C670      1.0  0.36359  0.61455  0.65345  1.0000
  C   C671      1.0  0.34752  0.61160  0.64088  1.0000
  H   H1178     1.0  0.35593  0.57768  0.58474  1.0000
  H   H1179     1.0  0.38421  0.58276  0.60772  1.0000
  H   H1180     1.0  0.36567  0.62502  0.67226  1.0000
  H   H1181     1.0  0.33739  0.61967  0.65032  1.0000
  C   C672      1.0  0.41069  0.72114  0.07960  1.0000
  C   C673      1.0  0.42565  0.71542  0.06146  1.0000
  C   C674      1.0  0.43447  0.72566  0.03451  1.0000
  H   H1182     1.0  0.25074  0.68218  0.60164  1.0000
  H   H1183     1.0  0.43033  0.70305  0.06826  1.0000
  H   H1184     1.0  0.32730  0.73199  0.86954  1.0000
  H   H1185     1.0  0.42518  0.63980  0.65618  1.0000
  H   H1186     1.0  0.46993  0.54761  0.44721  1.0000
  H   H1187     1.0  0.29225  0.72035  0.68309  1.0000
  H   H1188     1.0  0.42574  0.65884  0.68312  1.0000
  C   C675      1.0  0.26282  0.65932  0.73106  1.0000
  C   C676      1.0  0.26807  0.66899  0.76312  1.0000
  S   S166      1.0  0.28069  0.73303  0.27965  1.0000
  C   C677      1.0  0.48013  0.57296  0.39487  1.0000
  C   C678      1.0  0.43007  0.66416  0.83547  1.0000
  H   H1189     1.0  0.27321  0.49632  0.55440  1.0000
  C   C679      1.0  0.27000  0.67286  0.49811  1.0000
  C   C680      1.0  0.27445  0.68542  0.47001  1.0000
  H   H1190     1.0  0.26374  0.73443  0.59872  1.0000
  H   H1191     1.0  0.28724  0.68697  0.46200  1.0000
  C   C681      1.0  0.34957  0.73802  0.92994  1.0000
  S   S167      1.0  0.25933  0.73995  0.80601  1.0000
  H   H1192     1.0  0.41941  0.71737  0.95489  1.0000
  H   H1193     1.0  0.32498  0.54082  0.66050  1.0000
  H   H1194     1.0  0.46477  0.51790  0.49757  1.0000
  H   H1195     1.0  0.28105  0.70263  0.70022  1.0000
  C   C682      1.0  0.48324  0.54994  0.44871  1.0000
  H   H1196     1.0  0.44031  0.66674  0.81340  1.0000
  H   H1197     1.0  0.49331  0.50020  0.48310  1.0000
  H   H1198     1.0  0.26493  0.70130  0.64701  1.0000
  S   S168      1.0  0.49346  0.69690  0.05189  1.0000
  H   H1199     1.0  0.35128  0.71496  0.89639  1.0000
  N   N36       1.0  0.41812  0.63887  0.80125  1.0000
  C   C683      1.0  0.26244  0.69596  0.45194  1.0000
  C   C684      1.0  0.40775  0.71724  0.93792  1.0000
  H   H1200     1.0  0.45142  0.52190  0.56521  1.0000
  C   C685      1.0  0.48773  0.62134  0.64115  1.0000
  C   C686      1.0  0.43277  0.49399  0.66836  1.0000
  H   H1201     1.0  0.46159  0.61166  0.90359  1.0000
  C   C687      1.0  0.48839  0.55624  0.40497  1.0000
  C   C688      1.0  0.24584  0.69410  0.46199  1.0000
  H   H1202     1.0  0.49279  0.58773  0.64058  1.0000
  H   H1203     1.0  0.43001  0.59033  0.83911  1.0000
  C   C689      1.0  0.39455  0.72753  0.96049  1.0000
  C   C690      1.0  0.24802  0.66362  0.71203  1.0000
  C   C691      1.0  0.48920  0.52067  0.43807  1.0000
  H   H1204     1.0  0.30488  0.73148  0.21444  1.0000
  C   C692      1.0  0.46847  0.52842  0.51581  1.0000
  C   C693      1.0  0.46469  0.52420  0.56096  1.0000
  H   H1205     1.0  0.28175  0.71185  0.77204  1.0000
  H   H1206     1.0  0.35081  0.72884  0.08137  1.0000
  C   C694      1.0  0.35966  0.74269  0.19314  1.0000
  H   H1207     1.0  0.48361  0.57698  0.36313  1.0000
  H   H1208     1.0  0.42494  0.66866  0.90035  1.0000
  H   H1209     1.0  0.41547  0.51095  0.77128  1.0000
  H   H1210     1.0  0.41234  0.61510  0.77753  1.0000
  H   H1211     1.0  0.24706  0.70372  0.67786  1.0000
  C   C695      1.0  0.25863  0.68280  0.77621  1.0000
  C   C696      1.0  0.48282  0.63891  0.62469  1.0000
  H   H1212     1.0  0.44292  0.64408  0.68569  1.0000
  H   H1213     1.0  0.34082  0.71293  0.94512  1.0000
  C   C697      1.0  0.46960  0.63863  0.59226  1.0000
  H   H1214     1.0  0.42512  0.62383  0.72080  1.0000
  C   C698      1.0  0.32616  0.72377  0.89713  1.0000
  H   H1215     1.0  0.31687  0.72926  0.91862  1.0000
  H   H1216     1.0  0.46776  0.53458  0.58066  1.0000
  H   H1217     1.0  0.30199  0.70950  0.74946  1.0000
  C   C699      1.0  0.41657  0.59296  0.84137  1.0000
  N   N37       1.0  0.37615  0.54134  0.67257  1.0000
  C   C700      1.0  0.38459  0.53994  0.63103  1.0000
  C   C701      1.0  0.35860  0.54777  0.66811  1.0000
  C   C702      1.0  0.38523  0.55382  0.69628  1.0000
  C   C703      1.0  0.37687  0.52524  0.69667  1.0000
  C   C704      1.0  0.36929  0.51036  0.67636  1.0000
  C   C705      1.0  0.40232  0.53242  0.63098  1.0000
  C   C706      1.0  0.37714  0.55914  0.73772  1.0000
  H   H1218     1.0  0.45838  0.63294  0.60507  1.0000
  C   C707      1.0  0.40983  0.53239  0.58765  1.0000
  C   C708      1.0  0.38744  0.57172  0.75846  1.0000
  H   H1219     1.0  0.38482  0.55229  0.61541  1.0000
  H   H1220     1.0  0.37773  0.53221  0.61031  1.0000
  H   H1221     1.0  0.35124  0.54465  0.69627  1.0000
  H   H1222     1.0  0.35817  0.56150  0.66558  1.0000
  H   H1223     1.0  0.38694  0.56525  0.67719  1.0000
  H   H1224     1.0  0.39777  0.54907  0.70370  1.0000
  H   H1225     1.0  0.38979  0.52185  0.70474  1.0000
  H   H1226     1.0  0.37034  0.52647  0.72672  1.0000
  H   H1227     1.0  0.37334  0.50910  0.64394  1.0000
  H   H1228     1.0  0.35570  0.51171  0.67798  1.0000
  H   H1229     1.0  0.41046  0.53944  0.65022  1.0000
  H   H1230     1.0  0.40241  0.51946  0.64258  1.0000
  H   H1231     1.0  0.37600  0.54848  0.75938  1.0000
  H   H1232     1.0  0.36477  0.56494  0.73326  1.0000
  H   H1233     1.0  0.32170  0.71173  0.88753  1.0000
  H   H1234     1.0  0.27369  0.51545  0.61290  1.0000
  C   C709      1.0  0.41932  0.62026  0.80288  1.0000
  H   H1235     1.0  0.42247  0.52690  0.58870  1.0000
  H   H1236     1.0  0.40251  0.52492  0.56718  1.0000
  H   H1237     1.0  0.41049  0.54515  0.57485  1.0000
  H   H1238     1.0  0.38131  0.57555  0.78758  1.0000
  H   H1239     1.0  0.39972  0.56619  0.76570  1.0000
  H   H1240     1.0  0.38889  0.58283  0.73825  1.0000
  N   N38       1.0  0.33162  0.63148  0.48331  1.0000
  C   C710      1.0  0.32927  0.61447  0.50178  1.0000
  C   C711      1.0  0.33155  0.64410  0.51672  1.0000
  C   C712      1.0  0.31715  0.63553  0.45614  1.0000
  C   C713      1.0  0.34705  0.63229  0.45711  1.0000
  C   C714      1.0  0.36330  0.62700  0.47808  1.0000
  C   C715      1.0  0.32840  0.60026  0.47110  1.0000
  C   C716      1.0  0.31595  0.65337  0.43776  1.0000
  C   C717      1.0  0.33900  0.63865  0.55854  1.0000
  C   C718      1.0  0.34070  0.65332  0.58632  1.0000
  C   C719      1.0  0.37750  0.62605  0.44676  1.0000
  C   C720      1.0  0.32705  0.58363  0.49370  1.0000
  C   C721      1.0  0.30082  0.65581  0.41106  1.0000
  H   H1241     1.0  0.31781  0.61448  0.52092  1.0000
  H   H1242     1.0  0.33911  0.61087  0.52346  1.0000
  H   H1243     1.0  0.33765  0.65546  0.50548  1.0000
  H   H1244     1.0  0.31872  0.64814  0.52483  1.0000
  H   H1245     1.0  0.30543  0.63333  0.47346  1.0000
  H   H1246     1.0  0.31725  0.62730  0.42945  1.0000
  H   H1247     1.0  0.34589  0.62493  0.42908  1.0000
  H   H1248     1.0  0.34882  0.64510  0.44547  1.0000
  H   H1249     1.0  0.36265  0.61473  0.49354  1.0000
  H   H1250     1.0  0.36646  0.63627  0.50071  1.0000
  H   H1251     1.0  0.31743  0.60184  0.45171  1.0000
  H   H1252     1.0  0.33955  0.59959  0.45108  1.0000
  H   H1253     1.0  0.32679  0.65609  0.41799  1.0000
  H   H1254     1.0  0.31497  0.66262  0.46221  1.0000
  H   H1255     1.0  0.33073  0.62993  0.57464  1.0000
  H   H1256     1.0  0.35118  0.63238  0.55532  1.0000
  H   H1257     1.0  0.32858  0.65968  0.59152  1.0000
  H   H1258     1.0  0.34546  0.64896  0.61650  1.0000
  H   H1259     1.0  0.34941  0.66218  0.57240  1.0000
  H   H1260     1.0  0.38907  0.62262  0.46271  1.0000
  H   H1261     1.0  0.37532  0.61655  0.42377  1.0000
  H   H1262     1.0  0.37903  0.63815  0.43075  1.0000
  H   H1263     1.0  0.31570  0.58347  0.51317  1.0000
  H   H1264     1.0  0.32652  0.57367  0.47117  1.0000
  H   H1265     1.0  0.33784  0.58111  0.51341  1.0000
  H   H1266     1.0  0.30164  0.64752  0.38449  1.0000
  H   H1267     1.0  0.28945  0.65328  0.42920  1.0000
  H   H1268     1.0  0.29992  0.66875  0.39928  1.0000
  H   H1269     1.0  0.37489  0.71469  0.93394  1.0000
  C   C722      1.0  0.34906  0.54232  0.63035  1.0000
  H   H1270     1.0  0.24984  0.66135  0.52978  1.0000
  H   H1271     1.0  0.42058  0.64254  0.86674  1.0000
  S   S169      1.0  0.48450  0.68990  0.95638  1.0000
  H   H1272     1.0  0.26222  0.69599  0.08559  1.0000
  H   H1273     1.0  0.36002  0.71455  0.99430  1.0000
  H   H1274     1.0  0.33263  0.72906  0.99962  1.0000
  C   C723      1.0  0.25382  0.70943  0.65149  1.0000
  H   H1275     1.0  0.37064  0.66195  0.81292  1.0000
  C   C724      1.0  0.26325  0.50585  0.55756  1.0000
  H   H1276     1.0  0.36371  0.73027  0.20472  1.0000
  H   H1277     1.0  0.43922  0.63907  0.84010  1.0000
  C   C725      1.0  0.48693  0.53185  0.50893  1.0000
  H   H1278     1.0  0.46855  0.60357  0.53723  1.0000
  H   H1279     1.0  0.36672  0.65413  0.86433  1.0000
  H   H1280     1.0  0.31863  0.73855  0.32825  1.0000
  H   H1281     1.0  0.44620  0.66348  0.88811  1.0000
  H   H1282     1.0  0.34150  0.71136  0.05901  1.0000
  C   C726      1.0  0.43500  0.67029  0.87725  1.0000
  H   H1283     1.0  0.47757  0.64598  0.78271  1.0000
  H   H1284     1.0  0.44044  0.64178  0.76486  1.0000
  H   H1285     1.0  0.39936  0.61321  0.84509  1.0000
  C   C727      1.0  0.40433  0.73720  0.07139  1.0000
  H   H1286     1.0  0.47174  0.51293  0.57105  1.0000
  H   H1287     1.0  0.47799  0.59036  0.19905  1.0000
  C   C728      1.0  0.37289  0.65134  0.83447  1.0000
  H   H1288     1.0  0.41865  0.61600  0.87032  1.0000
  N   N39       1.0  0.25864  0.72661  0.66145  1.0000
  H   H1289     1.0  0.40999  0.72240  0.90651  1.0000
  C   C729      1.0  0.48914  0.60558  0.49443  1.0000
  C   C730      1.0  0.41287  0.61151  0.84247  1.0000
  C   C731      1.0  0.42702  0.64452  0.76249  1.0000
  H   H1290     1.0  0.34994  0.52887  0.62618  1.0000
  H   H1291     1.0  0.47535  0.73674  0.08711  1.0000
  H   H1292     1.0  0.48450  0.61694  0.48030  1.0000
  H   H1293     1.0  0.26067  0.53009  0.58477  1.0000
  H   H1294     1.0  0.48461  0.54752  0.38161  1.0000
  H   H1295     1.0  0.39919  0.74012  0.96293  1.0000
  C   C732      1.0  0.35975  0.72813  0.99815  1.0000
  H   H1296     1.0  0.48095  0.65640  0.85308  1.0000
  H   H1297     1.0  0.39284  0.63803  0.86323  1.0000
  H   H1298     1.0  0.25028  0.71219  0.58469  1.0000
  H   H1299     1.0  0.26270  0.69000  0.80125  1.0000
  C   C733      1.0  0.48015  0.59811  0.52696  1.0000
  N   N40       1.0  0.36396  0.73707  0.95829  1.0000
  C   C734      1.0  0.48586  0.58322  0.54479  1.0000
  H   H1300     1.0  0.32452  0.54432  0.60567  1.0000
  C   C735      1.0  0.37803  0.72778  0.93763  1.0000
  H   H1301     1.0  0.25818  0.72036  0.72631  1.0000
  C   C736      1.0  0.26655  0.72598  0.70287  1.0000
  H   H1302     1.0  0.46072  0.53945  0.50756  1.0000
  H   H1303     1.0  0.25817  0.60650  0.73428  1.0000
  C   C737      1.0  0.33088  0.54740  0.63411  1.0000
  C   C738      1.0  0.34296  0.73300  0.01823  1.0000
  C   C739      1.0  0.28299  0.71584  0.70567  1.0000
  Fe  Fe84      1.0  0.48194  0.66317  0.97475  1.0000
  H   H1304     1.0  0.48426  0.56032  0.47010  1.0000
  C   C740      1.0  0.42139  0.63707  0.72196  1.0000
  H   H1305     1.0  0.35403  0.54839  0.60201  1.0000
  H   H1306     1.0  0.42571  0.65813  0.75835  1.0000
  C   C741      1.0  0.42934  0.64554  0.68455  1.0000
  C   C742      1.0  0.34099  0.72499  0.06092  1.0000
  H   H1307     1.0  0.41061  0.58756  0.81484  1.0000
  H   H1308     1.0  0.48959  0.54267  0.52765  1.0000
  C   C743      1.0  0.25328  0.70223  0.10674  1.0000
  Fe  Fe85      1.0  0.25931  0.73957  0.32276  1.0000
  H   H1309     1.0  0.41180  0.58694  0.86995  1.0000
  H   H1310     1.0  0.28097  0.52481  0.56546  1.0000
  C   C744      1.0  0.42700  0.64542  0.83725  1.0000
  C   C745      1.0  0.40041  0.64495  0.79928  1.0000
  H   H1311     1.0  0.29282  0.72985  0.75522  1.0000
  C   C746      1.0  0.39127  0.64831  0.84069  1.0000
  H   H1312     1.0  0.48560  0.72406  0.91386  1.0000
  H   H1313     1.0  0.26026  0.70932  0.12876  1.0000
  H   H1314     1.0  0.48417  0.52014  0.31910  1.0000
  H   H1315     1.0  0.36736  0.64022  0.82216  1.0000
  H   H1316     1.0  0.40401  0.71306  0.10033  1.0000
  C   C747      1.0  0.25341  0.67100  0.50831  1.0000
  S   S170      1.0  0.25965  0.74099  0.39159  1.0000
  H   H1317     1.0  0.43232  0.61601  0.79782  1.0000
  H   H1318     1.0  0.25545  0.72374  0.21914  1.0000
  H   H1319     1.0  0.32895  0.72890  0.07468  1.0000
  H   H1320     1.0  0.38016  0.73263  0.90579  1.0000
  H   H1321     1.0  0.39599  0.65947  0.85470  1.0000
  Fe  Fe86      1.0  0.49107  0.66958  0.06479  1.0000
  H   H1322     1.0  0.40787  0.63829  0.71904  1.0000
  H   H1323     1.0  0.36926  0.73018  0.02133  1.0000
  C   C748      1.0  0.29029  0.71688  0.74824  1.0000
  C   C749      1.0  0.24827  0.49842  0.58024  1.0000
  H   H1324     1.0  0.24804  0.73717  0.15157  1.0000
  H   H1325     1.0  0.27940  0.66564  0.77830  1.0000
  H   H1326     1.0  0.46656  0.57224  0.39711  1.0000
  H   H1327     1.0  0.48419  0.58239  0.41619  1.0000
  H   H1328     1.0  0.47807  0.61775  0.66400  1.0000
  H   H1329     1.0  0.43770  0.68359  0.87471  1.0000
  C   C750      1.0  0.49087  0.59401  0.19367  1.0000
  C   C751      1.0  0.48740  0.74169  0.07740  1.0000
  H   H1330     1.0  0.46633  0.65142  0.58188  1.0000
  C   C752      1.0  0.27026  0.73267  0.62820  1.0000
  H   H1331     1.0  0.48057  0.74177  0.01442  1.0000
  C   C753      1.0  0.42805  0.74169  0.02603  1.0000
  H   H1332     1.0  0.26011  0.51104  0.52687  1.0000
  H   H1333     1.0  0.48725  0.54648  0.28231  1.0000
  H   H1334     1.0  0.24923  0.72331  0.06742  1.0000
  H   H1335     1.0  0.24525  0.61367  0.66868  1.0000
  H   H1336     1.0  0.47416  0.63167  0.56521  1.0000
  H   H1337     1.0  0.26846  0.73864  0.71373  1.0000
  H   H1338     1.0  0.39315  0.72212  0.99192  1.0000
  H   H1339     1.0  0.47790  0.64643  0.65049  1.0000
  H   H1340     1.0  0.24986  0.58848  0.71253  1.0000
  H   H1341     1.0  0.29457  0.74237  0.99881  1.0000
  H   H1342     1.0  0.48921  0.56297  0.22728  1.0000
  N   N41       1.0  0.49264  0.53490  0.46506  1.0000
  C   C754      1.0  0.24663  0.60056  0.72629  1.0000
  H   H1343     1.0  0.48987  0.52957  0.24772  1.0000
  H   H1344     1.0  0.49351  0.64528  0.61100  1.0000
  H   H1345     1.0  0.49125  0.60270  0.16680  1.0000
  H   H1346     1.0  0.49378  0.63185  0.71389  1.0000
  H   H1347     1.0  0.49397  0.52314  0.40638  1.0000
  S   S171      1.0  0.38523  0.74356  0.09496  1.0000
  H   H1348     1.0  0.49383  0.52134  0.52339  1.0000
  H   H1349     1.0  0.36897  0.74328  0.27249  1.0000
  H   H1350     1.0  0.34263  0.86953  0.15269  1.0000
  H   H1351     1.0  0.32861  0.88049  0.21183  1.0000
  H   H1352     1.0  0.37635  0.76058  0.24501  1.0000
  H   H1353     1.0  0.35296  0.89538  0.14300  1.0000
  N   N42       1.0  0.37913  0.99227  0.81249  1.0000
  H   H1354     1.0  0.39124  0.90252  0.27439  1.0000
  Fe  Fe87      1.0  0.36828  0.80632  0.10061  1.0000
  S   S172      1.0  0.36745  0.78522  0.14696  1.0000
  S   S173      1.0  0.38421  0.82681  0.12445  1.0000
  Fe  Fe88      1.0  0.34525  0.78799  0.04392  1.0000
  S   S174      1.0  0.34281  0.76660  0.08807  1.0000
  S   S175      1.0  0.33272  0.78825  0.98178  1.0000
  Fe  Fe89      1.0  0.34034  0.78562  0.13646  1.0000
  S   S176      1.0  0.32131  0.78862  0.18795  1.0000
  Fe  Fe90      1.0  0.37031  0.76811  0.09381  1.0000
  C   C755      1.0  0.35851  0.80966  0.23880  1.0000
  S   S177      1.0  0.34096  0.80724  0.09208  1.0000
  S   S178      1.0  0.37293  0.78894  0.04790  1.0000
  Fe  Fe91      1.0  0.30745  0.97786  0.55181  1.0000
  S   S179      1.0  0.29365  0.95674  0.58303  1.0000
  H   H1355     1.0  0.43488  0.97089  0.06867  1.0000
  S   S180      1.0  0.33489  0.97901  0.55755  1.0000
  Fe  Fe92      1.0  0.40021  0.92613  0.14595  1.0000
  S   S181      1.0  0.40879  0.92485  0.21117  1.0000
  S   S182      1.0  0.38867  0.90561  0.10968  1.0000
  Fe  Fe93      1.0  0.40548  0.96368  0.13804  1.0000
  S   S183      1.0  0.41370  0.96460  0.20354  1.0000
  H   H1356     1.0  0.39141  0.76564  0.39639  1.0000
  Fe  Fe94      1.0  0.42882  0.94173  0.18801  1.0000
  S   S184      1.0  0.45565  0.94073  0.20810  1.0000
  Fe  Fe95      1.0  0.39303  0.94794  0.22156  1.0000
  S   S185      1.0  0.37178  0.94954  0.27036  1.0000
  S   S186      1.0  0.42129  0.94143  0.12216  1.0000
  S   S187      1.0  0.38383  0.94867  0.15662  1.0000
  C   C756      1.0  0.34882  0.92107  0.15333  1.0000
  C   C757      1.0  0.47422  0.94072  0.17813  1.0000
  H   H1357     1.0  0.40616  0.97022  0.02802  1.0000
  C   C758      1.0  0.47471  0.93709  0.13638  1.0000
  C   C759      1.0  0.47488  0.78013  0.96455  1.0000
  H   H1358     1.0  0.46351  0.93414  0.12147  1.0000
  H   H1359     1.0  0.32604  0.76115  0.28052  1.0000
  H   H1360     1.0  0.36143  0.92381  0.16204  1.0000
  H   H1361     1.0  0.32891  0.91425  0.33989  1.0000
  C   C760      1.0  0.36756  0.95938  0.31850  1.0000
  C   C761      1.0  0.37994  0.96435  0.34414  1.0000
  C   C762      1.0  0.37593  0.97114  0.38288  1.0000
  C   C763      1.0  0.34709  0.92460  0.10730  1.0000
  C   C764      1.0  0.29866  0.75239  0.97909  1.0000
  H   H1362     1.0  0.39264  0.96276  0.33440  1.0000
  H   H1363     1.0  0.33944  0.74599  0.94298  1.0000
  H   H1364     1.0  0.38501  0.77392  0.30320  1.0000
  H   H1365     1.0  0.38515  0.78883  0.91720  1.0000
  C   C765      1.0  0.27132  0.93270  0.59961  1.0000
  C   C766      1.0  0.27864  0.94263  0.56882  1.0000
  C   C767      1.0  0.27424  0.94068  0.52806  1.0000
  C   C768      1.0  0.26280  0.92879  0.51834  1.0000
  H   H1366     1.0  0.37173  0.77811  0.34610  1.0000
  H   H1367     1.0  0.30429  0.75566  0.33405  1.0000
  H   H1368     1.0  0.27973  0.94818  0.50403  1.0000
  H   H1369     1.0  0.33331  0.84767  0.20252  1.0000
  H   H1370     1.0  0.34949  0.80635  0.21566  1.0000
  H   H1371     1.0  0.35344  0.84709  0.22529  1.0000
  H   H1372     1.0  0.34770  0.76477  0.21409  1.0000
  C   C769      1.0  0.38485  0.84878  0.12031  1.0000
  C   C770      1.0  0.39573  0.85700  0.14514  1.0000
  C   C771      1.0  0.39701  0.87430  0.14258  1.0000
  C   C772      1.0  0.38751  0.88370  0.11480  1.0000
  C   C773      1.0  0.37655  0.87550  0.09015  1.0000
  C   C774      1.0  0.37515  0.85820  0.09300  1.0000
  H   H1373     1.0  0.40335  0.84988  0.16629  1.0000
  H   H1374     1.0  0.40558  0.88033  0.16154  1.0000
  H   H1375     1.0  0.36913  0.88259  0.06849  1.0000
  H   H1376     1.0  0.36675  0.85214  0.07361  1.0000
  C   C775      1.0  0.48978  0.93687  0.11418  1.0000
  C   C776      1.0  0.31654  0.77555  0.96730  1.0000
  C   C777      1.0  0.30967  0.77797  0.92828  1.0000
  C   C778      1.0  0.29727  0.76779  0.91485  1.0000
  H   H1377     1.0  0.25493  0.78118  0.11598  1.0000
  C   C779      1.0  0.49111  0.89226  0.08103  1.0000
  C   C780      1.0  0.31074  0.76284  0.99293  1.0000
  H   H1378     1.0  0.31398  0.78780  0.90823  1.0000
  H   H1379     1.0  0.29223  0.76976  0.88464  1.0000
  H   H1380     1.0  0.31563  0.76099  0.02329  1.0000
  C   C781      1.0  0.30924  0.77303  0.21017  1.0000
  C   C782      1.0  0.29734  0.77737  0.24008  1.0000
  C   C783      1.0  0.28814  0.76527  0.26060  1.0000
  C   C784      1.0  0.34529  0.90290  0.16467  1.0000
  H   H1381     1.0  0.32544  0.77551  0.32120  1.0000
  C   C785      1.0  0.31166  0.75648  0.20026  1.0000
  H   H1382     1.0  0.29541  0.79016  0.24791  1.0000
  H   H1383     1.0  0.27927  0.76875  0.28421  1.0000
  H   H1384     1.0  0.35777  0.76138  0.98080  1.0000
  H   H1385     1.0  0.28384  0.77718  0.08787  1.0000
  H   H1386     1.0  0.25322  0.81137  0.47795  1.0000
  C   C786      1.0  0.36854  0.75439  0.96783  1.0000
  H   H1387     1.0  0.35123  0.84133  0.17281  1.0000
  C   C787      1.0  0.30267  0.74431  0.22142  1.0000
  Fe  Fe96      1.0  0.33462  0.98975  0.49251  1.0000
  H   H1388     1.0  0.34173  0.74647  0.02101  1.0000
  H   H1389     1.0  0.47413  0.77792  0.93114  1.0000
  C   C788      1.0  0.39135  0.89021  0.26031  1.0000
  H   H1390     1.0  0.33118  0.92993  0.30039  1.0000
  H   H1391     1.0  0.34923  0.79071  0.30816  1.0000
  N   N43       1.0  0.35991  0.76659  0.29609  1.0000
  H   H1392     1.0  0.32565  0.90935  0.22750  1.0000
  C   C789      1.0  0.25444  0.78508  0.55287  1.0000
  H   H1393     1.0  0.45158  0.95881  0.08856  1.0000
  H   H1394     1.0  0.33429  0.92279  0.09789  1.0000
  C   C790      1.0  0.35383  0.78347  0.28145  1.0000
  C   C791      1.0  0.44061  0.94365  0.02232  1.0000
  H   H1395     1.0  0.34308  0.78266  0.26140  1.0000
  C   C792      1.0  0.34711  0.96867  0.37064  1.0000
  H   H1396     1.0  0.35551  0.91641  0.08923  1.0000
  H   H1397     1.0  0.25279  0.74982  0.98728  1.0000
  H   H1398     1.0  0.25113  0.97468  0.47959  1.0000
  H   H1399     1.0  0.48898  0.88813  0.04943  1.0000
  H   H1400     1.0  0.40108  0.74582  0.38671  1.0000
  H   H1401     1.0  0.25237  0.79607  0.17696  1.0000
  C   C793      1.0  0.28999  0.75393  0.60050  1.0000
  H   H1402     1.0  0.37588  0.79838  0.27965  1.0000
  C   C794      1.0  0.25993  0.98439  0.48542  1.0000
  H   H1403     1.0  0.35219  0.81725  0.26258  1.0000
  H   H1404     1.0  0.26907  0.75940  0.63910  1.0000
  C   C795      1.0  0.38200  0.75309  0.34385  1.0000
  C   C796      1.0  0.48788  0.99218  0.07891  1.0000
  H   H1405     1.0  0.34196  0.74608  0.24154  1.0000
  C   C797      1.0  0.25548  0.91881  0.54915  1.0000
  H   H1406     1.0  0.39631  0.88097  0.28285  1.0000
  H   H1407     1.0  0.28572  0.74854  0.66440  1.0000
  H   H1408     1.0  0.25306  0.75958  0.11556  1.0000
  N   N44       1.0  0.33379  0.92888  0.49527  1.0000
  C   C798      1.0  0.34743  0.94090  0.48933  1.0000
  C   C799      1.0  0.31802  0.93603  0.47738  1.0000
  C   C800      1.0  0.33091  0.92636  0.54097  1.0000
  C   C801      1.0  0.33825  0.91236  0.47734  1.0000
  C   C802      1.0  0.34324  0.91235  0.43129  1.0000
  C   C803      1.0  0.36430  0.93545  0.50715  1.0000
  C   C804      1.0  0.31622  0.91556  0.55406  1.0000
  C   C805      1.0  0.31949  0.94706  0.43797  1.0000
  C   C806      1.0  0.30278  0.95055  0.41876  1.0000
  C   C807      1.0  0.34989  0.89538  0.41862  1.0000
  C   C808      1.0  0.37727  0.94811  0.49650  1.0000
  C   C809      1.0  0.31412  0.91457  0.60076  1.0000
  H   H1409     1.0  0.34367  0.95286  0.50310  1.0000
  H   H1410     1.0  0.34971  0.94400  0.45643  1.0000
  H   H1411     1.0  0.30944  0.92603  0.47132  1.0000
  H   H1412     1.0  0.31141  0.94406  0.50008  1.0000
  H   H1413     1.0  0.32898  0.93852  0.55583  1.0000
  H   H1414     1.0  0.34185  0.92036  0.55551  1.0000
  H   H1415     1.0  0.34823  0.90604  0.49513  1.0000
  H   H1416     1.0  0.32773  0.90405  0.48046  1.0000
  H   H1417     1.0  0.35287  0.92127  0.42352  1.0000
  H   H1418     1.0  0.33228  0.91523  0.41262  1.0000
  H   H1419     1.0  0.36359  0.93431  0.54110  1.0000
  H   H1420     1.0  0.36875  0.92354  0.49451  1.0000
  H   H1421     1.0  0.31814  0.90277  0.54350  1.0000
  H   H1422     1.0  0.30454  0.92061  0.54142  1.0000
  H   H1423     1.0  0.32456  0.95905  0.44587  1.0000
  H   H1424     1.0  0.32772  0.94159  0.41429  1.0000
  H   H1425     1.0  0.29751  0.93895  0.40861  1.0000
  H   H1426     1.0  0.29419  0.95653  0.44110  1.0000
  H   H1427     1.0  0.30418  0.95898  0.39163  1.0000
  H   H1428     1.0  0.35299  0.89566  0.38526  1.0000
  H   H1429     1.0  0.36120  0.89190  0.43561  1.0000
  H   H1430     1.0  0.34056  0.88592  0.42471  1.0000
  H   H1431     1.0  0.38923  0.94395  0.50945  1.0000
  H   H1432     1.0  0.37886  0.94963  0.46269  1.0000
  H   H1433     1.0  0.37367  0.96023  0.50959  1.0000
  H   H1434     1.0  0.32511  0.90857  0.61496  1.0000
  H   H1435     1.0  0.31209  0.92705  0.61339  1.0000
  H   H1436     1.0  0.30326  0.90721  0.60915  1.0000
  H   H1437     1.0  0.24759  0.75064  0.67334  1.0000
  H   H1438     1.0  0.31982  0.75196  0.37167  1.0000
  H   H1439     1.0  0.35223  0.90757  0.29367  1.0000
  H   H1440     1.0  0.36971  0.78885  0.95736  1.0000
  C   C810      1.0  0.26578  0.97959  0.64865  1.0000
  H   H1441     1.0  0.33635  0.89254  0.29124  1.0000
  C   C811      1.0  0.44827  0.96809  0.06424  1.0000
  H   H1442     1.0  0.35670  0.96792  0.77904  1.0000
  C   C812      1.0  0.25603  0.76979  0.13569  1.0000
  C   C813      1.0  0.34654  0.84986  0.19682  1.0000
  C   C814      1.0  0.32796  0.91690  0.30649  1.0000
  H   H1443     1.0  0.24614  0.96113  0.53614  1.0000
  H   H1444     1.0  0.37735  0.96692  0.83304  1.0000
  C   C815      1.0  0.33970  0.90531  0.28294  1.0000
  H   H1445     1.0  0.34316  0.92170  0.23231  1.0000
  H   H1446     1.0  0.44232  0.93765  0.99226  1.0000
  C   C816      1.0  0.47578  0.97852  0.07034  1.0000
  H   H1447     1.0  0.26553  0.96647  0.64009  1.0000
  H   H1448     1.0  0.37482  0.87325  0.23639  1.0000
  H   H1449     1.0  0.43469  0.74974  0.00516  1.0000
  H   H1450     1.0  0.29548  0.76593  0.60653  1.0000
  H   H1451     1.0  0.37404  0.89620  0.18786  1.0000
  C   C817      1.0  0.25974  0.92094  0.58995  1.0000
  H   H1452     1.0  0.39020  0.78037  0.96714  1.0000
  H   H1453     1.0  0.34138  0.95801  0.31279  1.0000
  H   H1454     1.0  0.46816  0.77032  0.98113  1.0000
  H   H1455     1.0  0.40826  0.97953  0.95492  1.0000
  H   H1456     1.0  0.31508  0.91520  0.29753  1.0000
  C   C818      1.0  0.36672  0.89827  0.21647  1.0000
  H   H1457     1.0  0.35834  0.97522  0.70350  1.0000
  C   C819      1.0  0.36520  0.75578  0.26087  1.0000
  H   H1458     1.0  0.25171  0.79857  0.55189  1.0000
  H   H1459     1.0  0.46363  0.95534  0.01731  1.0000
  C   C820      1.0  0.37957  0.98102  0.88800  1.0000
  H   H1460     1.0  0.38581  0.75886  0.91556  1.0000
  H   H1461     1.0  0.27469  0.93399  0.63124  1.0000
  H   H1462     1.0  0.47775  0.96844  0.09357  1.0000
  C   C821      1.0  0.33881  0.90891  0.23621  1.0000
  H   H1463     1.0  0.42611  0.98507  0.76016  1.0000
  H   H1464     1.0  0.42733  0.94675  0.02694  1.0000
  C   C822      1.0  0.31725  0.75147  0.33842  1.0000
  H   H1465     1.0  0.28178  0.75504  0.08937  1.0000
  H   H1466     1.0  0.46659  0.97671  0.15236  1.0000
  C   C823      1.0  0.46582  0.79651  0.97294  1.0000
  H   H1467     1.0  0.47180  0.80679  0.95597  1.0000
  C   C824      1.0  0.34223  0.88021  0.21401  1.0000
  H   H1468     1.0  0.26320  0.97819  0.56913  1.0000
  H   H1469     1.0  0.37265  0.74671  0.36299  1.0000
  H   H1470     1.0  0.34467  0.87504  0.24513  1.0000
  C   C825      1.0  0.37504  0.76492  0.93081  1.0000
  H   H1471     1.0  0.27879  0.77771  0.16344  1.0000
  H   H1472     1.0  0.32068  0.75303  0.17697  1.0000
  C   C826      1.0  0.27440  0.76718  0.14626  1.0000
  H   H1473     1.0  0.36655  0.88525  0.27746  1.0000
  N   N45       1.0  0.34855  0.89740  0.20855  1.0000
  H   H1474     1.0  0.34005  0.92964  0.16909  1.0000
  C   C827      1.0  0.35950  0.97336  0.39663  1.0000
  H   H1475     1.0  0.38569  0.97474  0.40234  1.0000
  C   C828      1.0  0.45062  0.95919  0.02275  1.0000
  H   H1476     1.0  0.26047  0.78188  0.21432  1.0000
  H   H1477     1.0  0.36801  0.81712  0.22288  1.0000
  H   H1478     1.0  0.44584  0.97012  0.14770  1.0000
  H   H1479     1.0  0.40160  0.97776  0.80341  1.0000
  H   H1480     1.0  0.39957  0.89020  0.23271  1.0000
  H   H1481     1.0  0.33228  0.90086  0.15694  1.0000
  C   C829      1.0  0.35112  0.96157  0.33230  1.0000
  C   C830      1.0  0.38035  0.78174  0.94418  1.0000
  H   H1482     1.0  0.37301  0.78729  0.23352  1.0000
  H   H1483     1.0  0.26276  0.98037  0.68192  1.0000
  H   H1484     1.0  0.27835  0.98412  0.64302  1.0000
  C   C831      1.0  0.35558  0.98102  0.76846  1.0000
  C   C832      1.0  0.48582  0.75051  0.03564  1.0000
  H   H1485     1.0  0.25428  0.91335  0.61398  1.0000
  H   H1486     1.0  0.37515  0.95556  0.90685  1.0000
  C   C833      1.0  0.36659  0.79419  0.25820  1.0000
  H   H1487     1.0  0.36231  0.86914  0.17601  1.0000
  H   H1488     1.0  0.36533  0.76720  0.90785  1.0000
  H   H1489     1.0  0.35027  0.93755  0.10005  1.0000
  H   H1490     1.0  0.36976  0.91096  0.22530  1.0000
  H   H1491     1.0  0.25380  0.79684  0.27641  1.0000
  H   H1492     1.0  0.45295  0.79600  0.96272  1.0000
  C   C834      1.0  0.34905  0.86763  0.18226  1.0000
  S   S188      1.0  0.40495  0.98879  0.10428  1.0000
  H   H1493     1.0  0.44656  0.96722  0.99661  1.0000
  C   C835      1.0  0.37402  0.88583  0.24884  1.0000
  H   H1494     1.0  0.25958  0.92727  0.48668  1.0000
  C   C836      1.0  0.24914  0.78533  0.19715  1.0000
  H   H1495     1.0  0.44467  0.93476  0.04681  1.0000
  C   C837      1.0  0.40685  0.98319  0.02021  1.0000
  C   C838      1.0  0.35230  0.75299  0.22799  1.0000
  H   H1496     1.0  0.33442  0.97065  0.37983  1.0000
  C   C839      1.0  0.29182  0.75480  0.94002  1.0000
  H   H1497     1.0  0.29822  0.76419  0.11583  1.0000
  C   C840      1.0  0.37191  0.96822  0.91703  1.0000
  H   H1498     1.0  0.27344  0.97921  0.42880  1.0000
  H   H1499     1.0  0.25848  0.78110  0.52176  1.0000
  H   H1500     1.0  0.40845  0.75982  0.03764  1.0000
  C   C841      1.0  0.29098  0.74866  0.25189  1.0000
  C   C842      1.0  0.40795  0.98854  0.97874  1.0000
  C   C843      1.0  0.37346  0.97943  0.84353  1.0000
  H   H1501     1.0  0.40596  0.76326  0.35399  1.0000
  H   H1502     1.0  0.24903  0.81420  0.24228  1.0000
  H   H1503     1.0  0.48002  0.97316  0.04083  1.0000
  H   H1504     1.0  0.35990  0.97933  0.84592  1.0000
  H   H1505     1.0  0.27022  0.97916  0.50381  1.0000
  H   H1506     1.0  0.25702  0.75397  0.21305  1.0000
  H   H1507     1.0  0.37664  0.96958  0.94844  1.0000
  S   S189      1.0  0.35533  0.98162  0.44669  1.0000
  S   S190      1.0  0.24937  0.78507  0.42259  1.0000
  C   C844      1.0  0.28513  0.76580  0.10735  1.0000
  C   C845      1.0  0.48903  0.94411  0.19718  1.0000
  C   C846      1.0  0.45369  0.98099  0.14797  1.0000
  H   H1508     1.0  0.48384  0.75045  0.95031  1.0000
  H   H1509     1.0  0.48883  0.94685  0.22949  1.0000
  H   H1510     1.0  0.44936  0.98285  0.21351  1.0000
  C   C847      1.0  0.34929  0.98129  0.72463  1.0000
  H   H1511     1.0  0.38108  0.98063  0.75307  1.0000
  H   H1512     1.0  0.39305  0.97894  0.88925  1.0000
  H   H1513     1.0  0.47716  0.76115  0.04001  1.0000
  S   S191      1.0  0.30735  0.98711  0.48617  1.0000
  C   C848      1.0  0.41313  0.74746  0.04440  1.0000
  H   H1514     1.0  0.27642  0.75569  0.16480  1.0000
  C   C849      1.0  0.25783  0.99041  0.57746  1.0000
  H   H1515     1.0  0.48998  0.93400  0.08197  1.0000
  H   H1516     1.0  0.28321  0.75517  0.57131  1.0000
  N   N46       1.0  0.45781  0.98354  0.06879  1.0000
  H   H1517     1.0  0.37778  0.75432  0.99252  1.0000
  H   H1518     1.0  0.46558  0.79897  0.00632  1.0000
  C   C850      1.0  0.37474  0.76887  0.32211  1.0000
  H   H1519     1.0  0.49128  0.75033  0.10088  1.0000
  C   C851      1.0  0.49317  0.78054  0.97691  1.0000
  C   C852      1.0  0.27841  0.74924  0.63609  1.0000
  H   H1520     1.0  0.26461  0.78253  0.57443  1.0000
  H   H1521     1.0  0.35835  0.97001  0.91844  1.0000
  C   C853      1.0  0.32866  0.76257  0.31324  1.0000
  C   C854      1.0  0.34692  0.75840  0.32282  1.0000
  H   H1522     1.0  0.48733  0.88254  0.10354  1.0000
  H   H1523     1.0  0.33761  0.97471  0.72374  1.0000
  H   H1524     1.0  0.48327  0.90346  0.08652  1.0000
  H   H1525     1.0  0.34809  0.76185  0.35549  1.0000
  C   C855      1.0  0.37254  0.98907  0.77036  1.0000
  C   C856      1.0  0.39596  0.75728  0.37191  1.0000
  C   C857      1.0  0.45180  0.99154  0.10788  1.0000
  C   C858      1.0  0.26697  0.98981  0.44353  1.0000
  H   H1526     1.0  0.37030  0.74885  0.17848  1.0000
  H   H1527     1.0  0.46243  0.99132  0.00556  1.0000
  C   C859      1.0  0.44838  0.99088  0.18548  1.0000
  C   C860      1.0  0.25327  0.98989  0.62396  1.0000
  S   S192      1.0  0.24451  0.77616  0.73892  1.0000
  C   C861      1.0  0.39764  0.99074  0.80969  1.0000
  H   H1528     1.0  0.38716  0.74433  0.32102  1.0000
  H   H1529     1.0  0.34616  0.98728  0.78796  1.0000
  Fe  Fe97      1.0  0.25786  0.74436  0.87414  1.0000
  S   S193      1.0  0.24459  0.76305  0.31504  1.0000
  C   C862      1.0  0.24475  0.75580  0.19903  1.0000
  H   H1530     1.0  0.34875  0.74475  0.32264  1.0000
  H   H1531     1.0  0.49358  0.78638  0.00742  1.0000
  H   H1532     1.0  0.30006  0.74448  0.59713  1.0000
  H   H1533     1.0  0.44152  0.99322  0.02153  1.0000
  H   H1534     1.0  0.35296  0.74424  0.90036  1.0000
  N   N47       1.0  0.24411  0.77109  0.17170  1.0000
  H   H1535     1.0  0.37631  0.99332  0.90032  1.0000
  C   C863      1.0  0.57673  0.00487  0.18500  1.0000
  H   H1536     1.0  0.57865  0.02074  0.00021  1.0000
  H   H1537     1.0  0.49759  0.10722  0.82339  1.0000
  H   H1538     1.0  0.61257  0.01341  0.30145  1.0000
  C   C864      1.0  0.61310  0.01856  0.04797  1.0000
  H   H1539     1.0  0.59097  0.03060  0.36553  1.0000
  Fe  Fe98      1.0  0.59982  0.22926  0.89502  1.0000
  S   S194      1.0  0.60631  0.20380  0.92040  1.0000
  H   H1540     1.0  0.71399  0.07765  0.31716  1.0000
  Fe  Fe99      1.0  0.62928  0.22776  0.83394  1.0000
  S   S195      1.0  0.63777  0.20246  0.85503  1.0000
  H   H1541     1.0  0.54207  0.02032  0.42417  1.0000
  Fe  Fe100     1.0  0.61095  0.19612  0.85512  1.0000
  S   S196      1.0  0.60015  0.17467  0.82073  1.0000
  Fe  Fe101     1.0  0.63251  0.21198  0.91851  1.0000
  S   S197      1.0  0.64845  0.20705  0.97419  1.0000
  S   S198      1.0  0.60274  0.22119  0.82974  1.0000
  H   H1542     1.0  0.57104  0.03080  0.43269  1.0000
  Fe  Fe102     1.0  0.68369  0.02000  0.42666  1.0000
  H   H1543     1.0  0.60121  0.01691  0.71063  1.0000
  S   S199      1.0  0.70374  0.03898  0.43463  1.0000
  Fe  Fe103     1.0  0.65322  0.00574  0.47232  1.0000
  H   H1544     1.0  0.61470  0.00616  0.03475  1.0000
  S   S200      1.0  0.65634  0.02161  0.41469  1.0000
  Fe  Fe104     1.0  0.58346  0.03733  0.81870  1.0000
  S   S201      1.0  0.57382  0.03556  0.75485  1.0000
  S   S202      1.0  0.58604  0.01203  0.85129  1.0000
  Fe  Fe105     1.0  0.58704  0.07501  0.80811  1.0000
  S   S203      1.0  0.57726  0.07547  0.74384  1.0000
  S   S204      1.0  0.59767  0.09598  0.84442  1.0000
  Fe  Fe106     1.0  0.55829  0.05813  0.77033  1.0000
  S   S205      1.0  0.53145  0.05658  0.75197  1.0000
  Fe  Fe107     1.0  0.59345  0.05267  0.73324  1.0000
  S   S206      1.0  0.61230  0.05030  0.67911  1.0000
  S   S207      1.0  0.56700  0.05901  0.83513  1.0000
  S   S208      1.0  0.60418  0.05309  0.79652  1.0000
  C   C865      1.0  0.51304  0.05974  0.78147  1.0000
  H   H1545     1.0  0.72087  0.15494  0.55859  1.0000
  C   C866      1.0  0.51265  0.06813  0.81842  1.0000
  C   C867      1.0  0.50135  0.02248  0.85611  1.0000
  H   H1546     1.0  0.52380  0.07308  0.82958  1.0000
  C   C868      1.0  0.62679  0.01969  0.56425  1.0000
  C   C869      1.0  0.63689  0.03188  0.57813  1.0000
  C   C870      1.0  0.63218  0.04110  0.61298  1.0000
  C   C871      1.0  0.61737  0.03831  0.63479  1.0000
  C   C872      1.0  0.60725  0.02615  0.62080  1.0000
  C   C873      1.0  0.61198  0.01688  0.58608  1.0000
  H   H1547     1.0  0.64824  0.03436  0.56171  1.0000
  H   H1548     1.0  0.64006  0.05059  0.62295  1.0000
  H   H1549     1.0  0.59565  0.02404  0.63639  1.0000
  C   C874      1.0  0.58449  0.00594  0.90402  1.0000
  C   C875      1.0  0.58195  0.01731  0.93515  1.0000
  C   C876      1.0  0.60356  0.00338  0.71116  1.0000
  H   H1550     1.0  0.58101  0.03033  0.92744  1.0000
  H   H1551     1.0  0.60396  0.00759  0.57571  1.0000
  C   C877      1.0  0.59937  0.15284  0.82864  1.0000
  C   C878      1.0  0.59109  0.14356  0.80015  1.0000
  C   C879      1.0  0.59033  0.12624  0.80449  1.0000
  C   C880      1.0  0.59795  0.11789  0.83739  1.0000
  C   C881      1.0  0.60632  0.12717  0.86573  1.0000
  C   C882      1.0  0.60703  0.14450  0.86148  1.0000
  H   H1552     1.0  0.58514  0.14982  0.77454  1.0000
  H   H1553     1.0  0.58387  0.11935  0.78236  1.0000
  H   H1554     1.0  0.61227  0.12090  0.89132  1.0000
  H   H1555     1.0  0.61345  0.15138  0.88369  1.0000
  C   C883      1.0  0.71419  0.05474  0.40640  1.0000
  C   C884      1.0  0.70936  0.06049  0.36755  1.0000
  Fe  Fe108     1.0  0.73651  0.23043  0.14922  1.0000
  C   C885      1.0  0.72772  0.06188  0.42427  1.0000
  H   H1556     1.0  0.69901  0.05516  0.35328  1.0000
  C   C886      1.0  0.61107  0.99788  0.75283  1.0000
  H   H1557     1.0  0.72829  0.18504  0.25860  1.0000
  H   H1558     1.0  0.54182  0.23719  0.84563  1.0000
  H   H1559     1.0  0.50114  0.01838  0.82394  1.0000
  H   H1560     1.0  0.69999  0.15864  0.54192  1.0000
  C   C887      1.0  0.66665  0.21772  0.98189  1.0000
  C   C888      1.0  0.67508  0.21512  0.01879  1.0000
  C   C889      1.0  0.68956  0.22347  0.02607  1.0000
  H   H1561     1.0  0.61171  0.00043  0.68468  1.0000
  S   S209      1.0  0.68779  0.99718  0.38962  1.0000
  H   H1562     1.0  0.67042  0.20655  0.04178  1.0000
  H   H1563     1.0  0.52093  0.22374  0.91819  1.0000
  S   S210      1.0  0.68002  0.00548  0.48596  1.0000
  H   H1564     1.0  0.57635  0.01764  0.19631  1.0000
  H   H1565     1.0  0.51042  0.01337  0.91491  1.0000
  C   C890      1.0  0.73326  0.10887  0.48844  1.0000
  H   H1566     1.0  0.64220  0.05145  0.73341  1.0000
  C   C891      1.0  0.60477  0.04951  0.50702  1.0000
  C   C892      1.0  0.62951  0.00914  0.15728  1.0000
  H   H1567     1.0  0.53559  0.23980  0.92078  1.0000
  H   H1568     1.0  0.67932  0.23665  0.20969  1.0000
  H   H1569     1.0  0.73176  0.05738  0.45401  1.0000
  N   N48       1.0  0.71519  0.11342  0.48750  1.0000
  C   C893      1.0  0.70496  0.10127  0.51181  1.0000
  C   C894      1.0  0.71201  0.13074  0.50275  1.0000
  C   C895      1.0  0.70987  0.11312  0.44341  1.0000
  C   C896      1.0  0.66052  0.23880  0.76032  1.0000
  H   H1570     1.0  0.49840  0.04741  0.73821  1.0000
  C   C897      1.0  0.70675  0.08301  0.49914  1.0000
  C   C898      1.0  0.71836  0.12540  0.41324  1.0000
  H   H1571     1.0  0.67412  0.23943  0.09709  1.0000
  C   C899      1.0  0.73016  0.18127  0.38430  1.0000
  C   C900      1.0  0.74096  0.10731  0.53132  1.0000
  C   C901      1.0  0.69662  0.07187  0.52760  1.0000
  C   C902      1.0  0.70968  0.12655  0.37214  1.0000
  H   H1572     1.0  0.69173  0.10502  0.50982  1.0000
  H   H1573     1.0  0.70776  0.10131  0.54491  1.0000
  C   C903      1.0  0.53022  0.01248  0.75392  1.0000
  H   H1574     1.0  0.70160  0.13697  0.48620  1.0000
  H   H1575     1.0  0.69633  0.11538  0.44182  1.0000
  H   H1576     1.0  0.71243  0.10082  0.43013  1.0000
  C   C904      1.0  0.49829  0.05377  0.76695  1.0000
  H   H1577     1.0  0.74228  0.02499  0.36953  1.0000
  H   H1578     1.0  0.54191  0.99536  0.79607  1.0000
  H   H1579     1.0  0.50493  0.03545  0.85507  1.0000
  H   H1580     1.0  0.70228  0.08137  0.46769  1.0000
  H   H1581     1.0  0.71970  0.07851  0.50077  1.0000
  H   H1582     1.0  0.49760  0.07687  0.86917  1.0000
  H   H1583     1.0  0.71863  0.13800  0.42537  1.0000
  C   C905      1.0  0.67280  0.22880  0.95230  1.0000
  H   H1584     1.0  0.70396  0.15180  0.59396  1.0000
  H   H1585     1.0  0.64328  0.00631  0.81388  1.0000
  C   C906      1.0  0.49773  0.07036  0.84065  1.0000
  H   H1586     1.0  0.73597  0.17592  0.52136  1.0000
  H   H1587     1.0  0.73529  0.20712  0.38510  1.0000
  C   C907      1.0  0.71787  0.07330  0.34717  1.0000
  S   S211      1.0  0.73053  0.20946  0.19404  1.0000
  H   H1588     1.0  0.69803  0.05894  0.51740  1.0000
  H   H1589     1.0  0.70088  0.07234  0.55966  1.0000
  H   H1590     1.0  0.68341  0.07560  0.52659  1.0000
  H   H1591     1.0  0.69698  0.13168  0.37620  1.0000
  H   H1592     1.0  0.71647  0.13477  0.35057  1.0000
  H   H1593     1.0  0.70928  0.11421  0.35838  1.0000
  N   N49       1.0  0.61805  0.00735  0.12208  1.0000
  H   H1594     1.0  0.65248  0.02524  0.20303  1.0000
  H   H1595     1.0  0.73383  0.16955  0.40042  1.0000
  H   H1596     1.0  0.62166  0.03163  0.37867  1.0000
  C   C908      1.0  0.52655  0.23413  0.90092  1.0000
  C   C909      1.0  0.73131  0.08054  0.36524  1.0000
  C   C910      1.0  0.66906  0.22395  0.76903  1.0000
  H   H1597     1.0  0.61617  0.00268  0.43655  1.0000
  H   H1598     1.0  0.54868  0.02054  0.82556  1.0000
  H   H1599     1.0  0.61237  0.02987  0.98700  1.0000
  H   H1600     1.0  0.60096  0.00187  0.47535  1.0000
  H   H1601     1.0  0.57237  0.99650  0.21015  1.0000
  H   H1602     1.0  0.60083  0.05111  0.53956  1.0000
  C   C911      1.0  0.67502  0.23474  0.17813  1.0000
  H   H1603     1.0  0.73119  0.12101  0.40713  1.0000
  H   H1604     1.0  0.66644  0.23087  0.92376  1.0000
  H   H1605     1.0  0.74045  0.11827  0.47116  1.0000
  N   N50       1.0  0.53148  0.01280  0.87325  1.0000
  C   C912      1.0  0.70811  0.15064  0.56146  1.0000
  H   H1606     1.0  0.63577  0.01928  0.08176  1.0000
  H   H1607     1.0  0.51955  0.02133  0.75268  1.0000
  H   H1608     1.0  0.61129  0.03547  0.30823  1.0000
  H   H1609     1.0  0.60220  0.06123  0.48974  1.0000
  N   N51       1.0  0.64712  0.16787  0.74949  1.0000
  C   C913      1.0  0.65671  0.16461  0.78819  1.0000
  C   C914      1.0  0.65892  0.16811  0.71325  1.0000
  C   C915      1.0  0.63794  0.18421  0.75344  1.0000
  C   C916      1.0  0.63491  0.15467  0.74346  1.0000
  C   C917      1.0  0.64232  0.13689  0.73992  1.0000
  C   C918      1.0  0.64653  0.15939  0.82691  1.0000
  C   C919      1.0  0.62865  0.19073  0.71496  1.0000
  C   C920      1.0  0.67107  0.18239  0.71179  1.0000
  C   C921      1.0  0.68272  0.18121  0.67458  1.0000
  C   C922      1.0  0.62902  0.12415  0.74440  1.0000
  C   C923      1.0  0.65695  0.15889  0.86533  1.0000
  C   C924      1.0  0.62081  0.20777  0.72226  1.0000
  H   H1610     1.0  0.66338  0.17579  0.79619  1.0000
  H   H1611     1.0  0.66653  0.15496  0.78348  1.0000
  H   H1612     1.0  0.66653  0.15648  0.71283  1.0000
  H   H1613     1.0  0.65217  0.16837  0.68392  1.0000
  H   H1614     1.0  0.64630  0.19393  0.76274  1.0000
  H   H1615     1.0  0.62867  0.18353  0.77872  1.0000
  H   H1616     1.0  0.62532  0.15492  0.76828  1.0000
  H   H1617     1.0  0.62802  0.15710  0.71481  1.0000
  H   H1618     1.0  0.65155  0.13390  0.76361  1.0000
  H   H1619     1.0  0.64838  0.13542  0.70933  1.0000
  H   H1620     1.0  0.63596  0.16800  0.83229  1.0000
  H   H1621     1.0  0.64168  0.14691  0.82360  1.0000
  H   H1622     1.0  0.61862  0.18248  0.70764  1.0000
  H   H1623     1.0  0.63697  0.19185  0.68779  1.0000
  H   H1624     1.0  0.66449  0.19454  0.70957  1.0000
  H   H1625     1.0  0.67863  0.18203  0.73967  1.0000
  H   H1626     1.0  0.69016  0.16952  0.67582  1.0000
  H   H1627     1.0  0.67574  0.18199  0.64567  1.0000
  H   H1628     1.0  0.69121  0.19162  0.67441  1.0000
  H   H1629     1.0  0.62372  0.12417  0.77605  1.0000
  H   H1630     1.0  0.61907  0.12680  0.72220  1.0000
  H   H1631     1.0  0.63438  0.11166  0.73875  1.0000
  H   H1632     1.0  0.66165  0.17127  0.87117  1.0000
  H   H1633     1.0  0.64931  0.15506  0.89232  1.0000
  H   H1634     1.0  0.66745  0.14993  0.86201  1.0000
  H   H1635     1.0  0.73269  0.18016  0.35088  1.0000
  H   H1636     1.0  0.61435  0.21228  0.69433  1.0000
  H   H1637     1.0  0.61174  0.20717  0.74809  1.0000
  S   S212      1.0  0.74159  0.09668  0.33809  1.0000
  H   H1638     1.0  0.59980  0.02124  0.05293  1.0000
  C   C925      1.0  0.53870  0.02503  0.90128  1.0000
  S   S213      1.0  0.63147  0.00825  0.51885  1.0000
  H   H1639     1.0  0.55322  0.99667  0.87187  1.0000
  C   C926      1.0  0.59779  0.01948  0.37785  1.0000
  H   H1640     1.0  0.63032  0.21669  0.72933  1.0000
  H   H1641     1.0  0.59751  0.02439  0.50874  1.0000
  C   C927      1.0  0.53187  0.04295  0.89785  1.0000
  C   C928      1.0  0.54063  0.05403  0.92692  1.0000
  H   H1642     1.0  0.62859  0.99855  0.17934  1.0000
  H   H1643     1.0  0.74199  0.22730  0.89293  1.0000
  S   S214      1.0  0.70800  0.22440  0.68910  1.0000
  C   C929      1.0  0.73802  0.13683  0.22019  1.0000
  H   H1644     1.0  0.52898  0.02958  0.82044  1.0000
  H   H1645     1.0  0.53675  0.02130  0.93400  1.0000
  H   H1646     1.0  0.55224  0.02526  0.89598  1.0000
  H   H1647     1.0  0.53996  0.00257  0.39293  1.0000
  H   H1648     1.0  0.71676  0.18348  0.38916  1.0000
  C   C930      1.0  0.53541  0.01782  0.82928  1.0000
  H   H1649     1.0  0.52836  0.00273  0.73145  1.0000
  H   H1650     1.0  0.71590  0.12537  0.56918  1.0000
  H   H1651     1.0  0.72799  0.00273  0.35868  1.0000
  C   C931      1.0  0.69572  0.23448  0.99637  1.0000
  H   H1652     1.0  0.69486  0.12850  0.55522  1.0000
  Fe  Fe109     1.0  0.72731  0.23965  0.65524  1.0000
  C   C932      1.0  0.60264  0.00235  0.44146  1.0000
  H   H1653     1.0  0.53359  0.04805  0.86633  1.0000
  H   H1654     1.0  0.51868  0.04362  0.90679  1.0000
  H   H1655     1.0  0.53601  0.06696  0.92252  1.0000
  H   H1656     1.0  0.53828  0.05014  0.95936  1.0000
  H   H1657     1.0  0.55408  0.05360  0.92066  1.0000
  H   H1658     1.0  0.74360  0.15539  0.15569  1.0000
  H   H1659     1.0  0.56978  0.99721  0.39181  1.0000
  H   H1660     1.0  0.66393  0.04674  0.73000  1.0000
  H   H1661     1.0  0.58172  0.00010  0.67585  1.0000
  H   H1662     1.0  0.50944  0.99842  0.87681  1.0000
  C   C933      1.0  0.74117  0.18647  0.25130  1.0000
  H   H1663     1.0  0.72275  0.13849  0.49548  1.0000
  C   C934      1.0  0.73621  0.07470  0.40396  1.0000
  H   H1664     1.0  0.74238  0.02711  0.42426  1.0000
  H   H1665     1.0  0.57339  0.01232  0.46290  1.0000
  C   C935      1.0  0.60039  0.01041  0.13530  1.0000
  C   C936      1.0  0.62235  0.01982  0.08881  1.0000
  H   H1666     1.0  0.62275  0.02842  0.75187  1.0000
  S   S215      1.0  0.62578  0.23772  0.89743  1.0000
  C   C937      1.0  0.62724  0.02516  0.18194  1.0000
  H   H1667     1.0  0.54729  0.99989  0.44447  1.0000
  C   C938      1.0  0.59419  0.99962  0.17201  1.0000
  H   H1668     1.0  0.65905  0.01702  0.73763  1.0000
  C   C939      1.0  0.61927  0.03099  0.01575  1.0000
  C   C940      1.0  0.63978  0.02554  0.21605  1.0000
  H   H1669     1.0  0.63838  0.01484  0.23763  1.0000
  C   C941      1.0  0.56513  0.00962  0.40018  1.0000
  H   H1670     1.0  0.59209  0.00803  0.10964  1.0000
  H   H1671     1.0  0.59803  0.02360  0.14244  1.0000
  H   H1672     1.0  0.61971  0.03252  0.09962  1.0000
  N   N52       1.0  0.59433  0.01768  0.42343  1.0000
  C   C942      1.0  0.61770  0.02379  0.31795  1.0000
  C   C943      1.0  0.58716  0.99533  0.70493  1.0000
  C   C944      1.0  0.57601  0.01786  0.43188  1.0000
  H   H1673     1.0  0.63036  0.01907  0.70709  1.0000
  H   H1674     1.0  0.61488  0.02610  0.19670  1.0000
  H   H1675     1.0  0.62894  0.03620  0.16183  1.0000
  H   H1676     1.0  0.62325  0.00964  0.37264  1.0000
  C   C945      1.0  0.64923  0.02585  0.74785  1.0000
  H   H1677     1.0  0.62293  0.01497  0.81722  1.0000
  H   H1678     1.0  0.49637  0.22993  0.95517  1.0000
  H   H1679     1.0  0.73586  0.19648  0.43421  1.0000
  H   H1680     1.0  0.61500  0.03106  0.44453  1.0000
  H   H1681     1.0  0.73600  0.21629  0.96318  1.0000
  H   H1682     1.0  0.61737  0.04377  0.02667  1.0000
  H   H1683     1.0  0.64292  0.23858  0.05713  1.0000
  H   H1684     1.0  0.68455  0.22716  0.16172  1.0000
  H   H1685     1.0  0.63787  0.03700  0.23360  1.0000
  H   H1686     1.0  0.54623  0.21866  0.87536  1.0000
  H   H1687     1.0  0.63089  0.02457  0.30927  1.0000
  C   C946      1.0  0.53173  0.00480  0.79697  1.0000
  H   H1688     1.0  0.64248  0.00863  0.14602  1.0000
  C   C947      1.0  0.63035  0.00407  0.80627  1.0000
  H   H1689     1.0  0.69034  0.20850  0.75451  1.0000
  C   C948      1.0  0.53621  0.22714  0.86425  1.0000
  H   H1690     1.0  0.61820  0.04673  0.50621  1.0000
  C   C949      1.0  0.70753  0.13267  0.54899  1.0000
  C   C950      1.0  0.60135  0.03234  0.44385  1.0000
  C   C951      1.0  0.58068  0.01182  0.97646  1.0000
  H   H1691     1.0  0.56829  0.00412  0.15887  1.0000
  H   H1692     1.0  0.52810  0.22016  0.84460  1.0000
  H   H1693     1.0  0.69599  0.22130  0.05448  1.0000
  C   C952      1.0  0.59552  0.03546  0.48884  1.0000
  C   C953      1.0  0.51327  0.01123  0.88186  1.0000
  H   H1694     1.0  0.65087  0.02848  0.78068  1.0000
  C   C954      1.0  0.69038  0.23094  0.71799  1.0000
  C   C955      1.0  0.68386  0.22005  0.74784  1.0000
  N   N53       1.0  0.62855  0.00250  0.76046  1.0000
  H   H1695     1.0  0.57843  0.99823  0.73058  1.0000
  C   C956      1.0  0.63198  0.01909  0.74074  1.0000
  H   H1696     1.0  0.65075  0.04012  0.69046  1.0000
  H   H1697     1.0  0.60198  0.00048  0.19921  1.0000
  H   H1698     1.0  0.56462  0.01730  0.37148  1.0000
  H   H1699     1.0  0.72360  0.00683  0.42749  1.0000
  H   H1700     1.0  0.74168  0.17482  0.09711  1.0000
  H   H1701     1.0  0.66422  0.21544  0.79185  1.0000
  Fe  Fe110     1.0  0.66016  0.99745  0.38159  1.0000
  H   H1702     1.0  0.59847  0.04389  0.42585  1.0000
  H   H1703     1.0  0.66345  0.22792  0.18019  1.0000
  H   H1704     1.0  0.63251  0.02861  0.00865  1.0000
  C   C957      1.0  0.61604  0.02102  0.36438  1.0000
  H   H1705     1.0  0.71726  0.01496  0.49924  1.0000
  C   C958      1.0  0.65163  0.04203  0.72392  1.0000
  S   S216      1.0  0.73368  0.23797  0.58736  1.0000
  H   H1706     1.0  0.52022  0.99841  0.80467  1.0000
  H   H1707     1.0  0.73592  0.09725  0.47199  1.0000
  C   C959      1.0  0.54755  0.00804  0.41659  1.0000
  H   H1708     1.0  0.58228  0.03899  0.49058  1.0000
  H   H1709     1.0  0.59317  0.00897  0.36099  1.0000
  H   H1710     1.0  0.73450  0.09832  0.55145  1.0000
  H   H1711     1.0  0.54152  0.01903  0.74491  1.0000
  H   H1712     1.0  0.60256  0.00355  0.77607  1.0000
  C   C960      1.0  0.68730  0.23709  0.95950  1.0000
  H   H1713     1.0  0.71789  0.12881  0.25971  1.0000
  H   H1714     1.0  0.74071  0.11950  0.54584  1.0000
  H   H1715     1.0  0.73313  0.14976  0.22114  1.0000
  C   C961      1.0  0.73141  0.99589  0.43667  1.0000
  H   H1716     1.0  0.62034  0.00335  0.88825  1.0000
  C   C962      1.0  0.73149  0.12775  0.25841  1.0000
  H   H1717     1.0  0.50745  0.24220  0.85980  1.0000
  C   C963      1.0  0.73761  0.99851  0.48065  1.0000
  H   H1718     1.0  0.51381  0.99483  0.09036  1.0000
  H   H1719     1.0  0.64406  0.99845  0.68178  1.0000
  C   C964      1.0  0.58202  0.99494  0.98728  1.0000
  H   H1720     1.0  0.54846  0.99650  0.94525  1.0000
  H   H1721     1.0  0.72820  0.00510  0.54102  1.0000
  C   C965      1.0  0.54005  0.99630  0.88170  1.0000
  C   C966      1.0  0.72346  0.00329  0.50987  1.0000
  H   H1722     1.0  0.73628  0.13310  0.28656  1.0000
  C   C967      1.0  0.73941  0.19556  0.40120  1.0000
  H   H1723     1.0  0.73309  0.13107  0.19276  1.0000
  H   H1724     1.0  0.49424  0.12347  0.85951  1.0000
  H   H1725     1.0  0.64078  0.99405  0.88512  1.0000
  H   H1726     1.0  0.73520  0.11448  0.25767  1.0000
  S   S217      1.0  0.71462  0.24535  0.12730  1.0000
  H   H1727     1.0  0.50128  0.39156  0.50559  1.0000
  C   C968      1.0  0.49492  0.40336  0.56219  1.0000
  Fe  Fe111     1.0  0.72887  0.26770  0.14065  1.0000
  S   S218      1.0  0.71128  0.28674  0.17011  1.0000
  H   H1728     1.0  0.69176  0.28635  0.36852  1.0000
  Fe  Fe112     1.0  0.69851  0.35643  0.41226  1.0000
  S   S219      1.0  0.72407  0.36205  0.39106  1.0000
  S   S220      1.0  0.69214  0.33713  0.46173  1.0000
  Fe  Fe113     1.0  0.68250  0.38139  0.35090  1.0000
  S   S221      1.0  0.70739  0.38825  0.32464  1.0000
  S   S222      1.0  0.66040  0.39627  0.32406  1.0000
  Fe  Fe114     1.0  0.71366  0.36094  0.32763  1.0000
  S   S223      1.0  0.72949  0.34684  0.28096  1.0000
  Fe  Fe115     1.0  0.71590  0.38886  0.38983  1.0000
  C   C969      1.0  0.58378  0.25916  0.76601  1.0000
  S   S224      1.0  0.68840  0.35409  0.34876  1.0000
  S   S225      1.0  0.69071  0.38328  0.41609  1.0000
  S   S226      1.0  0.50387  0.34342  0.92943  1.0000
  C   C970      1.0  0.50769  0.39830  0.52942  1.0000
  Fe  Fe116     1.0  0.50690  0.31569  0.92207  1.0000
  S   S227      1.0  0.52731  0.30230  0.88482  1.0000
  Fe  Fe117     1.0  0.56017  0.40859  0.31262  1.0000
  S   S228      1.0  0.55940  0.42182  0.25152  1.0000
  S   S229      1.0  0.58186  0.39429  0.34256  1.0000
  Fe  Fe118     1.0  0.52267  0.41392  0.32534  1.0000
  S   S230      1.0  0.51971  0.42740  0.26408  1.0000
  H   H1729     1.0  0.70369  0.43492  0.27033  1.0000
  Fe  Fe119     1.0  0.53686  0.40758  0.23782  1.0000
  S   S231      1.0  0.53783  0.39517  0.17420  1.0000
  Fe  Fe120     1.0  0.54242  0.44053  0.28236  1.0000
  S   S232      1.0  0.54826  0.46763  0.26877  1.0000
  S   S233      1.0  0.53848  0.39351  0.29799  1.0000
  S   S234      1.0  0.54447  0.42798  0.34459  1.0000
  H   H1730     1.0  0.51711  0.26853  0.94619  1.0000
  S   S235      1.0  0.50228  0.40448  0.36858  1.0000
  H   H1731     1.0  0.52789  0.47659  0.34128  1.0000
  H   H1732     1.0  0.68130  0.30651  0.41867  1.0000
  C   C971      1.0  0.50826  0.36208  0.08913  1.0000
  C   C972      1.0  0.52317  0.36877  0.07611  1.0000
  C   C973      1.0  0.53191  0.37879  0.10247  1.0000
  C   C974      1.0  0.52597  0.38242  0.14234  1.0000
  C   C975      1.0  0.51106  0.37574  0.15537  1.0000
  C   C976      1.0  0.72373  0.25912  0.44007  1.0000
  C   C977      1.0  0.74396  0.42443  0.40864  1.0000
  H   H1733     1.0  0.54334  0.38389  0.09172  1.0000
  C   C978      1.0  0.71009  0.30615  0.36795  1.0000
  H   H1734     1.0  0.67513  0.29330  0.04472  1.0000
  H   H1735     1.0  0.65737  0.27666  0.80445  1.0000
  C   C979      1.0  0.56515  0.26040  0.91565  1.0000
  C   C980      1.0  0.55744  0.26945  0.94731  1.0000
  C   C981      1.0  0.54600  0.28242  0.93856  1.0000
  C   C982      1.0  0.54193  0.28636  0.89793  1.0000
  C   C983      1.0  0.54969  0.27734  0.86627  1.0000
  C   C984      1.0  0.56109  0.26435  0.87507  1.0000
  H   H1736     1.0  0.64262  0.29382  0.17381  1.0000
  H   H1737     1.0  0.54028  0.28934  0.96324  1.0000
  H   H1738     1.0  0.54660  0.28022  0.83472  1.0000
  H   H1739     1.0  0.50179  0.27333  0.05346  1.0000
  H   H1740     1.0  0.71421  0.25051  0.45108  1.0000
  H   H1741     1.0  0.73430  0.25951  0.88546  1.0000
  C   C985      1.0  0.68211  0.24601  0.71016  1.0000
  C   C986      1.0  0.63859  0.39528  0.32923  1.0000
  C   C987      1.0  0.62867  0.40768  0.31019  1.0000
  C   C988      1.0  0.61137  0.40773  0.31422  1.0000
  C   C989      1.0  0.60368  0.39521  0.33696  1.0000
  C   C990      1.0  0.61360  0.38278  0.35578  1.0000
  C   C991      1.0  0.63090  0.38280  0.35202  1.0000
  H   H1742     1.0  0.63443  0.41744  0.29256  1.0000
  H   H1743     1.0  0.60400  0.41747  0.29978  1.0000
  H   H1744     1.0  0.60786  0.37304  0.37354  1.0000
  H   H1745     1.0  0.63829  0.37319  0.36694  1.0000
  C   C992      1.0  0.72408  0.32986  0.25143  1.0000
  Fe  Fe121     1.0  0.49416  0.33721  0.99362  1.0000
  N   N54       1.0  0.72469  0.29492  0.35732  1.0000
  C   C993      1.0  0.71664  0.30299  0.20209  1.0000
  C   C994      1.0  0.70414  0.31185  0.22331  1.0000
  C   C995      1.0  0.70783  0.32512  0.24822  1.0000
  C   C996      1.0  0.65071  0.30127  0.15333  1.0000
  H   H1746     1.0  0.69151  0.30850  0.22027  1.0000
  H   H1747     1.0  0.69812  0.33191  0.26415  1.0000
  S   S236      1.0  0.49654  0.34917  0.05737  1.0000
  C   C997      1.0  0.72805  0.29848  0.51977  1.0000
  C   C998      1.0  0.71119  0.29796  0.52819  1.0000
  C   C999      1.0  0.70035  0.30991  0.51035  1.0000
  C   C1000     1.0  0.70625  0.32254  0.48419  1.0000
  C   C1001     1.0  0.72313  0.32315  0.47629  1.0000
  C   C1002     1.0  0.72920  0.28389  0.39360  1.0000
  H   H1748     1.0  0.70647  0.28827  0.54801  1.0000
  H   H1749     1.0  0.68732  0.30936  0.51682  1.0000
  H   H1750     1.0  0.72788  0.33298  0.45702  1.0000
  H   H1751     1.0  0.59357  0.25605  0.82632  1.0000
  C   C1003     1.0  0.73393  0.31114  0.49373  1.0000
  C   C1004     1.0  0.73597  0.25652  0.80434  1.0000
  H   H1752     1.0  0.63987  0.40855  0.40831  1.0000
  H   H1753     1.0  0.64175  0.24497  0.98218  1.0000
  C   C1005     1.0  0.67944  0.30872  0.38528  1.0000
  H   H1754     1.0  0.64453  0.27242  0.12090  1.0000
  H   H1755     1.0  0.67094  0.28383  0.15488  1.0000
  C   C1006     1.0  0.60147  0.28203  0.95754  1.0000
  N   N55       1.0  0.66562  0.26446  0.08431  1.0000
  H   H1756     1.0  0.67154  0.29826  0.11294  1.0000
  H   H1757     1.0  0.66719  0.30429  0.37757  1.0000
  C   C1007     1.0  0.73291  0.30740  0.20636  1.0000
  C   C1008     1.0  0.64145  0.25165  0.04653  1.0000
  H   H1758     1.0  0.59259  0.42880  0.21854  1.0000
  H   H1759     1.0  0.64821  0.36313  0.21772  1.0000
  H   H1760     1.0  0.73313  0.32692  0.38507  1.0000
  H   H1761     1.0  0.49897  0.43987  0.71366  1.0000
  H   H1762     1.0  0.71117  0.28161  0.03405  1.0000
  H   H1763     1.0  0.71386  0.44619  0.30878  1.0000
  C   C1009     1.0  0.73559  0.27423  0.30276  1.0000
  H   H1764     1.0  0.57855  0.35300  0.11710  1.0000
  S   S237      1.0  0.72925  0.40931  0.42259  1.0000
  C   C1010     1.0  0.72976  0.26311  0.26929  1.0000
  H   H1765     1.0  0.56646  0.25716  0.85059  1.0000
  H   H1766     1.0  0.66281  0.25842  0.17406  1.0000
  H   H1767     1.0  0.65715  0.31004  0.17243  1.0000
  C   C1011     1.0  0.68467  0.28337  0.04126  1.0000
  H   H1768     1.0  0.50624  0.37831  0.18578  1.0000
  H   H1769     1.0  0.74033  0.24652  0.94777  1.0000
  H   H1770     1.0  0.74264  0.30071  0.19023  1.0000
  H   H1771     1.0  0.71550  0.42397  0.30907  1.0000
  C   C1012     1.0  0.70149  0.29103  0.04165  1.0000
  H   H1772     1.0  0.71055  0.31792  0.34953  1.0000
  H   H1773     1.0  0.68889  0.27384  0.10323  1.0000
  H   H1774     1.0  0.66695  0.25112  0.02754  1.0000
  H   H1775     1.0  0.73394  0.28197  0.92891  1.0000
  H   H1776     1.0  0.70388  0.29613  0.07219  1.0000
  H   H1777     1.0  0.58663  0.26550  0.73623  1.0000
  H   H1778     1.0  0.60813  0.28647  0.98421  1.0000
  H   H1779     1.0  0.71759  0.29403  0.29409  1.0000
  H   H1780     1.0  0.60392  0.43130  0.17097  1.0000
  H   H1781     1.0  0.64686  0.34525  0.25131  1.0000
  H   H1782     1.0  0.60851  0.25903  0.78598  1.0000
  H   H1783     1.0  0.71064  0.27735  0.32440  1.0000
  H   H1784     1.0  0.68390  0.25797  0.15668  1.0000
  H   H1785     1.0  0.52797  0.36624  0.04566  1.0000
  H   H1786     1.0  0.62286  0.28007  0.91880  1.0000
  C   C1013     1.0  0.66334  0.29015  0.13124  1.0000
  C   C1014     1.0  0.51335  0.24722  0.88704  1.0000
  N   N56       1.0  0.50049  0.25217  0.91898  1.0000
  H   H1787     1.0  0.73107  0.29136  0.42109  1.0000
  H   H1788     1.0  0.68693  0.25447  0.68712  1.0000
  N   N57       1.0  0.60743  0.28760  0.83849  1.0000
  C   C1015     1.0  0.60727  0.30618  0.83605  1.0000
  C   C1016     1.0  0.62442  0.28054  0.82834  1.0000
  C   C1017     1.0  0.59586  0.28201  0.80638  1.0000
  C   C1018     1.0  0.60137  0.28121  0.87979  1.0000
  C   C1019     1.0  0.61069  0.28659  0.91775  1.0000
  C   C1020     1.0  0.59049  0.31508  0.84525  1.0000
  C   C1021     1.0  0.59633  0.26328  0.79800  1.0000
  C   C1022     1.0  0.63937  0.29011  0.84244  1.0000
  C   C1023     1.0  0.65532  0.27988  0.83714  1.0000
  H   H1789     1.0  0.68338  0.27798  0.01055  1.0000
  C   C1024     1.0  0.59202  0.33377  0.84313  1.0000
  H   H1790     1.0  0.70208  0.30115  0.01821  1.0000
  H   H1791     1.0  0.61155  0.31035  0.80487  1.0000
  H   H1792     1.0  0.61612  0.31121  0.85735  1.0000
  H   H1793     1.0  0.62570  0.26764  0.84053  1.0000
  H   H1794     1.0  0.62628  0.27969  0.79443  1.0000
  H   H1795     1.0  0.59836  0.28847  0.77641  1.0000
  H   H1796     1.0  0.58291  0.28530  0.81509  1.0000
  H   H1797     1.0  0.58815  0.28457  0.88443  1.0000
  H   H1798     1.0  0.60191  0.26753  0.88110  1.0000
  H   H1799     1.0  0.61228  0.30005  0.91770  1.0000
  C   C1025     1.0  0.65841  0.25976  0.04404  1.0000
  H   H1800     1.0  0.58121  0.31197  0.82260  1.0000
  H   H1801     1.0  0.58579  0.31175  0.87646  1.0000
  H   H1802     1.0  0.63429  0.42760  0.38114  1.0000
  H   H1803     1.0  0.67963  0.32213  0.37845  1.0000
  H   H1804     1.0  0.64056  0.30157  0.82338  1.0000
  H   H1805     1.0  0.63826  0.29365  0.87488  1.0000
  S   S238      1.0  0.57940  0.24413  0.92874  1.0000
  H   H1806     1.0  0.66586  0.28702  0.84693  1.0000
  H   H1807     1.0  0.65492  0.26833  0.85609  1.0000
  S   S239      1.0  0.73311  0.26656  0.65838  1.0000
  H   H1808     1.0  0.71062  0.30988  0.40054  1.0000
  C   C1026     1.0  0.71656  0.27105  0.40768  1.0000
  H   H1809     1.0  0.57984  0.33981  0.84956  1.0000
  H   H1810     1.0  0.60072  0.33776  0.86635  1.0000
  H   H1811     1.0  0.59632  0.33788  0.81207  1.0000
  H   H1812     1.0  0.68991  0.30117  0.32730  1.0000
  S   S240      1.0  0.71368  0.24545  0.00426  1.0000
  H   H1813     1.0  0.60059  0.26846  0.96091  1.0000
  N   N58       1.0  0.53121  0.41064  0.48305  1.0000
  C   C1027     1.0  0.53008  0.39481  0.46016  1.0000
  C   C1028     1.0  0.51591  0.41359  0.50934  1.0000
  C   C1029     1.0  0.53229  0.42455  0.45140  1.0000
  C   C1030     1.0  0.54646  0.41079  0.50838  1.0000
  C   C1031     1.0  0.54841  0.39707  0.54184  1.0000
  C   C1032     1.0  0.54452  0.39059  0.43000  1.0000
  C   C1033     1.0  0.52968  0.44234  0.46738  1.0000
  H   H1814     1.0  0.73422  0.25182  0.42686  1.0000
  H   H1815     1.0  0.58892  0.28779  0.95797  1.0000
  C   C1034     1.0  0.56540  0.39718  0.56071  1.0000
  C   C1035     1.0  0.54173  0.37453  0.40822  1.0000
  C   C1036     1.0  0.53206  0.45514  0.43268  1.0000
  H   H1816     1.0  0.51858  0.39516  0.44236  1.0000
  H   H1817     1.0  0.52895  0.38403  0.48138  1.0000
  H   H1818     1.0  0.51833  0.42245  0.53382  1.0000
  H   H1819     1.0  0.50602  0.41954  0.49056  1.0000
  H   H1820     1.0  0.52318  0.42303  0.42695  1.0000
  H   H1821     1.0  0.54450  0.42419  0.43553  1.0000
  H   H1822     1.0  0.55764  0.41042  0.48816  1.0000
  H   H1823     1.0  0.54701  0.42259  0.52466  1.0000
  H   H1824     1.0  0.54694  0.38467  0.52942  1.0000
  H   H1825     1.0  0.53930  0.39922  0.56708  1.0000
  H   H1826     1.0  0.54581  0.40025  0.40570  1.0000
  H   H1827     1.0  0.55626  0.38909  0.44646  1.0000
  H   H1828     1.0  0.53849  0.44488  0.49161  1.0000
  H   H1829     1.0  0.51706  0.44439  0.48010  1.0000
  H   H1830     1.0  0.58412  0.42211  0.17098  1.0000
  H   H1831     1.0  0.51658  0.38954  0.54395  1.0000
  H   H1832     1.0  0.68363  0.48755  0.42969  1.0000
  C   C1037     1.0  0.50234  0.36567  0.12906  1.0000
  C   C1038     1.0  0.67227  0.25141  0.15606  1.0000
  H   H1833     1.0  0.57511  0.39460  0.53707  1.0000
  H   H1834     1.0  0.56750  0.40927  0.57445  1.0000
  H   H1835     1.0  0.56636  0.38748  0.58526  1.0000
  H   H1836     1.0  0.53029  0.37559  0.39029  1.0000
  H   H1837     1.0  0.55216  0.37193  0.38658  1.0000
  H   H1838     1.0  0.54090  0.36409  0.43071  1.0000
  H   H1839     1.0  0.52325  0.45336  0.40778  1.0000
  H   H1840     1.0  0.52991  0.46772  0.44460  1.0000
  H   H1841     1.0  0.54475  0.45420  0.41968  1.0000
  H   H1842     1.0  0.56042  0.26646  0.97888  1.0000
  N   N59       1.0  0.68275  0.43732  0.40667  1.0000
  C   C1039     1.0  0.69616  0.43222  0.37654  1.0000
  C   C1040     1.0  0.68817  0.43247  0.44946  1.0000
  C   C1041     1.0  0.66786  0.42748  0.39785  1.0000
  C   C1042     1.0  0.67811  0.45547  0.40336  1.0000
  C   C1043     1.0  0.69198  0.46739  0.39074  1.0000
  C   C1044     1.0  0.69176  0.43401  0.33051  1.0000
  C   C1045     1.0  0.65288  0.42983  0.42768  1.0000
  C   C1046     1.0  0.70268  0.44180  0.46643  1.0000
  C   C1047     1.0  0.70826  0.43414  0.50735  1.0000
  C   C1048     1.0  0.50966  0.26917  0.02730  1.0000
  H   H1843     1.0  0.49677  0.30156  0.13027  1.0000
  C   C1049     1.0  0.63764  0.42202  0.41139  1.0000
  H   H1844     1.0  0.69978  0.41902  0.38192  1.0000
  H   H1845     1.0  0.70756  0.43889  0.38141  1.0000
  H   H1846     1.0  0.67810  0.43458  0.47229  1.0000
  H   H1847     1.0  0.69135  0.41900  0.45118  1.0000
  H   H1848     1.0  0.67119  0.41406  0.39780  1.0000
  H   H1849     1.0  0.66337  0.43052  0.36647  1.0000
  H   H1850     1.0  0.66832  0.45775  0.38035  1.0000
  H   H1851     1.0  0.67252  0.45964  0.43295  1.0000
  H   H1852     1.0  0.69540  0.46608  0.35785  1.0000
  H   H1853     1.0  0.70327  0.46504  0.40837  1.0000
  H   H1854     1.0  0.68488  0.42314  0.32154  1.0000
  H   H1855     1.0  0.68389  0.44512  0.32411  1.0000
  H   H1856     1.0  0.64986  0.44305  0.43246  1.0000
  H   H1857     1.0  0.65533  0.42369  0.45783  1.0000
  H   H1858     1.0  0.71340  0.44159  0.44515  1.0000
  H   H1859     1.0  0.69883  0.45478  0.47215  1.0000
  H   H1860     1.0  0.69801  0.43426  0.53034  1.0000
  H   H1861     1.0  0.71284  0.42124  0.50318  1.0000
  H   H1862     1.0  0.74267  0.43528  0.46834  1.0000
  H   H1863     1.0  0.71261  0.26358  0.38199  1.0000
  H   H1864     1.0  0.49748  0.47826  0.43250  1.0000
  H   H1865     1.0  0.64426  0.36550  0.27212  1.0000
  H   H1866     1.0  0.73706  0.31249  0.31763  1.0000
  H   H1867     1.0  0.73419  0.26994  0.79794  1.0000
  H   H1868     1.0  0.58421  0.24567  0.76121  1.0000
  H   H1869     1.0  0.72069  0.25434  0.28194  1.0000
  H   H1870     1.0  0.62712  0.42398  0.43311  1.0000
  C   C1050     1.0  0.69275  0.29955  0.36041  1.0000
  N   N60       1.0  0.59815  0.37607  0.21707  1.0000
  C   C1051     1.0  0.59252  0.39395  0.21819  1.0000
  C   C1052     1.0  0.58799  0.36625  0.24755  1.0000
  C   C1053     1.0  0.61571  0.37495  0.23130  1.0000
  C   C1054     1.0  0.59746  0.36905  0.17463  1.0000
  C   C1055     1.0  0.58371  0.37607  0.14610  1.0000
  C   C1056     1.0  0.60395  0.40619  0.19521  1.0000
  C   C1057     1.0  0.62332  0.35737  0.23824  1.0000
  C   C1058     1.0  0.56930  0.36621  0.24058  1.0000
  C   C1059     1.0  0.56055  0.35714  0.27595  1.0000
  C   C1060     1.0  0.58226  0.36563  0.10813  1.0000
  C   C1061     1.0  0.59555  0.42310  0.18856  1.0000
  C   C1062     1.0  0.64178  0.35790  0.24520  1.0000
  H   H1871     1.0  0.59127  0.39797  0.25052  1.0000
  H   H1872     1.0  0.58000  0.39585  0.20599  1.0000
  H   H1873     1.0  0.59200  0.35305  0.24781  1.0000
  H   H1874     1.0  0.58992  0.37062  0.27917  1.0000
  H   H1875     1.0  0.61680  0.38148  0.26065  1.0000
  H   H1876     1.0  0.62395  0.38130  0.20882  1.0000
  H   H1877     1.0  0.60919  0.37099  0.15726  1.0000
  H   H1878     1.0  0.59639  0.35544  0.17698  1.0000
  H   H1879     1.0  0.58646  0.38877  0.13534  1.0000
  H   H1880     1.0  0.57152  0.37671  0.16157  1.0000
  H   H1881     1.0  0.61504  0.40801  0.21357  1.0000
  H   H1882     1.0  0.60801  0.40147  0.16490  1.0000
  H   H1883     1.0  0.62134  0.34956  0.21150  1.0000
  H   H1884     1.0  0.61782  0.35146  0.26615  1.0000
  H   H1885     1.0  0.56382  0.37885  0.23841  1.0000
  H   H1886     1.0  0.56674  0.35955  0.21229  1.0000
  H   H1887     1.0  0.56249  0.36330  0.30542  1.0000
  H   H1888     1.0  0.54717  0.35722  0.27028  1.0000
  H   H1889     1.0  0.56514  0.34414  0.27854  1.0000
  H   H1890     1.0  0.57272  0.37126  0.08784  1.0000
  H   H1891     1.0  0.59409  0.36499  0.09065  1.0000
  C   C1063     1.0  0.68643  0.48534  0.39676  1.0000
  C   C1064     1.0  0.70717  0.43482  0.30308  1.0000
  H   H1892     1.0  0.70573  0.27741  0.42213  1.0000
  H   H1893     1.0  0.71841  0.44127  0.51933  1.0000
  H   H1894     1.0  0.50088  0.40922  0.58814  1.0000
  C   C1065     1.0  0.53444  0.48730  0.33073  1.0000
  S   S241      1.0  0.64133  0.24379  0.78435  1.0000
  C   C1066     1.0  0.74303  0.27955  0.95330  1.0000
  H   H1895     1.0  0.52000  0.25824  0.87547  1.0000
  C   C1067     1.0  0.72126  0.28533  0.31952  1.0000
  H   H1896     1.0  0.73873  0.25044  0.77470  1.0000
  H   H1897     1.0  0.63113  0.26432  0.99266  1.0000
  C   C1068     1.0  0.65487  0.27794  0.10308  1.0000
  C   C1069     1.0  0.68292  0.26974  0.07520  1.0000
  H   H1898     1.0  0.69641  0.49356  0.38646  1.0000
  H   H1899     1.0  0.64313  0.30844  0.13083  1.0000
  H   H1900     1.0  0.49738  0.43905  0.39138  1.0000
  H   H1901     1.0  0.66071  0.26139  0.72418  1.0000
  Fe  Fe122     1.0  0.72668  0.24583  0.06528  1.0000
  H   H1902     1.0  0.65699  0.27078  0.02331  1.0000
  H   H1903     1.0  0.72410  0.27058  0.24406  1.0000
  C   C1070     1.0  0.54522  0.48609  0.29683  1.0000
  H   H1904     1.0  0.69070  0.25902  0.06507  1.0000
  S   S242      1.0  0.49871  0.30978  0.98685  1.0000
  H   H1905     1.0  0.57117  0.26289  0.77641  1.0000
  H   H1906     1.0  0.63288  0.25822  0.06785  1.0000
  C   C1071     1.0  0.66720  0.24987  0.73111  1.0000
  C   C1072     1.0  0.73657  0.32086  0.23058  1.0000
  C   C1073     1.0  0.50944  0.25800  0.95565  1.0000
  H   H1907     1.0  0.49819  0.27737  0.89594  1.0000
  S   S243      1.0  0.73991  0.26909  0.07661  1.0000
  H   H1908     1.0  0.69200  0.24557  0.93635  1.0000
  C   C1074     1.0  0.73918  0.30549  0.34692  1.0000
  Fe  Fe123     1.0  0.74146  0.26431  0.59196  1.0000
  H   H1909     1.0  0.73319  0.30037  0.98739  1.0000
  H   H1910     1.0  0.72790  0.26593  0.46686  1.0000
  H   H1911     1.0  0.72444  0.25152  0.81755  1.0000
  H   H1912     1.0  0.51715  0.27961  0.01624  1.0000
  H   H1913     1.0  0.64889  0.28575  0.07871  1.0000
  C   C1075     1.0  0.66630  0.24923  0.11185  1.0000
  H   H1914     1.0  0.51801  0.25900  0.03839  1.0000
  H   H1915     1.0  0.49461  0.49298  0.39083  1.0000
  H   H1916     1.0  0.51794  0.24818  0.96782  1.0000
  S   S244      1.0  0.74230  0.28320  0.53858  1.0000
  H   H1917     1.0  0.67538  0.48849  0.37845  1.0000
  C   C1076     1.0  0.49887  0.26330  0.99317  1.0000
  H   H1918     1.0  0.73775  0.27079  0.97623  1.0000
  C   C1077     1.0  0.63358  0.25156  0.00441  1.0000
  H   H1919     1.0  0.74093  0.26617  0.32729  1.0000
  H   H1920     1.0  0.74035  0.25594  0.25618  1.0000
  H   H1921     1.0  0.74125  0.27743  0.38805  1.0000
  C   C1078     1.0  0.74356  0.31815  0.37939  1.0000
  H   H1922     1.0  0.62179  0.24511  0.00670  1.0000
  H   H1923     1.0  0.65396  0.24401  0.11612  1.0000
  H   H1924     1.0  0.51040  0.60529  0.58227  1.0000
  H   H1925     1.0  0.57423  0.66369  0.11748  1.0000
  H   H1926     1.0  0.50492  0.56123  0.66109  1.0000
  H   H1927     1.0  0.68359  0.59563  0.33702  1.0000
  C   C1079     1.0  0.50836  0.54178  0.18426  1.0000
  S   S245      1.0  0.71400  0.71920  0.65499  1.0000
  S   S246      1.0  0.73539  0.73119  0.20048  1.0000
  S   S247      1.0  0.50592  0.66218  0.00896  1.0000
  C   C1080     1.0  0.51556  0.61760  0.58466  1.0000
  C   C1081     1.0  0.71529  0.70284  0.31577  1.0000
  Fe  Fe124     1.0  0.50725  0.68954  0.99491  1.0000
  S   S248      1.0  0.53135  0.70127  0.97308  1.0000
  H   H1928     1.0  0.58345  0.65195  0.35637  1.0000
  Fe  Fe125     1.0  0.53243  0.59512  0.39186  1.0000
  S   S249      1.0  0.55211  0.57592  0.40701  1.0000
  S   S250      1.0  0.51436  0.60765  0.43702  1.0000
  Fe  Fe126     1.0  0.54025  0.59518  0.29883  1.0000
  S   S251      1.0  0.56022  0.57545  0.30799  1.0000
  S   S252      1.0  0.53555  0.60341  0.23140  1.0000
  Fe  Fe127     1.0  0.54299  0.56268  0.35213  1.0000
  S   S253      1.0  0.53541  0.53575  0.36110  1.0000
  Fe  Fe128     1.0  0.56821  0.59002  0.36192  1.0000
  S   S254      1.0  0.59599  0.59486  0.36190  1.0000
  S   S255      1.0  0.52243  0.58129  0.33944  1.0000
  S   S256      1.0  0.54909  0.61032  0.35034  1.0000
  Fe  Fe129     1.0  0.67840  0.62120  0.47420  1.0000
  S   S257      1.0  0.69089  0.61979  0.41255  1.0000
  S   S258      1.0  0.65272  0.61122  0.48687  1.0000
  Fe  Fe130     1.0  0.70730  0.63968  0.51087  1.0000
  S   S259      1.0  0.72132  0.63931  0.45072  1.0000
  S   S260      1.0  0.72195  0.65053  0.56244  1.0000
  Fe  Fe131     1.0  0.69719  0.64607  0.42251  1.0000
  S   S261      1.0  0.69144  0.66612  0.37528  1.0000
  Fe  Fe132     1.0  0.71400  0.61292  0.44687  1.0000
  C   C1082     1.0  0.54522  0.67214  0.07356  1.0000
  S   S262      1.0  0.68342  0.64806  0.48261  1.0000
  S   S263      1.0  0.70117  0.61268  0.50860  1.0000
  H   H1929     1.0  0.49681  0.60207  0.70722  1.0000
  H   H1930     1.0  0.53147  0.64594  0.76740  1.0000
  H   H1931     1.0  0.54776  0.52782  0.51103  1.0000
  C   C1083     1.0  0.61151  0.59899  0.39781  1.0000
  C   C1084     1.0  0.60813  0.60116  0.43964  1.0000
  C   C1085     1.0  0.62086  0.60484  0.46639  1.0000
  C   C1086     1.0  0.63711  0.60654  0.45178  1.0000
  C   C1087     1.0  0.64051  0.60430  0.41002  1.0000
  C   C1088     1.0  0.62781  0.60053  0.38333  1.0000
  H   H1932     1.0  0.59570  0.60004  0.45137  1.0000
  H   H1933     1.0  0.61806  0.60646  0.49865  1.0000
  H   H1934     1.0  0.65294  0.60538  0.39838  1.0000
  H   H1935     1.0  0.63061  0.59885  0.35109  1.0000
  H   H1936     1.0  0.64017  0.64375  0.49910  1.0000
  H   H1937     1.0  0.65926  0.52149  0.39210  1.0000
  C   C1089     1.0  0.54006  0.51668  0.33667  1.0000
  C   C1090     1.0  0.55126  0.51530  0.30377  1.0000
  H   H1938     1.0  0.51601  0.50307  0.14203  1.0000
  H   H1939     1.0  0.55825  0.52579  0.29399  1.0000
  H   H1940     1.0  0.74139  0.70578  0.52741  1.0000
  H   H1941     1.0  0.72269  0.73545  0.57907  1.0000
  C   C1091     1.0  0.50708  0.57193  0.68056  1.0000
  H   H1942     1.0  0.57373  0.68863  0.07835  1.0000
  H   H1943     1.0  0.67956  0.54419  0.37971  1.0000
  C   C1092     1.0  0.50212  0.56673  0.22286  1.0000
  H   H1944     1.0  0.54236  0.66529  0.99015  1.0000
  C   C1093     1.0  0.50716  0.64485  0.15852  1.0000
  C   C1094     1.0  0.51584  0.63217  0.13835  1.0000
  C   C1095     1.0  0.52445  0.61972  0.16116  1.0000
  C   C1096     1.0  0.52456  0.61969  0.20445  1.0000
  C   C1097     1.0  0.51591  0.63239  0.22457  1.0000
  C   C1098     1.0  0.50732  0.64484  0.20177  1.0000
  H   H1945     1.0  0.51588  0.63193  0.10519  1.0000
  H   H1946     1.0  0.53108  0.61001  0.14509  1.0000
  H   H1947     1.0  0.51580  0.63261  0.25773  1.0000
  H   H1948     1.0  0.52162  0.63561  0.62816  1.0000
  C   C1099     1.0  0.54241  0.71806  0.99178  1.0000
  C   C1100     1.0  0.53793  0.72589  0.02823  1.0000
  H   H1949     1.0  0.56642  0.67223  0.03037  1.0000
  C   C1101     1.0  0.55615  0.72368  0.96929  1.0000
  H   H1950     1.0  0.52738  0.72181  0.04578  1.0000
  C   C1102     1.0  0.57966  0.71815  0.11413  1.0000
  H   H1951     1.0  0.55979  0.71776  0.94103  1.0000
  H   H1952     1.0  0.66560  0.56661  0.47535  1.0000
  C   C1103     1.0  0.71689  0.70029  0.62863  1.0000
  C   C1104     1.0  0.73066  0.68977  0.63404  1.0000
  C   C1105     1.0  0.73197  0.67465  0.61354  1.0000
  C   C1106     1.0  0.71972  0.66993  0.58682  1.0000
  C   C1107     1.0  0.70611  0.68060  0.58076  1.0000
  C   C1108     1.0  0.70468  0.69559  0.60173  1.0000
  H   H1953     1.0  0.55640  0.70211  0.07612  1.0000
  H   H1954     1.0  0.69649  0.67710  0.56078  1.0000
  H   H1955     1.0  0.69391  0.70354  0.59756  1.0000
  S   S264      1.0  0.69050  0.74102  0.17432  1.0000
  H   H1956     1.0  0.50236  0.52979  0.33574  1.0000
  C   C1109     1.0  0.70318  0.69206  0.32989  1.0000
  C   C1110     1.0  0.70715  0.67889  0.35689  1.0000
  C   C1111     1.0  0.72334  0.67652  0.36971  1.0000
  H   H1957     1.0  0.52906  0.61486  0.52700  1.0000
  H   H1958     1.0  0.57091  0.72696  0.09889  1.0000
  H   H1959     1.0  0.69069  0.69398  0.31985  1.0000
  H   H1960     1.0  0.72653  0.66640  0.39041  1.0000
  C   C1112     1.0  0.72573  0.72267  0.43208  1.0000
  C   C1113     1.0  0.69546  0.57196  0.35238  1.0000
  C   C1114     1.0  0.51270  0.54242  0.26015  1.0000
  C   C1115     1.0  0.54000  0.53334  0.48636  1.0000
  C   C1116     1.0  0.65271  0.73421  0.99630  1.0000
  H   H1961     1.0  0.52945  0.67559  0.14383  1.0000
  H   H1962     1.0  0.67855  0.62563  0.31158  1.0000
  H   H1963     1.0  0.73719  0.72761  0.44369  1.0000
  H   H1964     1.0  0.70795  0.73186  0.38676  1.0000
  C   C1117     1.0  0.55407  0.65069  0.14715  1.0000
  C   C1118     1.0  0.52192  0.53047  0.49651  1.0000
  C   C1119     1.0  0.56267  0.66687  0.13471  1.0000
  H   H1965     1.0  0.54292  0.68806  0.16982  1.0000
  H   H1966     1.0  0.51836  0.60164  0.69648  1.0000
  H   H1967     1.0  0.58682  0.65175  0.41124  1.0000
  C   C1120     1.0  0.51716  0.52476  0.17912  1.0000
  H   H1968     1.0  0.55826  0.64944  0.98812  1.0000
  C   C1121     1.0  0.52862  0.70090  0.12302  1.0000
  H   H1969     1.0  0.49504  0.60056  0.22085  1.0000
  H   H1970     1.0  0.58933  0.71430  0.09149  1.0000
  C   C1122     1.0  0.50619  0.60311  0.68189  1.0000
  H   H1971     1.0  0.53707  0.63000  0.55984  1.0000
  N   N61       1.0  0.55240  0.67947  0.11103  1.0000
  H   H1972     1.0  0.73240  0.57685  0.49973  1.0000
  H   H1973     1.0  0.56673  0.67214  0.16381  1.0000
  H   H1974     1.0  0.73347  0.70858  0.89887  1.0000
  H   H1975     1.0  0.50557  0.69487  0.15419  1.0000
  H   H1976     1.0  0.54324  0.65325  0.16744  1.0000
  H   H1977     1.0  0.66000  0.62802  0.28263  1.0000
  C   C1123     1.0  0.53847  0.68545  0.13869  1.0000
  H   H1978     1.0  0.55928  0.62737  0.17903  1.0000
  H   H1979     1.0  0.53879  0.68188  0.05471  1.0000
  C   C1124     1.0  0.67845  0.54758  0.41249  1.0000
  H   H1980     1.0  0.66027  0.61553  0.32938  1.0000
  C   C1125     1.0  0.56528  0.73691  0.98294  1.0000
  H   H1981     1.0  0.56128  0.70781  0.15401  1.0000
  C   C1126     1.0  0.50595  0.73606  0.94180  1.0000
  H   H1982     1.0  0.68007  0.57976  0.40312  1.0000
  H   H1983     1.0  0.53638  0.71183  0.12058  1.0000
  H   H1984     1.0  0.52134  0.57815  0.48741  1.0000
  H   H1985     1.0  0.56246  0.55128  0.17666  1.0000
  H   H1986     1.0  0.54997  0.64420  0.11991  1.0000
  H   H1987     1.0  0.73032  0.73889  0.03742  1.0000
  H   H1988     1.0  0.72770  0.71707  0.03608  1.0000
  H   H1989     1.0  0.58318  0.63286  0.38572  1.0000
  H   H1990     1.0  0.51040  0.54862  0.15467  1.0000
  H   H1991     1.0  0.51680  0.55028  0.28528  1.0000
  H   H1992     1.0  0.64264  0.73199  0.01904  1.0000
  C   C1127     1.0  0.53155  0.61770  0.55939  1.0000
  C   C1128     1.0  0.56315  0.69338  0.09713  1.0000
  H   H1993     1.0  0.72804  0.69003  0.45022  1.0000
  H   H1994     1.0  0.56477  0.65332  0.06001  1.0000
  C   C1129     1.0  0.50979  0.58362  0.49795  1.0000
  C   C1130     1.0  0.51422  0.70514  0.15204  1.0000
  H   H1995     1.0  0.57665  0.63558  0.15143  1.0000
  H   H1996     1.0  0.71210  0.71293  0.29487  1.0000
  C   C1131     1.0  0.53186  0.50251  0.35035  1.0000
  H   H1997     1.0  0.50424  0.64521  0.67901  1.0000
  N   N62       1.0  0.69295  0.55736  0.42421  1.0000
  C   C1132     1.0  0.69240  0.56170  0.46899  1.0000
  C   C1133     1.0  0.70898  0.54827  0.41386  1.0000
  H   H1998     1.0  0.54034  0.64634  0.02030  1.0000
  C   C1134     1.0  0.54906  0.65565  0.00858  1.0000
  H   H1999     1.0  0.49820  0.57168  0.70685  1.0000
  C   C1135     1.0  0.67703  0.57386  0.53024  1.0000
  H   H2000     1.0  0.70752  0.56585  0.34530  1.0000
  C   C1136     1.0  0.71644  0.53649  0.44739  1.0000
  C   C1137     1.0  0.49664  0.52396  0.30949  1.0000
  H   H2001     1.0  0.54227  0.54674  0.48380  1.0000
  H   H2002     1.0  0.64902  0.53231  0.43379  1.0000
  H   H2003     1.0  0.73002  0.71411  0.40770  1.0000
  H   H2004     1.0  0.70349  0.56869  0.47612  1.0000
  H   H2005     1.0  0.69307  0.55054  0.48919  1.0000
  H   H2006     1.0  0.70781  0.54119  0.38533  1.0000
  H   H2007     1.0  0.71880  0.55723  0.40691  1.0000
  H   H2008     1.0  0.70128  0.58192  0.41109  1.0000
  C   C1138     1.0  0.73067  0.52591  0.42995  1.0000
  Fe  Fe133     1.0  0.72785  0.73612  0.69719  1.0000
  C   C1139     1.0  0.50091  0.57625  0.53074  1.0000
  H   H2009     1.0  0.68574  0.56494  0.33817  1.0000
  H   H2010     1.0  0.51478  0.58758  0.63108  1.0000
  H   H2011     1.0  0.64715  0.73895  0.96730  1.0000
  C   C1140     1.0  0.52066  0.64703  0.74726  1.0000
  C   C1141     1.0  0.50926  0.51508  0.14565  1.0000
  H   H2012     1.0  0.70015  0.73019  0.49948  1.0000
  H   H2013     1.0  0.72133  0.54379  0.47241  1.0000
  H   H2014     1.0  0.70739  0.52814  0.46143  1.0000
  C   C1142     1.0  0.50378  0.59815  0.47904  1.0000
  H   H2015     1.0  0.50974  0.52197  0.11579  1.0000
  H   H2016     1.0  0.73707  0.71899  0.96918  1.0000
  C   C1143     1.0  0.67575  0.53126  0.43672  1.0000
  H   H2017     1.0  0.70557  0.59630  0.34330  1.0000
  C   C1144     1.0  0.73546  0.68731  0.35556  1.0000
  H   H2018     1.0  0.73534  0.74255  0.36554  1.0000
  C   C1145     1.0  0.69227  0.57333  0.39939  1.0000
  H   H2019     1.0  0.53013  0.52637  0.16950  1.0000
  H   H2020     1.0  0.71762  0.72858  0.10170  1.0000
  H   H2021     1.0  0.57582  0.74101  0.96524  1.0000
  H   H2022     1.0  0.51256  0.55201  0.46566  1.0000
  H   H2023     1.0  0.68848  0.57937  0.54038  1.0000
  H   H2024     1.0  0.73425  0.60445  0.53286  1.0000
  H   H2025     1.0  0.72163  0.60804  0.60224  1.0000
  H   H2026     1.0  0.56320  0.56623  0.21672  1.0000
  H   H2027     1.0  0.66573  0.68665  0.47770  1.0000
  H   H2028     1.0  0.56959  0.64447  0.19941  1.0000
  H   H2029     1.0  0.66691  0.55528  0.41447  1.0000
  H   H2030     1.0  0.67337  0.69071  0.42630  1.0000
  C   C1146     1.0  0.56568  0.63887  0.17064  1.0000
  C   C1147     1.0  0.55362  0.50021  0.28364  1.0000
  C   C1148     1.0  0.52007  0.63179  0.72090  1.0000
  H   H2031     1.0  0.54044  0.60821  0.57148  1.0000
  C   C1149     1.0  0.57071  0.70324  0.13177  1.0000
  N   N63       1.0  0.71642  0.71344  0.46542  1.0000
  H   H2032     1.0  0.73487  0.71451  0.11024  1.0000
  C   C1150     1.0  0.72620  0.69801  0.47738  1.0000
  C   C1151     1.0  0.70060  0.70812  0.44726  1.0000
  C   C1152     1.0  0.71236  0.72374  0.50256  1.0000
  H   H2033     1.0  0.52332  0.50334  0.37603  1.0000
  C   C1153     1.0  0.50482  0.63261  0.69317  1.0000
  C   C1154     1.0  0.69004  0.69656  0.47476  1.0000
  C   C1155     1.0  0.74190  0.57129  0.48055  1.0000
  H   H2034     1.0  0.50457  0.72876  0.97086  1.0000
  H   H2035     1.0  0.53297  0.56059  0.17836  1.0000
  H   H2036     1.0  0.67537  0.53302  0.47030  1.0000
  C   C1156     1.0  0.67278  0.69535  0.45805  1.0000
  C   C1157     1.0  0.67725  0.57219  0.48363  1.0000
  H   H2037     1.0  0.67567  0.56165  0.54581  1.0000
  H   H2038     1.0  0.71939  0.69055  0.50071  1.0000
  H   H2039     1.0  0.68684  0.73832  0.98321  1.0000
  H   H2040     1.0  0.70315  0.70177  0.41783  1.0000
  H   H2041     1.0  0.69261  0.71905  0.43928  1.0000
  H   H2042     1.0  0.65941  0.72233  0.99058  1.0000
  H   H2043     1.0  0.71102  0.71565  0.53047  1.0000
  H   H2044     1.0  0.57196  0.54576  0.22477  1.0000
  N   N64       1.0  0.51365  0.55184  0.21962  1.0000
  H   H2045     1.0  0.68560  0.52210  0.42867  1.0000
  H   H2046     1.0  0.50744  0.71629  0.14020  1.0000
  H   H2047     1.0  0.68889  0.70099  0.50664  1.0000
  H   H2048     1.0  0.69566  0.68392  0.47548  1.0000
  C   C1158     1.0  0.65950  0.52386  0.42550  1.0000
  H   H2049     1.0  0.52138  0.53162  0.26075  1.0000
  H   H2050     1.0  0.66224  0.73931  0.12410  1.0000
  H   H2051     1.0  0.50505  0.57386  0.25046  1.0000
  H   H2052     1.0  0.53549  0.66335  0.08252  1.0000
  C   C1159     1.0  0.69550  0.58898  0.33147  1.0000
  H   H2053     1.0  0.53159  0.63088  0.70225  1.0000
  C   C1160     1.0  0.73147  0.70051  0.32859  1.0000
  H   H2054     1.0  0.50685  0.62650  0.56962  1.0000
  H   H2055     1.0  0.54442  0.53397  0.22064  1.0000
  H   H2056     1.0  0.52035  0.51703  0.49972  1.0000
  H   H2057     1.0  0.65798  0.51200  0.44261  1.0000
  H   H2058     1.0  0.52365  0.69877  0.09245  1.0000
  H   H2059     1.0  0.66623  0.70755  0.45811  1.0000
  N   N65       1.0  0.63488  0.65735  0.37207  1.0000
  C   C1161     1.0  0.61646  0.65860  0.36794  1.0000
  C   C1162     1.0  0.64217  0.67336  0.35752  1.0000
  C   C1163     1.0  0.64121  0.64417  0.34331  1.0000
  C   C1164     1.0  0.64015  0.65285  0.41531  1.0000
  C   C1165     1.0  0.62874  0.65900  0.45103  1.0000
  C   C1166     1.0  0.60750  0.64213  0.37457  1.0000
  C   C1167     1.0  0.66010  0.64202  0.33876  1.0000
  C   C1168     1.0  0.63694  0.68895  0.38134  1.0000
  C   C1169     1.0  0.64431  0.70429  0.36115  1.0000
  C   C1170     1.0  0.63700  0.65691  0.49250  1.0000
  C   C1171     1.0  0.58911  0.64496  0.38245  1.0000
  C   C1172     1.0  0.66496  0.62683  0.31407  1.0000
  H   H2060     1.0  0.61325  0.66344  0.33672  1.0000
  H   H2061     1.0  0.61081  0.66770  0.38913  1.0000
  H   H2062     1.0  0.65577  0.67262  0.35960  1.0000
  H   H2063     1.0  0.63947  0.67574  0.32445  1.0000
  H   H2064     1.0  0.63631  0.64648  0.31193  1.0000
  H   H2065     1.0  0.63674  0.63195  0.35361  1.0000
  H   H2066     1.0  0.64131  0.63925  0.41989  1.0000
  H   H2067     1.0  0.65275  0.65720  0.42036  1.0000
  H   H2068     1.0  0.61741  0.65182  0.45287  1.0000
  H   H2069     1.0  0.62492  0.67211  0.44719  1.0000
  H   H2070     1.0  0.60900  0.63455  0.34675  1.0000
  H   H2071     1.0  0.61259  0.63480  0.40076  1.0000
  H   H2072     1.0  0.66578  0.64069  0.36928  1.0000
  H   H2073     1.0  0.66535  0.65272  0.32189  1.0000
  H   H2074     1.0  0.62344  0.69096  0.38243  1.0000
  H   H2075     1.0  0.64167  0.68799  0.41296  1.0000
  H   H2076     1.0  0.65793  0.70306  0.35987  1.0000
  H   H2077     1.0  0.63973  0.70628  0.32949  1.0000
  H   H2078     1.0  0.64075  0.71529  0.37926  1.0000
  H   H2079     1.0  0.64830  0.66408  0.49302  1.0000
  H   H2080     1.0  0.62850  0.66134  0.51720  1.0000
  S   S265      1.0  0.72381  0.73873  0.76592  1.0000
  C   C1173     1.0  0.74133  0.60024  0.56002  1.0000
  C   C1174     1.0  0.51834  0.62241  0.62986  1.0000
  C   C1175     1.0  0.50493  0.58786  0.65496  1.0000
  H   H2081     1.0  0.69744  0.58774  0.29786  1.0000
  H   H2082     1.0  0.53222  0.56994  0.22676  1.0000
  H   H2083     1.0  0.52174  0.65834  0.72768  1.0000
  S   S266      1.0  0.73215  0.59387  0.41920  1.0000
  H   H2084     1.0  0.52969  0.61575  0.64056  1.0000
  H   H2085     1.0  0.51042  0.50397  0.44817  1.0000
  H   H2086     1.0  0.49629  0.51259  0.15405  1.0000
  C   C1176     1.0  0.49687  0.50373  0.45116  1.0000
  H   H2087     1.0  0.51614  0.53538  0.43273  1.0000
  H   H2088     1.0  0.74002  0.53376  0.41481  1.0000
  H   H2089     1.0  0.57982  0.69539  0.14875  1.0000
  H   H2090     1.0  0.51972  0.57069  0.69248  1.0000
  H   H2091     1.0  0.66648  0.58201  0.53968  1.0000
  H   H2092     1.0  0.56213  0.49940  0.25781  1.0000
  H   H2093     1.0  0.67759  0.58480  0.46984  1.0000
  C   C1177     1.0  0.55770  0.66335  0.04405  1.0000
  S   S267      1.0  0.49608  0.66110  0.13175  1.0000
  C   C1178     1.0  0.53079  0.55796  0.21171  1.0000
  H   H2094     1.0  0.50570  0.56502  0.54508  1.0000
  H   H2095     1.0  0.51865  0.70765  0.18317  1.0000
  C   C1179     1.0  0.51075  0.53858  0.46320  1.0000
  C   C1180     1.0  0.56172  0.55300  0.21034  1.0000
  H   H2096     1.0  0.54369  0.52754  0.45691  1.0000
  C   C1181     1.0  0.54536  0.54711  0.22789  1.0000
  C   C1182     1.0  0.49554  0.53606  0.27297  1.0000
  H   H2097     1.0  0.54565  0.54805  0.26177  1.0000
  H   H2098     1.0  0.51450  0.58339  0.17798  1.0000
  H   H2099     1.0  0.51957  0.62097  0.74238  1.0000
  N   N66       1.0  0.50437  0.61976  0.66047  1.0000
  H   H2100     1.0  0.66875  0.74175  0.04275  1.0000
  H   H2101     1.0  0.49742  0.57302  0.15779  1.0000
  H   H2102     1.0  0.73734  0.73263  0.51299  1.0000
  C   C1183     1.0  0.50205  0.57893  0.18534  1.0000
  C   C1184     1.0  0.73481  0.72683  0.04997  1.0000
  H   H2103     1.0  0.58555  0.72463  0.13920  1.0000
  C   C1185     1.0  0.72448  0.73736  0.51250  1.0000
  H   H2104     1.0  0.51664  0.51708  0.20768  1.0000
  H   H2105     1.0  0.74243  0.66644  0.61897  1.0000
  H   H2106     1.0  0.50067  0.65454  0.21785  1.0000
  Fe  Fe134     1.0  0.73864  0.73449  0.26790  1.0000
  H   H2107     1.0  0.72618  0.51723  0.40731  1.0000
  C   C1186     1.0  0.73101  0.72656  0.09599  1.0000
  C   C1187     1.0  0.74310  0.70042  0.49656  1.0000
  H   H2108     1.0  0.73668  0.51868  0.45517  1.0000
  H   H2109     1.0  0.50405  0.51278  0.30102  1.0000
  H   H2110     1.0  0.73531  0.59191  0.62256  1.0000
  H   H2111     1.0  0.51902  0.53602  0.52672  1.0000
  H   H2112     1.0  0.50944  0.64817  0.76709  1.0000
  H   H2113     1.0  0.73751  0.73654  0.11083  1.0000
  C   C1188     1.0  0.54704  0.73910  0.04192  1.0000
  C   C1189     1.0  0.72894  0.59668  0.59469  1.0000
  H   H2114     1.0  0.50022  0.73282  0.87749  1.0000
  H   H2115     1.0  0.72039  0.58726  0.58490  1.0000
  H   H2116     1.0  0.74009  0.69310  0.65479  1.0000
  H   H2117     1.0  0.50182  0.55771  0.40158  1.0000
  C   C1190     1.0  0.71593  0.73696  0.41024  1.0000
  H   H2118     1.0  0.50547  0.71410  0.90560  1.0000
  H   H2119     1.0  0.51918  0.73716  0.93432  1.0000
  H   H2120     1.0  0.49650  0.73126  0.07563  1.0000
  C   C1191     1.0  0.49881  0.72622  0.90754  1.0000
  H   H2121     1.0  0.49490  0.54001  0.18597  1.0000
  H   H2122     1.0  0.55337  0.77521  0.96687  1.0000
  H   H2123     1.0  0.69639  0.74910  0.91111  1.0000
  H   H2124     1.0  0.61913  0.98103  0.34941  1.0000
  C   C1192     1.0  0.58575  0.98906  0.91477  1.0000
  S   S268      1.0  0.65102  0.99208  0.31651  1.0000
  H   H2125     1.0  0.66899  0.77804  0.96011  1.0000
  Fe  Fe135     1.0  0.58385  0.92765  0.09956  1.0000
  S   S269      1.0  0.59767  0.95076  0.11215  1.0000
  S   S270      1.0  0.59669  0.90208  0.09245  1.0000
  Fe  Fe136     1.0  0.55014  0.94459  0.11671  1.0000
  S   S271      1.0  0.56148  0.96853  0.13155  1.0000
  S   S272      1.0  0.52319  0.93949  0.10354  1.0000
  Fe  Fe137     1.0  0.57788  0.96450  0.07593  1.0000
  H   H2126     1.0  0.51042  0.90074  0.11767  1.0000
  Fe  Fe138     1.0  0.58077  0.95379  0.16700  1.0000
  S   S273      1.0  0.58853  0.96141  0.23176  1.0000
  S   S274      1.0  0.56564  0.94129  0.05901  1.0000
  S   S275      1.0  0.56789  0.93000  0.15660  1.0000
  Fe  Fe139     1.0  0.62600  0.79116  0.04487  1.0000
  S   S276      1.0  0.62997  0.80562  0.98628  1.0000
  S   S277      1.0  0.64517  0.79670  0.09106  1.0000
  Fe  Fe140     1.0  0.59406  0.77630  0.01536  1.0000
  S   S278      1.0  0.59623  0.79003  0.95449  1.0000
  S   S279      1.0  0.57195  0.76133  0.03893  1.0000
  Fe  Fe141     1.0  0.62335  0.78250  0.95528  1.0000
  S   S280      1.0  0.63921  0.76847  0.90744  1.0000
  Fe  Fe142     1.0  0.60293  0.81211  0.99149  1.0000
  S   S281      1.0  0.59233  0.83854  0.98079  1.0000
  S   S282      1.0  0.62067  0.76759  0.01441  1.0000
  S   S283      1.0  0.59939  0.79885  0.05188  1.0000
  C   C1193     1.0  0.64058  0.98926  0.74603  1.0000
  S   S284      1.0  0.65581  0.98169  0.43847  1.0000
  H   H2127     1.0  0.67364  0.75085  0.95158  1.0000
  Fe  Fe143     1.0  0.68309  0.98275  0.44806  1.0000
  S   S285      1.0  0.70044  0.96286  0.47638  1.0000
  H   H2128     1.0  0.66882  0.81212  0.00288  1.0000
  C   C1194     1.0  0.71437  0.94794  0.45468  1.0000
  C   C1195     1.0  0.72656  0.94046  0.47958  1.0000
  C   C1196     1.0  0.71496  0.77170  0.08783  1.0000
  C   C1197     1.0  0.71345  0.94311  0.41397  1.0000
  H   H2129     1.0  0.72738  0.94405  0.51117  1.0000
  H   H2130     1.0  0.69859  0.86966  0.46512  1.0000
  H   H2131     1.0  0.70398  0.94848  0.39460  1.0000
  H   H2132     1.0  0.52129  0.79163  0.99955  1.0000
  C   C1198     1.0  0.60647  0.96897  0.25513  1.0000
  H   H2133     1.0  0.53947  0.92446  0.00707  1.0000
  S   S286      1.0  0.72713  0.79330  0.30315  1.0000
  C   C1199     1.0  0.62098  0.97203  0.23291  1.0000
  C   C1200     1.0  0.61967  0.97870  0.31700  1.0000
  C   C1201     1.0  0.60601  0.97227  0.29745  1.0000
  H   H2134     1.0  0.53460  0.87602  0.14915  1.0000
  C   C1202     1.0  0.52040  0.88066  0.07889  1.0000
  C   C1203     1.0  0.60809  0.97146  0.44130  1.0000
  H   H2135     1.0  0.72523  0.76308  0.07946  1.0000
  C   C1204     1.0  0.59352  0.88452  0.06204  1.0000
  C   C1205     1.0  0.58836  0.88585  0.02138  1.0000
  C   C1206     1.0  0.58782  0.87166  0.99725  1.0000
  C   C1207     1.0  0.59256  0.85596  0.01318  1.0000
  C   C1208     1.0  0.59718  0.85459  0.05424  1.0000
  C   C1209     1.0  0.59757  0.86874  0.07844  1.0000
  H   H2136     1.0  0.58536  0.89786  0.00803  1.0000
  H   H2137     1.0  0.58412  0.87291  0.96562  1.0000
  H   H2138     1.0  0.60037  0.84258  0.06734  1.0000
  H   H2139     1.0  0.60108  0.86748  0.11016  1.0000
  H   H2140     1.0  0.58772  0.98015  0.89094  1.0000
  H   H2141     1.0  0.70933  0.98886  0.31291  1.0000
  H   H2142     1.0  0.71634  0.97527  0.38045  1.0000
  H   H2143     1.0  0.58563  0.97057  0.96391  1.0000
  H   H2144     1.0  0.69676  0.79882  0.99217  1.0000
  H   H2145     1.0  0.52162  0.77266  0.93393  1.0000
  C   C1210     1.0  0.50458  0.94024  0.13328  1.0000
  C   C1211     1.0  0.50410  0.94394  0.17495  1.0000
  H   H2146     1.0  0.51533  0.94654  0.19019  1.0000
  Fe  Fe144     1.0  0.73101  0.77117  0.26295  1.0000
  C   C1212     1.0  0.50513  0.98482  0.08603  1.0000
  H   H2147     1.0  0.53574  0.89743  0.13918  1.0000
  C   C1213     1.0  0.69462  0.76315  0.03477  1.0000
  C   C1214     1.0  0.68365  0.77851  0.82017  1.0000
  C   C1215     1.0  0.67571  0.79154  0.84137  1.0000
  C   C1216     1.0  0.66218  0.78875  0.86825  1.0000
  C   C1217     1.0  0.65632  0.77286  0.87421  1.0000
  C   C1218     1.0  0.66427  0.75984  0.85308  1.0000
  C   C1219     1.0  0.67785  0.76261  0.82637  1.0000
  H   H2148     1.0  0.65609  0.79893  0.88366  1.0000
  C   C1220     1.0  0.56084  0.74469  0.01952  1.0000
  C   C1221     1.0  0.67891  0.74977  0.98286  1.0000
  C   C1222     1.0  0.67747  0.75659  0.15298  1.0000
  H   H2149     1.0  0.50696  0.76502  0.04269  1.0000
  C   C1223     1.0  0.65433  0.76436  0.10952  1.0000
  C   C1224     1.0  0.65722  0.78100  0.11496  1.0000
  C   C1225     1.0  0.67008  0.78540  0.13988  1.0000
  C   C1226     1.0  0.68015  0.77325  0.15897  1.0000
  H   H2150     1.0  0.61020  0.98738  0.08516  1.0000
  H   H2151     1.0  0.64428  0.76087  0.09085  1.0000
  H   H2152     1.0  0.67228  0.79826  0.14454  1.0000
  H   H2153     1.0  0.69003  0.77675  0.17814  1.0000
  N   N67       1.0  0.53850  0.88275  0.08487  1.0000
  H   H2154     1.0  0.70278  0.86966  0.38858  1.0000
  C   C1227     1.0  0.54774  0.86758  0.06993  1.0000
  C   C1228     1.0  0.71583  0.76438  0.89000  1.0000
  C   C1229     1.0  0.54462  0.89752  0.06085  1.0000
  C   C1230     1.0  0.54144  0.89772  0.01403  1.0000
  C   C1231     1.0  0.55930  0.88510  0.14337  1.0000
  C   C1232     1.0  0.54438  0.85131  0.09416  1.0000
  C   C1233     1.0  0.55514  0.83708  0.07769  1.0000
  C   C1234     1.0  0.54651  0.91391  0.99350  1.0000
  C   C1235     1.0  0.54119  0.88530  0.12990  1.0000
  C   C1236     1.0  0.54523  0.78599  0.97448  1.0000
  H   H2155     1.0  0.54471  0.86529  0.03753  1.0000
  H   H2156     1.0  0.56119  0.86947  0.06915  1.0000
  H   H2157     1.0  0.53939  0.90914  0.07384  1.0000
  H   H2158     1.0  0.55811  0.89841  0.06399  1.0000
  C   C1237     1.0  0.63449  0.97883  0.25229  1.0000
  H   H2159     1.0  0.54868  0.88767  0.99899  1.0000
  H   H2160     1.0  0.56568  0.89552  0.12856  1.0000
  H   H2161     1.0  0.56603  0.87352  0.13532  1.0000
  H   H2162     1.0  0.54699  0.85232  0.12720  1.0000
  H   H2163     1.0  0.53140  0.84797  0.09116  1.0000
  H   H2164     1.0  0.55329  0.83560  0.04433  1.0000
  H   H2165     1.0  0.56829  0.83928  0.08275  1.0000
  H   H2166     1.0  0.55199  0.82542  0.09404  1.0000
  H   H2167     1.0  0.51581  0.87084  0.10014  1.0000
  H   H2168     1.0  0.55985  0.91560  0.99709  1.0000
  H   H2169     1.0  0.54397  0.91375  0.96019  1.0000
  N   N68       1.0  0.71092  0.88387  0.50973  1.0000
  C   C1238     1.0  0.70275  0.87361  0.54315  1.0000
  C   C1239     1.0  0.70108  0.89978  0.50190  1.0000
  C   C1240     1.0  0.49699  0.75312  0.94517  1.0000
  C   C1241     1.0  0.72843  0.88737  0.51956  1.0000
  H   H2170     1.0  0.65305  0.99143  0.75757  1.0000
  C   C1242     1.0  0.71094  0.85651  0.55309  1.0000
  C   C1243     1.0  0.71582  0.87230  0.39386  1.0000
  C   C1244     1.0  0.69150  0.90735  0.53900  1.0000
  C   C1245     1.0  0.68516  0.92485  0.52900  1.0000
  H   H2171     1.0  0.73616  0.87583  0.51990  1.0000
  C   C1246     1.0  0.70225  0.84802  0.58945  1.0000
  H   H2172     1.0  0.52830  0.89627  0.00758  1.0000
  H   H2173     1.0  0.68981  0.87151  0.53482  1.0000
  H   H2174     1.0  0.70190  0.88017  0.57251  1.0000
  H   H2175     1.0  0.70910  0.90936  0.48798  1.0000
  H   H2176     1.0  0.72300  0.86052  0.39795  1.0000
  H   H2177     1.0  0.71022  0.84826  0.52670  1.0000
  H   H2178     1.0  0.73367  0.82878  0.50869  1.0000
  C   C1247     1.0  0.72475  0.93121  0.39825  1.0000
  C   C1248     1.0  0.73108  0.89647  0.55982  1.0000
  H   H2179     1.0  0.71333  0.76151  0.85766  1.0000
  H   H2180     1.0  0.72575  0.90919  0.55736  1.0000
  H   H2181     1.0  0.71000  0.96673  0.31116  1.0000
  H   H2182     1.0  0.72826  0.75538  0.55932  1.0000
  H   H2183     1.0  0.70348  0.85516  0.61776  1.0000
  H   H2184     1.0  0.49774  0.75941  0.91441  1.0000
  H   H2185     1.0  0.68070  0.89982  0.54694  1.0000
  H   H2186     1.0  0.69907  0.90785  0.56663  1.0000
  H   H2187     1.0  0.67705  0.92936  0.55438  1.0000
  H   H2188     1.0  0.69561  0.93319  0.52562  1.0000
  H   H2189     1.0  0.67809  0.92535  0.50021  1.0000
  H   H2190     1.0  0.70129  0.75110  0.03986  1.0000
  H   H2191     1.0  0.52715  0.99175  0.94121  1.0000
  H   H2192     1.0  0.65699  0.75830  0.01827  1.0000
  H   H2193     1.0  0.63543  0.95888  0.09920  1.0000
  H   H2194     1.0  0.68904  0.84667  0.58319  1.0000
  H   H2195     1.0  0.70788  0.83554  0.59487  1.0000
  C   C1249     1.0  0.66445  0.75219  0.12851  1.0000
  H   H2196     1.0  0.71949  0.77740  0.89083  1.0000
  C   C1250     1.0  0.67813  0.77994  0.98438  1.0000
  H   H2197     1.0  0.62048  0.97259  0.42696  1.0000
  S   S287      1.0  0.72147  0.76300  0.68341  1.0000
  H   H2198     1.0  0.54498  0.96767  0.96328  1.0000
  N   N69       1.0  0.65049  0.85064  0.09850  1.0000
  C   C1251     1.0  0.66893  0.85175  0.09659  1.0000
  C   C1252     1.0  0.64306  0.86749  0.10702  1.0000
  C   C1253     1.0  0.64607  0.83839  0.13217  1.0000
  C   C1254     1.0  0.64401  0.84495  0.05844  1.0000
  C   C1255     1.0  0.64798  0.85601  0.02021  1.0000
  C   C1256     1.0  0.67858  0.83652  0.07935  1.0000
  C   C1257     1.0  0.62748  0.83594  0.14006  1.0000
  C   C1258     1.0  0.64574  0.87411  0.15047  1.0000
  C   C1259     1.0  0.63821  0.89149  0.15447  1.0000
  C   C1260     1.0  0.64203  0.84850  0.98100  1.0000
  C   C1261     1.0  0.69707  0.83832  0.08288  1.0000
  C   C1262     1.0  0.62460  0.82469  0.17762  1.0000
  H   H2199     1.0  0.67366  0.85377  0.12777  1.0000
  H   H2200     1.0  0.67265  0.86272  0.07793  1.0000
  H   H2201     1.0  0.64805  0.87680  0.08487  1.0000
  H   H2202     1.0  0.62968  0.86786  0.10159  1.0000
  H   H2203     1.0  0.65176  0.84152  0.16155  1.0000
  H   H2204     1.0  0.65144  0.82606  0.12538  1.0000
  H   H2205     1.0  0.64818  0.83201  0.05257  1.0000
  H   H2206     1.0  0.63043  0.84454  0.06000  1.0000
  H   H2207     1.0  0.66133  0.85784  0.01637  1.0000
  H   H2208     1.0  0.64165  0.86825  0.02287  1.0000
  H   H2209     1.0  0.67534  0.82499  0.09599  1.0000
  H   H2210     1.0  0.67602  0.83509  0.04641  1.0000
  H   H2211     1.0  0.62205  0.82996  0.11358  1.0000
  H   H2212     1.0  0.62075  0.84778  0.14540  1.0000
  H   H2213     1.0  0.63980  0.86627  0.17445  1.0000
  H   H2214     1.0  0.65901  0.87457  0.15690  1.0000
  H   H2215     1.0  0.62476  0.89150  0.14968  1.0000
  H   H2216     1.0  0.64031  0.89603  0.18570  1.0000
  H   H2217     1.0  0.64386  0.90011  0.13168  1.0000
  H   H2218     1.0  0.64870  0.83665  0.97517  1.0000
  H   H2219     1.0  0.62865  0.84640  0.98330  1.0000
  H   H2220     1.0  0.64429  0.85701  0.95444  1.0000
  H   H2221     1.0  0.70112  0.84949  0.06567  1.0000
  H   H2222     1.0  0.70047  0.83913  0.11558  1.0000
  H   H2223     1.0  0.70363  0.82738  0.06984  1.0000
  H   H2224     1.0  0.63080  0.81244  0.17317  1.0000
  H   H2225     1.0  0.62931  0.83023  0.20564  1.0000
  H   H2226     1.0  0.61125  0.82284  0.18210  1.0000
  C   C1263     1.0  0.63717  0.96749  0.07253  1.0000
  H   H2227     1.0  0.68373  0.75246  0.81030  1.0000
  C   C1264     1.0  0.70535  0.77710  0.04980  1.0000
  C   C1265     1.0  0.54420  0.97153  0.93041  1.0000
  H   H2228     1.0  0.72372  0.74753  0.48921  1.0000
  H   H2229     1.0  0.71927  0.86290  0.47433  1.0000
  H   H2230     1.0  0.73787  0.83316  0.60233  1.0000
  H   H2231     1.0  0.63730  0.97709  0.75954  1.0000
  H   H2232     1.0  0.72856  0.82223  0.35085  1.0000
  H   H2233     1.0  0.74208  0.77669  0.98950  1.0000
  H   H2234     1.0  0.73402  0.89514  0.49483  1.0000
  H   H2235     1.0  0.62343  0.98158  0.89780  1.0000
  H   H2236     1.0  0.69064  0.77060  0.90628  1.0000
  H   H2237     1.0  0.55493  0.87618  0.20622  1.0000
  Fe  Fe145     1.0  0.71907  0.76566  0.75226  1.0000
  S   S288      1.0  0.71527  0.74939  0.27634  1.0000
  H   H2238     1.0  0.65984  0.74750  0.85721  1.0000
  H   H2239     1.0  0.71119  0.77504  0.96477  1.0000
  H   H2240     1.0  0.68100  0.82222  0.96341  1.0000
  H   H2241     1.0  0.69149  0.89800  0.47869  1.0000
  H   H2242     1.0  0.72399  0.92770  0.36658  1.0000
  C   C1266     1.0  0.50914  0.89616  0.08620  1.0000
  Fe  Fe146     1.0  0.71314  0.74809  0.20785  1.0000
  S   S289      1.0  0.58112  0.98895  0.04015  1.0000
  H   H2243     1.0  0.70699  0.76553  0.11100  1.0000
  H   H2244     1.0  0.54295  0.79344  0.94602  1.0000
  C   C1267     1.0  0.67456  0.81077  0.97188  1.0000
  C   C1268     1.0  0.63395  0.98234  0.29445  1.0000
  H   H2245     1.0  0.55633  0.96895  0.91536  1.0000
  H   H2246     1.0  0.64920  0.96445  0.05755  1.0000
  H   H2247     1.0  0.61223  0.98618  0.82949  1.0000
  H   H2248     1.0  0.55175  0.79364  0.99627  1.0000
  H   H2249     1.0  0.68000  0.80390  0.83672  1.0000
  C   C1269     1.0  0.70384  0.76391  0.96264  1.0000
  H   H2250     1.0  0.55394  0.89839  0.19971  1.0000
  H   H2251     1.0  0.65477  0.96278  0.70416  1.0000
  H   H2252     1.0  0.72727  0.83539  0.45803  1.0000
  C   C1270     1.0  0.72039  0.74478  0.55423  1.0000
  H   H2253     1.0  0.72397  0.85765  0.56117  1.0000
  C   C1271     1.0  0.62531  0.98899  0.83342  1.0000
  H   H2254     1.0  0.69194  0.79522  0.93987  1.0000
  H   H2255     1.0  0.57349  0.88740  0.19825  1.0000
  H   H2256     1.0  0.59401  0.98652  0.16330  1.0000
  H   H2257     1.0  0.62177  0.96919  0.20075  1.0000
  C   C1272     1.0  0.52907  0.78043  0.99403  1.0000
  H   H2258     1.0  0.63292  0.97787  0.82589  1.0000
  H   H2259     1.0  0.51145  0.74574  0.02089  1.0000
  H   H2260     1.0  0.53192  0.77447  0.02422  1.0000
  H   H2261     1.0  0.51206  0.90629  0.06406  1.0000
  H   H2262     1.0  0.54343  0.74500  0.07023  1.0000
  C   C1273     1.0  0.63680  0.98530  0.08654  1.0000
  H   H2263     1.0  0.60312  0.95957  0.43218  1.0000
  H   H2264     1.0  0.60916  0.97135  0.47524  1.0000
  C   C1274     1.0  0.71730  0.88304  0.43130  1.0000
  H   H2265     1.0  0.53470  0.98663  0.86306  1.0000
  C   C1275     1.0  0.59672  0.98568  0.42680  1.0000
  H   H2266     1.0  0.73041  0.88568  0.43391  1.0000
  H   H2267     1.0  0.58896  0.98176  0.70303  1.0000
  H   H2268     1.0  0.53483  0.96414  0.91586  1.0000
  H   H2269     1.0  0.70736  0.74917  0.55613  1.0000
  H   H2270     1.0  0.50952  0.97749  0.05942  1.0000
  H   H2271     1.0  0.66813  0.98007  0.69738  1.0000
  C   C1276     1.0  0.73159  0.82467  0.47705  1.0000
  C   C1277     1.0  0.73694  0.92373  0.42310  1.0000
  H   H2272     1.0  0.72080  0.87890  0.36626  1.0000
  H   H2273     1.0  0.71989  0.75871  0.37164  1.0000
  H   H2274     1.0  0.72681  0.97813  0.28938  1.0000
  C   C1278     1.0  0.58452  0.98357  0.95613  1.0000
  H   H2275     1.0  0.62736  0.96572  0.05008  1.0000
  S   S290      1.0  0.72673  0.77122  0.19506  1.0000
  H   H2276     1.0  0.59500  0.96977  0.31527  1.0000
  H   H2277     1.0  0.74165  0.74631  0.97736  1.0000
  H   H2278     1.0  0.59627  0.98527  0.39298  1.0000
  H   H2279     1.0  0.51809  0.87620  0.04763  1.0000
  H   H2280     1.0  0.63071  0.98119  0.68826  1.0000
  H   H2281     1.0  0.72561  0.88991  0.58669  1.0000
  S   S291      1.0  0.70076  0.78283  0.78681  1.0000
  H   H2282     1.0  0.71454  0.78119  0.02673  1.0000
  H   H2283     1.0  0.66480  0.80912  0.94931  1.0000
  H   H2284     1.0  0.72614  0.75612  0.90042  1.0000
  C   C1279     1.0  0.68673  0.79607  0.97152  1.0000
  H   H2285     1.0  0.68398  0.76303  0.05666  1.0000
  C   C1280     1.0  0.56040  0.88687  0.18977  1.0000
  N   N70       1.0  0.68893  0.76463  0.99096  1.0000
  H   H2286     1.0  0.69725  0.78785  0.05803  1.0000
  C   C1281     1.0  0.71111  0.87406  0.47097  1.0000
  H   H2287     1.0  0.73496  0.75511  0.41073  1.0000
  H   H2288     1.0  0.52865  0.75668  0.96820  1.0000
  C   C1282     1.0  0.52068  0.76804  0.96639  1.0000
  H   H2289     1.0  0.64690  0.98644  0.10841  1.0000
  H   H2290     1.0  0.65679  0.97308  0.65476  1.0000
  H   H2291     1.0  0.71041  0.89481  0.42509  1.0000
  C   C1283     1.0  0.70041  0.76176  0.91658  1.0000
  H   H2292     1.0  0.67058  0.78241  0.01264  1.0000
  H   H2293     1.0  0.61819  0.98099  0.13281  1.0000
  H   H2294     1.0  0.50523  0.97673  0.11406  1.0000
  C   C1284     1.0  0.74096  0.81895  0.34086  1.0000
  C   C1285     1.0  0.72597  0.97645  0.35627  1.0000
  C   C1286     1.0  0.50265  0.75641  0.01959  1.0000
  C   C1287     1.0  0.53953  0.98988  0.92702  1.0000
  H   H2295     1.0  0.72192  0.81537  0.47785  1.0000
  H   H2296     1.0  0.74344  0.79438  0.48864  1.0000
  H   H2297     1.0  0.72020  0.78260  0.10191  1.0000
  C   C1288     1.0  0.62000  0.98999  0.10698  1.0000
  N   N71       1.0  0.50303  0.76438  0.97736  1.0000
  H   H2298     1.0  0.58432  0.98340  0.44006  1.0000
  C   C1289     1.0  0.66425  0.74676  0.01290  1.0000
  C   C1290     1.0  0.73779  0.92846  0.46393  1.0000
  H   H2299     1.0  0.72280  0.98562  0.43934  1.0000
  H   H2300     1.0  0.73368  0.96495  0.35654  1.0000
  H   H2301     1.0  0.73953  0.80619  0.63996  1.0000
  C   C1291     1.0  0.73635  0.99173  0.36323  1.0000
  C   C1292     1.0  0.65631  0.97493  0.68843  1.0000
  H   H2302     1.0  0.60976  0.98434  0.75691  1.0000
  H   H2303     1.0  0.71220  0.75343  0.97205  1.0000
  C   C1293     1.0  0.71755  0.97769  0.31484  1.0000
  C   C1294     1.0  0.64199  0.98678  0.69913  1.0000
  H   H2304     1.0  0.64552  0.98131  0.23451  1.0000
  H   H2305     1.0  0.49874  0.78955  0.95477  1.0000
  C   C1295     1.0  0.72729  0.74904  0.38827  1.0000
  C   C1296     1.0  0.74382  0.80525  0.31606  1.0000
  C   C1297     1.0  0.62765  0.99224  0.87888  1.0000
  H   H2306     1.0  0.74344  0.98701  0.49334  1.0000
  H   H2307     1.0  0.63932  0.99323  0.05910  1.0000
  H   H2308     1.0  0.70796  0.74391  0.43221  1.0000
  H   H2309     1.0  0.74405  0.96629  0.42074  1.0000
  H   H2310     1.0  0.71439  0.99340  0.51195  1.0000
  C   C1298     1.0  0.92926  0.15785  0.83937  1.0000
  H   H2311     1.0  0.79395  0.21245  0.41412  1.0000
  C   C1299     1.0  0.94921  0.01085  0.30129  1.0000
  C   C1300     1.0  0.77346  0.22841  0.46097  1.0000
  H   H2312     1.0  0.76035  0.22585  0.26508  1.0000
  H   H2313     1.0  0.94077  0.13049  0.79543  1.0000
  Fe  Fe147     1.0  0.76892  0.13977  0.42209  1.0000
  S   S292      1.0  0.75513  0.14077  0.36312  1.0000
  C   C1301     1.0  0.75354  0.19178  0.54702  1.0000
  Fe  Fe148     1.0  0.79729  0.11879  0.38380  1.0000
  S   S293      1.0  0.78489  0.11829  0.32287  1.0000
  S   S294      1.0  0.82139  0.10428  0.39606  1.0000
  Fe  Fe149     1.0  0.77942  0.14527  0.33281  1.0000
  S   S295      1.0  0.78487  0.16508  0.28463  1.0000
  Fe  Fe150     1.0  0.76153  0.11364  0.35939  1.0000
  H   H2314     1.0  0.80040  0.20959  0.77857  1.0000
  S   S296      1.0  0.79303  0.14610  0.39197  1.0000
  S   S297      1.0  0.77411  0.11235  0.41989  1.0000
  Fe  Fe151     1.0  0.97913  0.19217  0.94015  1.0000
  S   S298      1.0  0.96315  0.21073  0.90279  1.0000
  S   S299      1.0  0.97555  0.15975  0.07782  1.0000
  S   S300      1.0  0.97444  0.16504  0.95087  1.0000
  Fe  Fe152     1.0  0.91764  0.09561  0.31693  1.0000
  S   S301      1.0  0.92568  0.07737  0.26910  1.0000
  S   S302      1.0  0.89287  0.10987  0.31069  1.0000
  Fe  Fe153     1.0  0.95170  0.09233  0.35881  1.0000
  S   S303      1.0  0.96170  0.07429  0.31245  1.0000
  S   S304      1.0  0.96350  0.09996  0.41873  1.0000
  Fe  Fe154     1.0  0.94935  0.09129  0.26449  1.0000
  S   S305      1.0  0.95968  0.09776  0.19901  1.0000
  Fe  Fe155     1.0  0.93730  0.06206  0.32040  1.0000
  S   S306      1.0  0.93193  0.03567  0.34374  1.0000
  S   S307      1.0  0.94088  0.10998  0.31076  1.0000
  S   S308      1.0  0.92769  0.07973  0.36816  1.0000
  C   C1302     1.0  0.93738  0.01489  0.33138  1.0000
  H   H2315     1.0  0.92070  0.00496  0.37709  1.0000
  H   H2316     1.0  0.95516  0.02056  0.28392  1.0000
  C   C1303     1.0  0.97091  0.14230  0.11066  1.0000
  C   C1304     1.0  0.96840  0.14462  0.15310  1.0000
  C   C1305     1.0  0.96489  0.13130  0.18046  1.0000
  C   C1306     1.0  0.96357  0.11534  0.16587  1.0000
  C   C1307     1.0  0.96605  0.11304  0.12338  1.0000
  C   C1308     1.0  0.96966  0.12634  0.09604  1.0000
  H   H2317     1.0  0.98750  0.04103  0.33612  1.0000
  H   H2318     1.0  0.96353  0.13335  0.21299  1.0000
  H   H2319     1.0  0.96520  0.10080  0.11149  1.0000
  H   H2320     1.0  0.97143  0.12424  0.06360  1.0000
  C   C1309     1.0  0.80941  0.23193  0.62907  1.0000
  H   H2321     1.0  0.81147  0.17805  0.40734  1.0000
  C   C1310     1.0  0.76662  0.22076  0.37052  1.0000
  H   H2322     1.0  0.77145  0.20505  0.31648  1.0000
  H   H2323     1.0  0.96935  0.15684  0.16506  1.0000
  C   C1311     1.0  0.94418  0.22182  0.91206  1.0000
  C   C1312     1.0  0.93451  0.21915  0.94742  1.0000
  C   C1313     1.0  0.92278  0.24127  0.88628  1.0000
  H   H2324     1.0  0.76557  0.00356  0.37562  1.0000
  H   H2325     1.0  0.81957  0.19726  0.38781  1.0000
  H   H2326     1.0  0.93893  0.21075  0.97126  1.0000
  H   H2327     1.0  0.96462  0.17658  0.86263  1.0000
  C   C1314     1.0  0.77712  0.17274  0.50362  1.0000
  C   C1315     1.0  0.84743  0.21510  0.77979  1.0000
  C   C1316     1.0  0.84114  0.10600  0.37162  1.0000
  C   C1317     1.0  0.85393  0.09479  0.38289  1.0000
  C   C1318     1.0  0.86979  0.09572  0.36469  1.0000
  C   C1319     1.0  0.87313  0.10797  0.33500  1.0000
  C   C1320     1.0  0.86035  0.11921  0.32381  1.0000
  C   C1321     1.0  0.84447  0.11821  0.34180  1.0000
  H   H2328     1.0  0.85157  0.08532  0.40596  1.0000
  H   H2329     1.0  0.87943  0.08700  0.37376  1.0000
  H   H2330     1.0  0.86279  0.12886  0.30134  1.0000
  H   H2331     1.0  0.83485  0.12699  0.33291  1.0000
  C   C1322     1.0  0.76966  0.17811  0.26198  1.0000
  H   H2332     1.0  0.91418  0.16599  0.99129  1.0000
  H   H2333     1.0  0.90745  0.17697  0.92240  1.0000
  C   C1323     1.0  0.83336  0.22231  0.75404  1.0000
  C   C1324     1.0  0.76254  0.19973  0.21137  1.0000
  C   C1325     1.0  0.77438  0.18982  0.23195  1.0000
  H   H2334     1.0  0.84874  0.14853  0.21534  1.0000
  C   C1326     1.0  0.75825  0.19268  0.39668  1.0000
  H   H2335     1.0  0.76629  0.20858  0.18790  1.0000
  H   H2336     1.0  0.78724  0.19108  0.22411  1.0000
  C   C1327     1.0  0.76057  0.16897  0.50156  1.0000
  H   H2337     1.0  0.85417  0.13435  0.17526  1.0000
  H   H2338     1.0  0.96891  0.18708  0.77181  1.0000
  N   N72       1.0  0.92943  0.17565  0.85130  1.0000
  H   H2339     1.0  0.74688  0.20139  0.93185  1.0000
  H   H2340     1.0  0.84941  0.00384  0.35493  1.0000
  H   H2341     1.0  0.76486  0.00491  0.42956  1.0000
  C   C1328     1.0  0.85692  0.13788  0.20699  1.0000
  H   H2342     1.0  0.89160  0.22133  0.85625  1.0000
  C   C1329     1.0  0.74587  0.19801  0.22079  1.0000
  H   H2343     1.0  0.93960  0.18653  0.79523  1.0000
  N   N73       1.0  0.76838  0.20752  0.40380  1.0000
  C   C1330     1.0  0.78611  0.20188  0.40817  1.0000
  C   C1331     1.0  0.77012  0.19535  0.54973  1.0000
  C   C1332     1.0  0.78187  0.18582  0.52779  1.0000
  H   H2344     1.0  0.91852  0.15177  0.85392  1.0000
  H   H2345     1.0  0.83820  0.23282  0.73570  1.0000
  H   H2346     1.0  0.76169  0.18250  0.41876  1.0000
  H   H2347     1.0  0.74927  0.16751  0.29475  1.0000
  H   H2348     1.0  0.80706  0.22122  0.61004  1.0000
  H   H2349     1.0  0.81707  0.18040  0.35384  1.0000
  C   C1333     1.0  0.79430  0.19324  0.37091  1.0000
  C   C1334     1.0  0.92906  0.13627  0.78451  1.0000
  H   H2350     1.0  0.79541  0.20203  0.34451  1.0000
  C   C1335     1.0  0.91036  0.20178  0.85550  1.0000
  H   H2351     1.0  0.74438  0.19905  0.56365  1.0000
  H   H2352     1.0  0.85426  0.12743  0.22850  1.0000
  H   H2353     1.0  0.99295  0.06124  0.35202  1.0000
  C   C1336     1.0  0.81166  0.18689  0.38077  1.0000
  N   N74       1.0  0.90461  0.13156  0.19493  1.0000
  C   C1337     1.0  0.91419  0.11535  0.19386  1.0000
  C   C1338     1.0  0.90969  0.14104  0.23156  1.0000
  C   C1339     1.0  0.88670  0.12770  0.20142  1.0000
  C   C1340     1.0  0.90650  0.14179  0.15571  1.0000
  C   C1341     1.0  0.92304  0.13983  0.13140  1.0000
  C   C1342     1.0  0.90809  0.10288  0.16272  1.0000
  C   C1343     1.0  0.87484  0.14261  0.20986  1.0000
  C   C1344     1.0  0.92805  0.14487  0.23426  1.0000
  C   C1345     1.0  0.93144  0.15365  0.27395  1.0000
  C   C1346     1.0  0.92458  0.15304  0.09743  1.0000
  C   C1347     1.0  0.92142  0.09006  0.15124  1.0000
  H   H2354     1.0  0.91380  0.10912  0.22477  1.0000
  H   H2355     1.0  0.92742  0.11717  0.18759  1.0000
  H   H2356     1.0  0.90300  0.15318  0.23268  1.0000
  H   H2357     1.0  0.90623  0.13428  0.26041  1.0000
  H   H2358     1.0  0.88519  0.11873  0.22761  1.0000
  H   H2359     1.0  0.88201  0.12151  0.17422  1.0000
  H   H2360     1.0  0.89684  0.13898  0.13354  1.0000
  H   H2361     1.0  0.90441  0.15510  0.16211  1.0000
  H   H2362     1.0  0.92404  0.12768  0.11669  1.0000
  H   H2363     1.0  0.93370  0.14065  0.15131  1.0000
  H   H2364     1.0  0.89754  0.09625  0.17652  1.0000
  H   H2365     1.0  0.90391  0.10918  0.13404  1.0000
  H   H2366     1.0  0.87703  0.15292  0.18764  1.0000
  H   H2367     1.0  0.87655  0.14702  0.24142  1.0000
  H   H2368     1.0  0.93578  0.13342  0.23427  1.0000
  H   H2369     1.0  0.93179  0.15321  0.20860  1.0000
  H   H2370     1.0  0.94476  0.15591  0.27563  1.0000
  H   H2371     1.0  0.92458  0.16569  0.27492  1.0000
  H   H2372     1.0  0.92782  0.14598  0.30116  1.0000
  H   H2373     1.0  0.92471  0.16548  0.11076  1.0000
  H   H2374     1.0  0.93629  0.15098  0.07998  1.0000
  H   H2375     1.0  0.91428  0.15254  0.07581  1.0000
  H   H2376     1.0  0.91640  0.08102  0.13034  1.0000
  H   H2377     1.0  0.93191  0.09606  0.13533  1.0000
  H   H2378     1.0  0.92594  0.08333  0.17903  1.0000
  N   N75       1.0  0.96794  0.03956  0.45477  1.0000
  C   C1348     1.0  0.96999  0.02102  0.45601  1.0000
  C   C1349     1.0  0.97648  0.04689  0.49059  1.0000
  C   C1350     1.0  0.94978  0.04369  0.45927  1.0000
  C   C1351     1.0  0.97389  0.04699  0.41446  1.0000
  H   H2379     1.0  0.91681  0.15660  0.92031  1.0000
  C   C1352     1.0  0.96200  0.01182  0.42087  1.0000
  C   C1353     1.0  0.94498  0.06222  0.46367  1.0000
  H   H2380     1.0  0.94846  0.01350  0.42210  1.0000
  C   C1354     1.0  0.75895  0.10152  0.52818  1.0000
  H   H2381     1.0  0.91680  0.15997  0.78002  1.0000
  C   C1355     1.0  0.97248  0.18664  0.80451  1.0000
  C   C1356     1.0  0.92655  0.06467  0.47183  1.0000
  H   H2382     1.0  0.96492  0.01601  0.48564  1.0000
  C   C1357     1.0  0.76384  0.03565  0.39235  1.0000
  H   H2383     1.0  0.79748  0.23734  0.63968  1.0000
  H   H2384     1.0  0.97310  0.19939  0.81575  1.0000
  H   H2385     1.0  0.94451  0.03693  0.48638  1.0000
  H   H2386     1.0  0.94306  0.03962  0.43215  1.0000
  H   H2387     1.0  0.96573  0.04370  0.38915  1.0000
  H   H2388     1.0  0.97286  0.06066  0.41500  1.0000
  C   C1358     1.0  0.95341  0.99418  0.29365  1.0000
  H   H2389     1.0  0.91907  0.21001  0.83928  1.0000
  C   C1359     1.0  0.74882  0.17861  0.52315  1.0000
  H   H2390     1.0  0.96659  0.01619  0.39035  1.0000
  H   H2391     1.0  0.94807  0.06907  0.43499  1.0000
  H   H2392     1.0  0.95138  0.06790  0.48911  1.0000
  H   H2393     1.0  0.91201  0.20275  0.88897  1.0000
  H   H2394     1.0  0.93538  0.18893  0.90548  1.0000
  H   H2395     1.0  0.94410  0.16889  0.90385  1.0000
  H   H2396     1.0  0.75003  0.22014  0.44184  1.0000
  H   H2397     1.0  0.97946  0.05997  0.48343  1.0000
  C   C1360     1.0  0.80574  0.20062  0.67777  1.0000
  H   H2398     1.0  0.78403  0.20475  0.74517  1.0000
  H   H2399     1.0  0.78732  0.18253  0.36185  1.0000
  H   H2400     1.0  0.81711  0.16950  0.60943  1.0000
  H   H2401     1.0  0.91134  0.18426  0.80750  1.0000
  C   C1361     1.0  0.79958  0.22444  0.72056  1.0000
  H   H2402     1.0  0.92296  0.05889  0.50178  1.0000
  H   H2403     1.0  0.92335  0.07806  0.47268  1.0000
  H   H2404     1.0  0.91948  0.05926  0.44704  1.0000
  H   H2405     1.0  0.74656  0.00844  0.48114  1.0000
  C   C1362     1.0  0.75697  0.00559  0.40210  1.0000
  C   C1363     1.0  0.91306  0.18380  0.84125  1.0000
  H   H2406     1.0  0.93880  0.16020  0.77536  1.0000
  H   H2407     1.0  0.94356  0.19739  0.83973  1.0000
  H   H2408     1.0  0.82755  0.18436  0.66808  1.0000
  H   H2409     1.0  0.78457  0.22265  0.47529  1.0000
  C   C1364     1.0  0.82046  0.22669  0.66560  1.0000
  H   H2410     1.0  0.78952  0.22844  0.69971  1.0000
  H   H2411     1.0  0.80106  0.19186  0.70167  1.0000
  H   H2412     1.0  0.76094  0.18744  0.36607  1.0000
  H   H2413     1.0  0.82319  0.19798  0.62506  1.0000
  H   H2414     1.0  0.79849  0.18204  0.61005  1.0000
  C   C1365     1.0  0.91897  0.22723  0.95176  1.0000
  H   H2415     1.0  0.83707  0.20400  0.70786  1.0000
  H   H2416     1.0  0.92590  0.18386  0.97862  1.0000
  N   N76       1.0  0.81304  0.21518  0.69744  1.0000
  H   H2417     1.0  0.77783  0.22823  0.36867  1.0000
  H   H2418     1.0  0.89079  0.20822  0.81271  1.0000
  C   C1366     1.0  0.75302  0.17658  0.27193  1.0000
  H   H2419     1.0  0.98954  0.02544  0.51863  1.0000
  C   C1367     1.0  0.76464  0.22948  0.29550  1.0000
  H   H2420     1.0  0.77740  0.23713  0.43624  1.0000
  C   C1368     1.0  0.99235  0.03790  0.50622  1.0000
  C   C1369     1.0  0.94272  0.18471  0.82812  1.0000
  H   H2421     1.0  0.82227  0.19866  0.74568  1.0000
  C   C1370     1.0  0.77951  0.22615  0.78106  1.0000
  H   H2422     1.0  0.99113  0.04748  0.56824  1.0000
  H   H2423     1.0  0.76372  0.22315  0.89997  1.0000
  H   H2424     1.0  0.93553  0.16350  0.97661  1.0000
  H   H2425     1.0  0.77355  0.21899  0.80635  1.0000
  H   H2426     1.0  0.78734  0.19336  0.43539  1.0000
  C   C1371     1.0  0.99189  0.04273  0.40163  1.0000
  H   H2427     1.0  0.91153  0.22488  0.97902  1.0000
  H   H2428     1.0  0.90283  0.17637  0.85398  1.0000
  H   H2429     1.0  0.76023  0.08952  0.51266  1.0000
  H   H2430     1.0  0.79472  0.18854  0.52957  1.0000
  C   C1372     1.0  0.80847  0.17669  0.62941  1.0000
  H   H2431     1.0  0.98486  0.18063  0.80662  1.0000
  H   H2432     1.0  0.91860  0.13012  0.80014  1.0000
  H   H2433     1.0  0.84317  0.20482  0.79994  1.0000
  Fe  Fe156     1.0  0.75911  0.23090  0.60770  1.0000
  C   C1373     1.0  0.96030  0.17681  0.83062  1.0000
  H   H2434     1.0  0.85206  0.22483  0.79948  1.0000
  H   H2435     1.0  0.96811  0.04732  0.51809  1.0000
  N   N77       1.0  0.76475  0.14102  0.17747  1.0000
  C   C1374     1.0  0.75705  0.13662  0.21871  1.0000
  C   C1375     1.0  0.78275  0.14401  0.18285  1.0000
  C   C1376     1.0  0.75674  0.15708  0.16255  1.0000
  C   C1377     1.0  0.76240  0.12810  0.14572  1.0000
  C   C1378     1.0  0.76166  0.10992  0.16143  1.0000
  C   C1379     1.0  0.74790  0.21331  0.94728  1.0000
  C   C1380     1.0  0.76458  0.16527  0.12368  1.0000
  C   C1381     1.0  0.79335  0.12966  0.20160  1.0000
  C   C1382     1.0  0.81060  0.13521  0.21070  1.0000
  C   C1383     1.0  0.76230  0.09806  0.12578  1.0000
  H   H2436     1.0  0.76203  0.20492  0.46839  1.0000
  C   C1384     1.0  0.75363  0.17941  0.10685  1.0000
  H   H2437     1.0  0.76092  0.14527  0.24224  1.0000
  H   H2438     1.0  0.76157  0.12441  0.23043  1.0000
  H   H2439     1.0  0.78881  0.14706  0.15287  1.0000
  H   H2440     1.0  0.78414  0.15498  0.20206  1.0000
  H   H2441     1.0  0.75667  0.16630  0.18712  1.0000
  H   H2442     1.0  0.75646  0.22974  0.37827  1.0000
  H   H2443     1.0  0.75076  0.13060  0.12902  1.0000
  H   H2444     1.0  0.77224  0.12880  0.12156  1.0000
  H   H2445     1.0  0.75001  0.10795  0.17881  1.0000
  H   H2446     1.0  0.77183  0.10638  0.18206  1.0000
  H   H2447     1.0  0.75768  0.21195  0.97046  1.0000
  H   H2448     1.0  0.82405  0.23817  0.68005  1.0000
  H   H2449     1.0  0.76671  0.15623  0.09906  1.0000
  H   H2450     1.0  0.77648  0.17060  0.13126  1.0000
  H   H2451     1.0  0.78805  0.12489  0.23089  1.0000
  H   H2452     1.0  0.79476  0.11955  0.17950  1.0000
  H   H2453     1.0  0.81800  0.12467  0.22364  1.0000
  H   H2454     1.0  0.81683  0.13982  0.18226  1.0000
  H   H2455     1.0  0.81003  0.14510  0.23366  1.0000
  H   H2456     1.0  0.77411  0.09896  0.10838  1.0000
  H   H2457     1.0  0.76129  0.08522  0.13788  1.0000
  H   H2458     1.0  0.75197  0.10081  0.10474  1.0000
  C   C1385     1.0  0.92982  0.00200  0.35363  1.0000
  H   H2459     1.0  0.82944  0.23970  0.58840  1.0000
  H   H2460     1.0  0.77765  0.23299  0.29207  1.0000
  H   H2461     1.0  0.75976  0.18537  0.07987  1.0000
  H   H2462     1.0  0.75706  0.24030  0.30543  1.0000
  H   H2463     1.0  0.75133  0.18888  0.13045  1.0000
  C   C1386     1.0  0.93824  0.23302  0.88170  1.0000
  H   H2464     1.0  0.96085  0.16403  0.81948  1.0000
  Fe  Fe157     1.0  0.98547  0.16815  0.01330  1.0000
  C   C1387     1.0  0.93275  0.17622  0.89657  1.0000
  H   H2465     1.0  0.80310  0.16818  0.65287  1.0000
  H   H2466     1.0  0.82381  0.22715  0.77571  1.0000
  S   S309      1.0  0.74743  0.22882  0.08540  1.0000
  C   C1388     1.0  0.76305  0.21517  0.32651  1.0000
  H   H2467     1.0  0.78629  0.16539  0.48722  1.0000
  H   H2468     1.0  0.92834  0.13433  0.75100  1.0000
  C   C1389     1.0  0.92404  0.17084  0.97080  1.0000
  C   C1390     1.0  0.82643  0.20914  0.72591  1.0000
  H   H2469     1.0  0.83212  0.22132  0.65263  1.0000
  H   H2470     1.0  0.77136  0.03541  0.42037  1.0000
  H   H2471     1.0  0.85543  0.99921  0.40697  1.0000
  C   C1391     1.0  0.91911  0.16970  0.92601  1.0000
  H   H2472     1.0  0.75862  0.04832  0.38756  1.0000
  C   C1392     1.0  0.81756  0.19031  0.64982  1.0000
  C   C1393     1.0  0.79129  0.21488  0.75679  1.0000
  H   H2473     1.0  0.87079  0.00365  0.36761  1.0000
  H   H2474     1.0  0.78659  0.23649  0.93746  1.0000
  S   S310      1.0  0.75401  0.15219  0.47321  1.0000
  C   C1394     1.0  0.92840  0.15472  0.79270  1.0000
  H   H2475     1.0  0.94016  0.15086  0.85162  1.0000
  H   H2476     1.0  0.85773  0.21064  0.75971  1.0000
  C   C1395     1.0  0.91294  0.23832  0.92125  1.0000
  S   S311      1.0  0.77668  0.21158  0.57995  1.0000
  S   S312      1.0  0.75248  0.23079  0.67478  1.0000
  H   H2477     1.0  0.79476  0.20460  0.65977  1.0000
  H   H2478     1.0  0.78623  0.23629  0.79454  1.0000
  H   H2479     1.0  0.77182  0.03269  0.36532  1.0000
  H   H2480     1.0  0.75870  0.23003  0.51749  1.0000
  H   H2481     1.0  0.80423  0.23602  0.73245  1.0000
  C   C1396     1.0  0.98214  0.09459  0.44445  1.0000
  C   C1397     1.0  0.74997  0.02351  0.39710  1.0000
  C   C1398     1.0  0.76425  0.23833  0.49393  1.0000
  H   H2482     1.0  0.75189  0.23969  0.83746  1.0000
  C   C1399     1.0  0.98348  0.09829  0.48621  1.0000
  S   S313      1.0  0.98902  0.19561  0.00333  1.0000
  H   H2483     1.0  0.80648  0.23869  0.87754  1.0000
  H   H2484     1.0  0.74673  0.07985  0.41787  1.0000
  H   H2485     1.0  0.76406  0.10001  0.55940  1.0000
  C   C1400     1.0  0.89304  0.20839  0.84616  1.0000
  C   C1401     1.0  0.75199  0.22681  0.91549  1.0000
  H   H2486     1.0  0.97316  0.10418  0.50205  1.0000
  C   C1402     1.0  0.76273  0.21477  0.44419  1.0000
  H   H2487     1.0  0.98311  0.01705  0.45545  1.0000
  H   H2488     1.0  0.88375  0.20101  0.86302  1.0000
  H   H2489     1.0  0.76979  0.23152  0.76091  1.0000
  H   H2490     1.0  0.76624  0.11081  0.51086  1.0000
  H   H2491     1.0  0.94558  0.23523  0.85422  1.0000
  H   H2492     1.0  0.76050  0.24206  0.96407  1.0000
  H   H2493     1.0  0.75035  0.21077  0.32495  1.0000
  C   C1403     1.0  0.85896  0.99761  0.37417  1.0000
  H   H2494     1.0  0.81549  0.24323  0.92584  1.0000
  C   C1404     1.0  0.74522  0.29575  0.97498  1.0000
  H   H2495     1.0  0.86353  0.41866  0.84901  1.0000
  H   H2496     1.0  0.83236  0.40671  0.97266  1.0000
  H   H2497     1.0  0.78585  0.44944  0.58216  1.0000
  C   C1405     1.0  0.77605  0.25421  0.89220  1.0000
  H   H2498     1.0  0.74696  0.31172  0.48727  1.0000
  Fe  Fe158     1.0  0.85649  0.27775  0.82060  1.0000
  S   S314      1.0  0.84803  0.30188  0.84715  1.0000
  S   S315      1.0  0.84759  0.26960  0.75879  1.0000
  Fe  Fe159     1.0  0.87766  0.26795  0.89435  1.0000
  S   S316      1.0  0.87005  0.29135  0.92698  1.0000
  H   H2499     1.0  0.98992  0.46402  0.88885  1.0000
  Fe  Fe160     1.0  0.84450  0.28704  0.90584  1.0000
  S   S317      1.0  0.81982  0.29303  0.93704  1.0000
  Fe  Fe161     1.0  0.87411  0.30458  0.86589  1.0000
  S   S318      1.0  0.88872  0.32840  0.86558  1.0000
  S   S319      1.0  0.85151  0.26278  0.87791  1.0000
  S   S320      1.0  0.88318  0.28133  0.83445  1.0000
  Fe  Fe162     1.0  0.79589  0.48332  0.41182  1.0000
  H   H2500     1.0  0.93403  0.46102  0.88517  1.0000
  S   S321      1.0  0.78310  0.46320  0.37698  1.0000
  H   H2501     1.0  0.80447  0.45555  0.55618  1.0000
  S   S322      1.0  0.83687  0.47173  0.52396  1.0000
  S   S323      1.0  0.82352  0.48205  0.41467  1.0000
  Fe  Fe163     1.0  0.89282  0.42495  0.78437  1.0000
  S   S324      1.0  0.90406  0.43630  0.72682  1.0000
  S   S325      1.0  0.88023  0.40020  0.78120  1.0000
  Fe  Fe164     1.0  0.89832  0.45602  0.83387  1.0000
  S   S326      1.0  0.90958  0.46943  0.77960  1.0000
  S   S327      1.0  0.89616  0.46332  0.90119  1.0000
  Fe  Fe165     1.0  0.88927  0.45931  0.74157  1.0000
  S   S328      1.0  0.87424  0.47601  0.69606  1.0000
  Fe  Fe166     1.0  0.92338  0.44535  0.76880  1.0000
  S   S329      1.0  0.95059  0.44415  0.75020  1.0000
  S   S330      1.0  0.87707  0.44763  0.79750  1.0000
  S   S331      1.0  0.91316  0.43237  0.82474  1.0000
  C   C1406     1.0  0.96788  0.44171  0.78242  1.0000
  C   C1407     1.0  0.96627  0.43730  0.82400  1.0000
  C   C1408     1.0  0.84097  0.40898  0.82979  1.0000
  H   H2502     1.0  0.95418  0.43572  0.83745  1.0000
  C   C1409     1.0  0.93921  0.46343  0.91554  1.0000
  C   C1410     1.0  0.84667  0.47307  0.57262  1.0000
  C   C1411     1.0  0.85643  0.45958  0.58720  1.0000
  C   C1412     1.0  0.86472  0.46010  0.62492  1.0000
  C   C1413     1.0  0.86350  0.47421  0.64877  1.0000
  H   H2503     1.0  0.95262  0.41220  0.88477  1.0000
  H   H2504     1.0  0.97210  0.40506  0.75102  1.0000
  H   H2505     1.0  0.85766  0.44863  0.56914  1.0000
  H   H2506     1.0  0.87218  0.44962  0.63538  1.0000
  C   C1414     1.0  0.85025  0.42113  0.85485  1.0000
  C   C1415     1.0  0.75824  0.32816  0.36511  1.0000
  H   H2507     1.0  0.85760  0.48754  0.95121  1.0000
  C   C1416     1.0  0.98034  0.43476  0.84807  1.0000
  H   H2508     1.0  0.93100  0.40808  0.88877  1.0000
  H   H2509     1.0  0.77971  0.42067  0.44643  1.0000
  C   C1417     1.0  0.88543  0.34856  0.84363  1.0000
  C   C1418     1.0  0.87303  0.35229  0.81557  1.0000
  C   C1419     1.0  0.87157  0.36818  0.79715  1.0000
  C   C1420     1.0  0.88233  0.38062  0.80682  1.0000
  C   C1421     1.0  0.89442  0.37706  0.83580  1.0000
  C   C1422     1.0  0.89599  0.36112  0.85391  1.0000
  H   H2510     1.0  0.86471  0.34286  0.80774  1.0000
  H   H2511     1.0  0.86210  0.37081  0.77497  1.0000
  H   H2512     1.0  0.90264  0.38650  0.84399  1.0000
  H   H2513     1.0  0.90547  0.35847  0.87603  1.0000
  H   H2514     1.0  0.76589  0.28278  0.91887  1.0000
  C   C1423     1.0  0.76335  0.43729  0.36071  1.0000
  C   C1424     1.0  0.76765  0.44874  0.39005  1.0000
  C   C1425     1.0  0.75988  0.44804  0.42874  1.0000
  C   C1426     1.0  0.75155  0.42528  0.36979  1.0000
  H   H2515     1.0  0.76140  0.25796  0.81804  1.0000
  C   C1427     1.0  0.75019  0.25318  0.83348  1.0000
  H   H2516     1.0  0.96171  0.48138  0.75993  1.0000
  C   C1428     1.0  0.79605  0.26328  0.04312  1.0000
  C   C1429     1.0  0.78801  0.27722  0.02613  1.0000
  C   C1430     1.0  0.79555  0.28632  0.99398  1.0000
  C   C1431     1.0  0.81116  0.28152  0.97844  1.0000
  C   C1432     1.0  0.81922  0.26760  0.99549  1.0000
  H   H2517     1.0  0.84476  0.39610  0.83837  1.0000
  H   H2518     1.0  0.77612  0.28111  0.03832  1.0000
  H   H2519     1.0  0.78929  0.29715  0.98117  1.0000
  H   H2520     1.0  0.77828  0.43365  0.52122  1.0000
  H   H2521     1.0  0.79897  0.26695  0.67311  1.0000
  C   C1433     1.0  0.82623  0.26935  0.75104  1.0000
  H   H2522     1.0  0.85335  0.40011  0.97763  1.0000
  C   C1434     1.0  0.80340  0.26776  0.70400  1.0000
  H   H2523     1.0  0.98513  0.44730  0.73339  1.0000
  C   C1435     1.0  0.85373  0.48769  0.63413  1.0000
  H   H2524     1.0  0.82752  0.41076  0.83456  1.0000
  C   C1436     1.0  0.87339  0.42710  0.92583  1.0000
  C   C1437     1.0  0.95721  0.46891  0.91094  1.0000
  H   H2525     1.0  0.80216  0.38928  0.44349  1.0000
  C   C1438     1.0  0.85591  0.46101  0.94770  1.0000
  H   H2526     1.0  0.76479  0.39378  0.43224  1.0000
  N   N78       1.0  0.85504  0.42998  0.92948  1.0000
  C   C1439     1.0  0.80629  0.24753  0.90296  1.0000
  C   C1440     1.0  0.94356  0.40252  0.89089  1.0000
  H   H2527     1.0  0.82480  0.40411  0.46425  1.0000
  C   C1441     1.0  0.98372  0.44389  0.76554  1.0000
  H   H2528     1.0  0.87977  0.43507  0.94714  1.0000
  H   H2529     1.0  0.82899  0.26817  0.68536  1.0000
  C   C1442     1.0  0.82960  0.44183  0.36967  1.0000
  H   H2530     1.0  0.86191  0.47971  0.90093  1.0000
  H   H2531     1.0  0.81121  0.44616  0.48835  1.0000
  Fe  Fe167     1.0  0.82048  0.48835  0.48152  1.0000
  H   H2532     1.0  0.84791  0.40597  0.90925  1.0000
  C   C1443     1.0  0.79220  0.26833  0.73706  1.0000
  H   H2533     1.0  0.81940  0.27080  0.81498  1.0000
  H   H2534     1.0  0.83792  0.44970  0.91095  1.0000
  S   S332      1.0  0.77083  0.26758  0.73015  1.0000
  H   H2535     1.0  0.79204  0.40009  0.40144  1.0000
  H   H2536     1.0  0.94567  0.43749  0.92705  1.0000
  H   H2537     1.0  0.92519  0.44374  0.94338  1.0000
  C   C1444     1.0  0.84529  0.48710  0.59665  1.0000
  C   C1445     1.0  0.89841  0.48280  0.92399  1.0000
  H   H2538     1.0  0.87039  0.48039  0.47958  1.0000
  C   C1446     1.0  0.86501  0.47299  0.40055  1.0000
  C   C1447     1.0  0.95439  0.48284  0.84406  1.0000
  H   H2539     1.0  0.83206  0.41719  0.04411  1.0000
  C   C1448     1.0  0.85127  0.44774  0.91676  1.0000
  H   H2540     1.0  0.86874  0.45930  0.95771  1.0000
  H   H2541     1.0  0.84393  0.41099  0.79665  1.0000
  H   H2542     1.0  0.75049  0.29772  0.34175  1.0000
  H   H2543     1.0  0.85770  0.45084  0.88717  1.0000
  C   C1449     1.0  0.84595  0.41921  0.90121  1.0000
  H   H2544     1.0  0.74848  0.41659  0.34682  1.0000
  H   H2545     1.0  0.85785  0.47444  0.37201  1.0000
  C   C1450     1.0  0.79808  0.26966  0.77697  1.0000
  H   H2546     1.0  0.84123  0.44848  0.36649  1.0000
  H   H2547     1.0  0.94243  0.44941  0.97292  1.0000
  H   H2548     1.0  0.84787  0.46053  0.97557  1.0000
  C   C1451     1.0  0.89867  0.48362  0.96708  1.0000
  H   H2549     1.0  0.80992  0.25981  0.89078  1.0000
  H   H2550     1.0  0.79686  0.42596  0.54445  1.0000
  C   C1452     1.0  0.84414  0.40965  0.98687  1.0000
  C   C1453     1.0  0.87749  0.48846  0.45806  1.0000
  H   H2551     1.0  0.94531  0.39755  0.92261  1.0000
  H   H2552     1.0  0.87892  0.40646  0.96823  1.0000
  H   H2553     1.0  0.76929  0.32000  0.36062  1.0000
  Fe  Fe168     1.0  0.75996  0.25208  0.10084  1.0000
  H   H2554     1.0  0.81207  0.40399  0.50875  1.0000
  H   H2555     1.0  0.84097  0.48106  0.92043  1.0000
  H   H2556     1.0  0.85812  0.46517  0.42296  1.0000
  C   C1454     1.0  0.82035  0.26840  0.71102  1.0000
  H   H2557     1.0  0.83645  0.43180  0.49132  1.0000
  S   S333      1.0  0.76747  0.25696  0.60863  1.0000
  H   H2558     1.0  0.90015  0.40991  0.89004  1.0000
  H   H2559     1.0  0.81361  0.41520  0.40237  1.0000
  C   C1455     1.0  0.81501  0.27000  0.78402  1.0000
  C   C1456     1.0  0.81761  0.24473  0.60106  1.0000
  H   H2560     1.0  0.97898  0.43113  0.88009  1.0000
  H   H2561     1.0  0.83752  0.42852  0.42354  1.0000
  H   H2562     1.0  0.85317  0.41736  0.54358  1.0000
  C   C1457     1.0  0.77603  0.38658  0.44121  1.0000
  N   N79       1.0  0.81023  0.32445  0.75785  1.0000
  C   C1458     1.0  0.80308  0.31386  0.72588  1.0000
  C   C1459     1.0  0.80916  0.31546  0.79888  1.0000
  C   C1460     1.0  0.80071  0.34067  0.75859  1.0000
  C   C1461     1.0  0.82805  0.32778  0.74827  1.0000
  C   C1462     1.0  0.83904  0.31258  0.73680  1.0000
  C   C1463     1.0  0.80389  0.32077  0.68111  1.0000
  C   C1464     1.0  0.80486  0.35220  0.79385  1.0000
  C   C1465     1.0  0.79159  0.31219  0.81577  1.0000
  C   C1466     1.0  0.79211  0.30419  0.85862  1.0000
  C   C1467     1.0  0.85706  0.31695  0.73194  1.0000
  C   C1468     1.0  0.79880  0.30788  0.65096  1.0000
  C   C1469     1.0  0.79509  0.36854  0.79038  1.0000
  H   H2563     1.0  0.78986  0.31188  0.73263  1.0000
  H   H2564     1.0  0.80894  0.30132  0.72699  1.0000
  H   H2565     1.0  0.81556  0.30322  0.79728  1.0000
  H   H2566     1.0  0.81587  0.32201  0.82259  1.0000
  H   H2567     1.0  0.78727  0.33869  0.75976  1.0000
  H   H2568     1.0  0.80288  0.34775  0.72940  1.0000
  H   H2569     1.0  0.82925  0.33713  0.72293  1.0000
  H   H2570     1.0  0.83379  0.33331  0.77512  1.0000
  H   H2571     1.0  0.83532  0.30733  0.70749  1.0000
  H   H2572     1.0  0.83825  0.30291  0.76100  1.0000
  H   H2573     1.0  0.79534  0.33162  0.67761  1.0000
  H   H2574     1.0  0.81638  0.32458  0.67195  1.0000
  H   H2575     1.0  0.81807  0.35502  0.79301  1.0000
  H   H2576     1.0  0.80182  0.34653  0.82428  1.0000
  H   H2577     1.0  0.78404  0.32373  0.81803  1.0000
  H   H2578     1.0  0.78526  0.30366  0.79589  1.0000
  H   H2579     1.0  0.79939  0.29238  0.85822  1.0000
  H   H2580     1.0  0.79766  0.31254  0.88050  1.0000
  H   H2581     1.0  0.77947  0.30163  0.86965  1.0000
  H   H2582     1.0  0.86441  0.30588  0.72244  1.0000
  H   H2583     1.0  0.85864  0.32686  0.70825  1.0000
  H   H2584     1.0  0.86184  0.32093  0.76157  1.0000
  H   H2585     1.0  0.78643  0.30332  0.65924  1.0000
  H   H2586     1.0  0.79841  0.31338  0.61945  1.0000
  H   H2587     1.0  0.80780  0.29731  0.65092  1.0000
  H   H2588     1.0  0.78171  0.36644  0.79216  1.0000
  H   H2589     1.0  0.79823  0.37652  0.81603  1.0000
  H   H2590     1.0  0.79812  0.37509  0.76099  1.0000
  H   H2591     1.0  0.83044  0.43100  0.34956  1.0000
  H   H2592     1.0  0.85143  0.40469  0.49944  1.0000
  N   N80       1.0  0.75896  0.25769  0.90935  1.0000
  H   H2593     1.0  0.87698  0.46678  0.39288  1.0000
  C   C1470     1.0  0.86758  0.48994  0.41803  1.0000
  Fe  Fe169     1.0  0.75868  0.25744  0.67411  1.0000
  C   C1471     1.0  0.88009  0.40939  0.93490  1.0000
  H   H2594     1.0  0.82631  0.44759  0.43312  1.0000
  H   H2595     1.0  0.75370  0.29390  0.00099  1.0000
  H   H2596     1.0  0.85826  0.43164  0.99503  1.0000
  H   H2597     1.0  0.80095  0.43341  0.40259  1.0000
  H   H2598     1.0  0.87799  0.43107  0.89484  1.0000
  S   S334      1.0  0.79281  0.48812  0.47903  1.0000
  H   H2599     1.0  0.83248  0.42166  0.90504  1.0000
  C   C1472     1.0  0.79136  0.43634  0.52612  1.0000
  H   H2600     1.0  0.83766  0.43502  0.97918  1.0000
  H   H2601     1.0  0.77714  0.37553  0.42184  1.0000
  H   H2602     1.0  0.81809  0.24790  0.04110  1.0000
  H   H2603     1.0  0.82486  0.42776  0.53717  1.0000
  N   N81       1.0  0.95975  0.48496  0.88760  1.0000
  H   H2604     1.0  0.78525  0.40908  0.49122  1.0000
  C   C1473     1.0  0.89831  0.40770  0.92351  1.0000
  C   C1474     1.0  0.79166  0.45183  0.55157  1.0000
  H   H2605     1.0  0.83946  0.40042  0.54581  1.0000
  C   C1475     1.0  0.79121  0.39695  0.43477  1.0000
  H   H2606     1.0  0.90298  0.39503  0.93134  1.0000
  H   H2607     1.0  0.76924  0.43767  0.33065  1.0000
  H   H2608     1.0  0.80944  0.24805  0.57509  1.0000
  H   H2609     1.0  0.83126  0.26382  0.98391  1.0000
  H   H2610     1.0  0.84686  0.43370  0.84315  1.0000
  N   N82       1.0  0.94700  0.38336  0.78234  1.0000
  C   C1476     1.0  0.96548  0.38108  0.77996  1.0000
  C   C1477     1.0  0.93890  0.36686  0.78670  1.0000
  C   C1478     1.0  0.94163  0.39140  0.74226  1.0000
  C   C1479     1.0  0.94150  0.39455  0.81648  1.0000
  C   C1480     1.0  0.94618  0.38870  0.86034  1.0000
  C   C1481     1.0  0.97539  0.39707  0.77785  1.0000
  C   C1482     1.0  0.92279  0.39333  0.73618  1.0000
  C   C1483     1.0  0.94799  0.35287  0.81141  1.0000
  C   C1484     1.0  0.93721  0.33796  0.81807  1.0000
  H   H2611     1.0  0.95984  0.47125  0.83150  1.0000
  H   H2612     1.0  0.81942  0.45027  0.35924  1.0000
  C   C1485     1.0  0.91896  0.39848  0.69191  1.0000
  H   H2613     1.0  0.96910  0.37361  0.75284  1.0000
  H   H2614     1.0  0.97023  0.37394  0.80681  1.0000
  H   H2615     1.0  0.92635  0.36846  0.80052  1.0000
  H   H2616     1.0  0.93708  0.36160  0.75592  1.0000
  H   H2617     1.0  0.94698  0.38438  0.71595  1.0000
  H   H2618     1.0  0.94631  0.40408  0.73865  1.0000
  H   H2619     1.0  0.94596  0.40721  0.81053  1.0000
  H   H2620     1.0  0.92793  0.39617  0.81717  1.0000
  H   H2621     1.0  0.95920  0.38449  0.86211  1.0000
  H   H2622     1.0  0.93824  0.37847  0.87051  1.0000
  H   H2623     1.0  0.85332  0.41032  0.04914  1.0000
  H   H2624     1.0  0.97325  0.40413  0.80619  1.0000
  H   H2625     1.0  0.91747  0.40297  0.75645  1.0000
  H   H2626     1.0  0.91630  0.38179  0.74309  1.0000
  H   H2627     1.0  0.95918  0.34864  0.79412  1.0000
  H   H2628     1.0  0.95173  0.35689  0.84187  1.0000
  H   H2629     1.0  0.94415  0.32795  0.83462  1.0000
  H   H2630     1.0  0.92611  0.34124  0.83684  1.0000
  H   H2631     1.0  0.93333  0.33323  0.78826  1.0000
  C   C1486     1.0  0.84902  0.42734  0.97334  1.0000
  C   C1487     1.0  0.81171  0.25858  0.02783  1.0000
  C   C1488     1.0  0.84166  0.40817  0.03340  1.0000
  H   H2632     1.0  0.75557  0.33494  0.33588  1.0000
  H   H2633     1.0  0.87375  0.40013  0.91726  1.0000
  H   H2634     1.0  0.78464  0.46206  0.53621  1.0000
  H   H2635     1.0  0.90550  0.40056  0.68892  1.0000
  H   H2636     1.0  0.92512  0.41007  0.68307  1.0000
  H   H2637     1.0  0.92308  0.38866  0.67059  1.0000
  N   N83       1.0  0.80514  0.42266  0.46286  1.0000
  C   C1489     1.0  0.80041  0.43852  0.48397  1.0000
  C   C1490     1.0  0.81092  0.42663  0.41953  1.0000
  C   C1491     1.0  0.78976  0.41288  0.46006  1.0000
  C   C1492     1.0  0.81797  0.41242  0.48578  1.0000
  C   C1493     1.0  0.83075  0.42190  0.50998  1.0000
  H   H2638     1.0  0.75016  0.30520  0.95327  1.0000
  H   H2639     1.0  0.78949  0.27025  0.80263  1.0000
  C   C1494     1.0  0.82677  0.43643  0.41448  1.0000
  C   C1495     1.0  0.98992  0.47573  0.87062  1.0000
  C   C1496     1.0  0.84451  0.41031  0.52557  1.0000
  H   H2640     1.0  0.90546  0.41664  0.94041  1.0000
  H   H2641     1.0  0.79005  0.25754  0.94867  1.0000
  H   H2642     1.0  0.79227  0.44642  0.46406  1.0000
  H   H2643     1.0  0.81982  0.25608  0.61805  1.0000
  H   H2644     1.0  0.88910  0.48133  0.45149  1.0000
  H   H2645     1.0  0.76088  0.33730  0.38862  1.0000
  C   C1497     1.0  0.93814  0.44753  0.94135  1.0000
  H   H2646     1.0  0.76295  0.45674  0.45169  1.0000
  C   C1498     1.0  0.85392  0.47836  0.92878  1.0000
  H   H2647     1.0  0.83769  0.39558  0.04203  1.0000
  S   S335      1.0  0.78716  0.25167  0.08408  1.0000
  H   H2648     1.0  0.77472  0.38241  0.47380  1.0000
  H   H2649     1.0  0.89751  0.47247  0.98558  1.0000
  H   H2650     1.0  0.96400  0.45861  0.89576  1.0000
  C   C1499     1.0  0.74827  0.43588  0.43802  1.0000
  H   H2651     1.0  0.91222  0.48293  0.56799  1.0000
  H   H2652     1.0  0.88556  0.47693  0.53592  1.0000
  H   H2653     1.0  0.94091  0.48127  0.84319  1.0000
  H   H2654     1.0  0.93136  0.47292  0.93083  1.0000
  H   H2655     1.0  0.74917  0.32441  0.23294  1.0000
  C   C1500     1.0  0.78930  0.24875  0.92363  1.0000
  H   H2656     1.0  0.96230  0.46949  0.94233  1.0000
  S   S336      1.0  0.75018  0.25263  0.16646  1.0000
  H   H2657     1.0  0.78041  0.26531  0.87496  1.0000
  H   H2658     1.0  0.98683  0.47326  0.83846  1.0000
  H   H2659     1.0  0.75439  0.24627  0.48020  1.0000
  C   C1501     1.0  0.88754  0.48948  0.54708  1.0000
  H   H2660     1.0  0.77285  0.24637  0.50931  1.0000
  H   H2661     1.0  0.89606  0.47937  0.60538  1.0000
  H   H2662     1.0  0.91837  0.24973  0.86251  1.0000
  C   C1502     1.0  0.90036  0.48792  0.58056  1.0000
  C   C1503     1.0  0.97775  0.48861  0.88975  1.0000
  H   H2663     1.0  0.94088  0.48924  0.76744  1.0000
  C   C1504     1.0  0.95401  0.49224  0.76945  1.0000
  H   H2664     1.0  0.98119  0.48989  0.92239  1.0000
  S   S337      1.0  0.89278  0.24734  0.92761  1.0000
  H   H2665     1.0  0.76723  0.26978  0.96336  1.0000
  C   C1505     1.0  0.75971  0.27260  0.93597  1.0000
  C   C1506     1.0  0.74714  0.26185  0.87501  1.0000
  H   H2666     1.0  0.74732  0.27526  0.86679  1.0000
  C   C1507     1.0  0.99382  0.39317  0.77454  1.0000
  H   H2667     1.0  0.77623  0.24427  0.86957  1.0000
  H   H2668     1.0  0.74692  0.31191  0.40876  1.0000
  H   H2669     1.0  0.74537  0.28189  0.28883  1.0000
  C   C1508     1.0  0.75294  0.24364  0.93606  1.0000
  N   N84       1.0  0.84368  0.57036  0.16863  1.0000
  H   H2670     1.0  0.95910  0.52008  0.87490  1.0000
  H   H2671     1.0  0.82910  0.59192  0.18676  1.0000
  H   H2672     1.0  0.74531  0.67543  0.52250  1.0000
  H   H2673     1.0  0.85786  0.50203  0.51207  1.0000
  H   H2674     1.0  0.91410  0.50968  0.44358  1.0000
  Fe  Fe170     1.0  0.92982  0.55471  0.11391  1.0000
  S   S338      1.0  0.91788  0.53027  0.10643  1.0000
  S   S339      1.0  0.95730  0.56048  0.11163  1.0000
  Fe  Fe171     1.0  0.89754  0.57475  0.09747  1.0000
  S   S340      1.0  0.88356  0.55167  0.08859  1.0000
  S   S341      1.0  0.88440  0.60030  0.09996  1.0000
  Fe  Fe172     1.0  0.89658  0.54123  0.14446  1.0000
  S   S342      1.0  0.88034  0.52543  0.18824  1.0000
  Fe  Fe173     1.0  0.90537  0.54208  0.05168  1.0000
  S   S343      1.0  0.90442  0.53287  0.98565  1.0000
  S   S344      1.0  0.90948  0.56488  0.15548  1.0000
  S   S345      1.0  0.91834  0.56598  0.05693  1.0000
  Fe  Fe174     1.0  0.87074  0.69237  0.99890  1.0000
  S   S346      1.0  0.86913  0.70865  0.05342  1.0000
  S   S347      1.0  0.88723  0.66874  0.99674  1.0000
  Fe  Fe175     1.0  0.84920  0.71754  0.94774  1.0000
  H   H2675     1.0  0.90247  0.52368  0.90160  1.0000
  S   S348      1.0  0.83839  0.72135  0.88332  1.0000
  Fe  Fe176     1.0  0.87383  0.73007  0.00962  1.0000
  C   C1509     1.0  0.74415  0.57712  0.44020  1.0000
  Fe  Fe177     1.0  0.84250  0.71265  0.03866  1.0000
  S   S349      1.0  0.82331  0.70855  0.08909  1.0000
  S   S350      1.0  0.87668  0.71360  0.95530  1.0000
  S   S351      1.0  0.84373  0.69496  0.98653  1.0000
  C   C1510     1.0  0.95578  0.51604  0.90656  1.0000
  S   S352      1.0  0.82108  0.51557  0.46722  1.0000
  S   S353      1.0  0.84332  0.52363  0.36512  1.0000
  Fe  Fe178     1.0  0.79365  0.51509  0.45965  1.0000
  S   S354      1.0  0.77567  0.53327  0.49171  1.0000
  H   H2676     1.0  0.80335  0.72439  0.21014  1.0000
  C   C1511     1.0  0.76585  0.55583  0.43024  1.0000
  C   C1512     1.0  0.76376  0.55012  0.47080  1.0000
  H   H2677     1.0  0.87832  0.52109  0.42523  1.0000
  C   C1513     1.0  0.77122  0.63553  0.54811  1.0000
  H   H2678     1.0  0.77500  0.54991  0.41054  1.0000
  H   H2679     1.0  0.86769  0.54473  0.32934  1.0000
  H   H2680     1.0  0.90036  0.62677  0.21993  1.0000
  C   C1514     1.0  0.87080  0.52476  0.23841  1.0000
  C   C1515     1.0  0.87374  0.53629  0.26832  1.0000
  C   C1516     1.0  0.86527  0.53569  0.30668  1.0000
  C   C1517     1.0  0.85371  0.52354  0.31600  1.0000
  C   C1518     1.0  0.85094  0.51185  0.28635  1.0000
  C   C1519     1.0  0.85948  0.51242  0.24806  1.0000
  H   H2681     1.0  0.88262  0.54562  0.26195  1.0000
  H   H2682     1.0  0.95027  0.50805  0.82046  1.0000
  H   H2683     1.0  0.74726  0.69128  0.91160  1.0000
  C   C1520     1.0  0.90159  0.51248  0.92007  1.0000
  C   C1521     1.0  0.88482  0.61890  0.06934  1.0000
  C   C1522     1.0  0.87512  0.63263  0.08179  1.0000
  C   C1523     1.0  0.87543  0.64782  0.05962  1.0000
  C   C1524     1.0  0.88558  0.64958  0.02470  1.0000
  C   C1525     1.0  0.89526  0.63582  0.01220  1.0000
  C   C1526     1.0  0.89482  0.62058  0.03414  1.0000
  H   H2684     1.0  0.86732  0.63156  0.10890  1.0000
  H   H2685     1.0  0.86793  0.65823  0.06979  1.0000
  H   H2686     1.0  0.90312  0.63695  0.98520  1.0000
  H   H2687     1.0  0.90224  0.61015  0.02378  1.0000
  C   C1527     1.0  0.90193  0.51334  0.96316  1.0000
  C   C1528     1.0  0.84081  0.59738  0.06740  1.0000
  H   H2688     1.0  0.75721  0.60431  0.49118  1.0000
  H   H2689     1.0  0.82456  0.52423  0.13881  1.0000
  H   H2690     1.0  0.82106  0.54425  0.19515  1.0000
  H   H2691     1.0  0.78213  0.63885  0.52900  1.0000
  C   C1529     1.0  0.89996  0.49733  0.90057  1.0000
  H   H2692     1.0  0.89760  0.52462  0.36639  1.0000
  C   C1530     1.0  0.97542  0.55609  0.14009  1.0000
  H   H2693     1.0  0.78564  0.63249  0.60462  1.0000
  H   H2694     1.0  0.94775  0.49534  0.94188  1.0000
  H   H2695     1.0  0.77549  0.63546  0.46438  1.0000
  H   H2696     1.0  0.74513  0.62472  0.57743  1.0000
  H   H2697     1.0  0.81748  0.57479  0.17480  1.0000
  C   C1531     1.0  0.95247  0.67636  0.93982  1.0000
  H   H2698     1.0  0.86007  0.57621  0.11761  1.0000
  H   H2699     1.0  0.85713  0.50332  0.22548  1.0000
  C   C1532     1.0  0.80642  0.73406  0.89498  1.0000
  C   C1533     1.0  0.79683  0.72676  0.81541  1.0000
  C   C1534     1.0  0.81293  0.72280  0.82860  1.0000
  C   C1535     1.0  0.81779  0.72620  0.86866  1.0000
  H   H2700     1.0  0.94556  0.65521  0.03875  1.0000
  C   C1536     1.0  0.86641  0.52635  0.52430  1.0000
  C   C1537     1.0  0.90977  0.72845  0.88440  1.0000
  H   H2701     1.0  0.82161  0.71680  0.80785  1.0000
  H   H2702     1.0  0.78351  0.73246  0.01626  1.0000
  H   H2703     1.0  0.95496  0.53687  0.04399  1.0000
  H   H2704     1.0  0.84164  0.60930  0.08305  1.0000
  Fe  Fe179     1.0  0.82305  0.50923  0.39999  1.0000
  H   H2705     1.0  0.98441  0.54215  0.05457  1.0000
  C   C1538     1.0  0.80676  0.72248  0.09904  1.0000
  C   C1539     1.0  0.79466  0.71794  0.12804  1.0000
  C   C1540     1.0  0.78199  0.72916  0.13946  1.0000
  C   C1541     1.0  0.82890  0.57824  0.19009  1.0000
  H   H2706     1.0  0.99079  0.56839  0.09508  1.0000
  H   H2707     1.0  0.79530  0.70578  0.14240  1.0000
  H   H2708     1.0  0.77289  0.72561  0.16235  1.0000
  H   H2709     1.0  0.78426  0.72814  0.29203  1.0000
  H   H2710     1.0  0.84174  0.53944  0.21099  1.0000
  H   H2711     1.0  0.91047  0.71155  0.09562  1.0000
  C   C1542     1.0  0.78678  0.72262  0.26162  1.0000
  H   H2712     1.0  0.98045  0.50060  0.87457  1.0000
  C   C1543     1.0  0.75610  0.56924  0.41511  1.0000
  H   H2713     1.0  0.92351  0.69326  0.08870  1.0000
  H   H2714     1.0  0.84220  0.50237  0.29286  1.0000
  H   H2715     1.0  0.93397  0.71816  0.89386  1.0000
  C   C1544     1.0  0.86496  0.51164  0.49526  1.0000
  C   C1545     1.0  0.75244  0.68391  0.50231  1.0000
  H   H2716     1.0  0.75618  0.71073  0.05050  1.0000
  C   C1546     1.0  0.95953  0.73584  0.01290  1.0000
  C   C1547     1.0  0.78546  0.73455  0.84184  1.0000
  H   H2717     1.0  0.96116  0.59726  0.98449  1.0000
  H   H2718     1.0  0.77562  0.72414  0.24275  1.0000
  H   H2719     1.0  0.90222  0.50007  0.59424  1.0000
  H   H2720     1.0  0.90180  0.69256  0.08057  1.0000
  C   C1548     1.0  0.95246  0.60736  0.14572  1.0000
  H   H2721     1.0  0.96808  0.72497  0.01290  1.0000
  C   C1549     1.0  0.96473  0.52941  0.02817  1.0000
  H   H2722     1.0  0.97114  0.50020  0.81266  1.0000
  H   H2723     1.0  0.84534  0.51943  0.15498  1.0000
  C   C1550     1.0  0.90769  0.52340  0.38878  1.0000
  C   C1551     1.0  0.84856  0.58118  0.13226  1.0000
  C   C1552     1.0  0.76742  0.61832  0.42128  1.0000
  N   N85       1.0  0.75903  0.72706  0.99752  1.0000
  H   H2724     1.0  0.96685  0.51666  0.92567  1.0000
  H   H2725     1.0  0.85291  0.59422  0.05275  1.0000
  H   H2726     1.0  0.95394  0.73688  0.04412  1.0000
  C   C1553     1.0  0.97525  0.54759  0.17791  1.0000
  H   H2727     1.0  0.75835  0.61009  0.60246  1.0000
  H   H2728     1.0  0.75513  0.62425  0.41627  1.0000
  H   H2729     1.0  0.94708  0.66401  0.93860  1.0000
  C   C1554     1.0  0.83290  0.52380  0.16532  1.0000
  H   H2730     1.0  0.95776  0.58224  0.02522  1.0000
  H   H2731     1.0  0.96427  0.67508  0.95618  1.0000
  C   C1555     1.0  0.88786  0.51680  0.44747  1.0000
  H   H2732     1.0  0.85137  0.59372  0.14245  1.0000
  C   C1556     1.0  0.95804  0.49702  0.81305  1.0000
  H   H2733     1.0  0.95293  0.61562  0.17230  1.0000
  C   C1557     1.0  0.77739  0.72437  0.99478  1.0000
  C   C1558     1.0  0.78402  0.70666  0.00495  1.0000
  C   C1559     1.0  0.80206  0.70462  0.99212  1.0000
  H   H2734     1.0  0.78218  0.72815  0.96395  1.0000
  H   H2735     1.0  0.81091  0.74220  0.66498  1.0000
  H   H2736     1.0  0.77732  0.69718  0.98899  1.0000
  H   H2737     1.0  0.78305  0.70410  0.03855  1.0000
  H   H2738     1.0  0.76962  0.71075  0.92264  1.0000
  H   H2739     1.0  0.80693  0.69240  0.00311  1.0000
  H   H2740     1.0  0.80352  0.70536  0.95815  1.0000
  H   H2741     1.0  0.80940  0.71430  0.00563  1.0000
  H   H2742     1.0  0.89408  0.62671  0.16722  1.0000
  H   H2743     1.0  0.93943  0.66538  0.08582  1.0000
  H   H2744     1.0  0.89714  0.51281  0.52445  1.0000
  H   H2745     1.0  0.95483  0.68088  0.90785  1.0000
  H   H2746     1.0  0.87393  0.49731  0.39380  1.0000
  H   H2747     1.0  0.90984  0.53565  0.40162  1.0000
  C   C1560     1.0  0.84952  0.53367  0.53617  1.0000
  H   H2748     1.0  0.87350  0.53637  0.50959  1.0000
  H   H2749     1.0  0.76437  0.68588  0.51686  1.0000
  S   S355      1.0  0.79548  0.51032  0.39192  1.0000
  H   H2750     1.0  0.76671  0.60483  0.41762  1.0000
  H   H2751     1.0  0.90185  0.49897  0.40846  1.0000
  H   H2752     1.0  0.79092  0.66047  0.57615  1.0000
  C   C1561     1.0  0.92550  0.72716  0.90909  1.0000
  H   H2753     1.0  0.83496  0.57236  0.07996  1.0000
  H   H2754     1.0  0.86845  0.56115  0.18000  1.0000
  C   C1562     1.0  0.77964  0.65814  0.59481  1.0000
  H   H2755     1.0  0.91902  0.51914  0.37216  1.0000
  C   C1563     1.0  0.80584  0.73817  0.08045  1.0000
  H   H2756     1.0  0.84169  0.52409  0.55041  1.0000
  H   H2757     1.0  0.85087  0.54353  0.55868  1.0000
  H   H2758     1.0  0.84337  0.53915  0.50872  1.0000
  C   C1564     1.0  0.85841  0.56835  0.19584  1.0000
  C   C1565     1.0  0.82673  0.57452  0.23692  1.0000
  C   C1566     1.0  0.86591  0.58463  0.20921  1.0000
  C   C1567     1.0  0.80997  0.58081  0.25282  1.0000
  C   C1568     1.0  0.87722  0.58181  0.24563  1.0000
  H   H2759     1.0  0.83617  0.58073  0.25433  1.0000
  H   H2760     1.0  0.82788  0.56124  0.24482  1.0000
  H   H2761     1.0  0.87340  0.58987  0.18354  1.0000
  H   H2762     1.0  0.85627  0.59396  0.21755  1.0000
  H   H2763     1.0  0.80841  0.59429  0.24694  1.0000
  H   H2764     1.0  0.80000  0.57438  0.23779  1.0000
  H   H2765     1.0  0.80892  0.57834  0.28644  1.0000
  H   H2766     1.0  0.88768  0.57337  0.23716  1.0000
  H   H2767     1.0  0.88219  0.59371  0.25456  1.0000
  H   H2768     1.0  0.87040  0.57649  0.27242  1.0000
  N   N86       1.0  0.76690  0.61784  0.54163  1.0000
  H   H2769     1.0  0.91265  0.73267  0.85247  1.0000
  C   C1569     1.0  0.83366  0.54075  0.18430  1.0000
  H   H2770     1.0  0.95210  0.73655  0.94972  1.0000
  C   C1570     1.0  0.78203  0.60703  0.54912  1.0000
  C   C1571     1.0  0.78101  0.58858  0.53876  1.0000
  H   H2771     1.0  0.93663  0.49872  0.89630  1.0000
  H   H2772     1.0  0.97488  0.61635  0.11496  1.0000
  C   C1572     1.0  0.79790  0.57986  0.53996  1.0000
  H   H2773     1.0  0.79316  0.72359  0.78501  1.0000
  H   H2774     1.0  0.96457  0.60974  0.05142  1.0000
  H   H2775     1.0  0.82824  0.51481  0.18865  1.0000
  H   H2776     1.0  0.85079  0.54832  0.13607  1.0000
  C   C1573     1.0  0.83579  0.58372  0.09785  1.0000
  H   H2777     1.0  0.82993  0.55482  0.12961  1.0000
  C   C1574     1.0  0.94932  0.49827  0.90842  1.0000
  C   C1575     1.0  0.77514  0.64007  0.59277  1.0000
  H   H2778     1.0  0.79281  0.61209  0.53224  1.0000
  H   H2779     1.0  0.78539  0.60720  0.58197  1.0000
  H   H2780     1.0  0.77620  0.58675  0.50778  1.0000
  H   H2781     1.0  0.77322  0.58221  0.56200  1.0000
  C   C1576     1.0  0.80139  0.73060  0.23986  1.0000
  H   H2782     1.0  0.78555  0.61534  0.46742  1.0000
  H   H2783     1.0  0.92758  0.72743  0.04046  1.0000
  H   H2784     1.0  0.76946  0.66633  0.58343  1.0000
  H   H2785     1.0  0.89893  0.60750  0.19417  1.0000
  H   H2786     1.0  0.80334  0.58081  0.57072  1.0000
  H   H2787     1.0  0.79667  0.56660  0.53344  1.0000
  H   H2788     1.0  0.80627  0.58524  0.51626  1.0000
  H   H2789     1.0  0.91343  0.73143  0.96764  1.0000
  C   C1577     1.0  0.97033  0.60490  0.12974  1.0000
  H   H2790     1.0  0.93211  0.52922  0.90380  1.0000
  H   H2791     1.0  0.90072  0.49917  0.01970  1.0000
  H   H2792     1.0  0.76056  0.73105  0.06271  1.0000
  C   C1578     1.0  0.76109  0.61686  0.49810  1.0000
  C   C1579     1.0  0.75667  0.71535  0.92483  1.0000
  H   H2793     1.0  0.75788  0.57354  0.38369  1.0000
  H   H2794     1.0  0.90403  0.71626  0.88333  1.0000
  H   H2795     1.0  0.78194  0.66124  0.62713  1.0000
  C   C1580     1.0  0.98993  0.54497  0.19971  1.0000
  H   H2796     1.0  0.94052  0.59172  0.99844  1.0000
  H   H2797     1.0  0.96380  0.54323  0.19069  1.0000
  H   H2798     1.0  0.93918  0.52483  0.95530  1.0000
  H   H2799     1.0  0.89128  0.52813  0.46311  1.0000
  H   H2800     1.0  0.92496  0.66367  0.04516  1.0000
  C   C1581     1.0  0.77357  0.62201  0.46387  1.0000
  H   H2801     1.0  0.82347  0.58710  0.11070  1.0000
  C   C1582     1.0  0.98183  0.60005  0.16480  1.0000
  N   N87       1.0  0.93647  0.71896  0.98131  1.0000
  C   C1583     1.0  0.92181  0.72180  0.95424  1.0000
  C   C1584     1.0  0.93077  0.71558  0.02513  1.0000
  C   C1585     1.0  0.75176  0.55800  0.49587  1.0000
  C   C1586     1.0  0.94784  0.70531  0.96598  1.0000
  C   C1587     1.0  0.94051  0.68812  0.96215  1.0000
  H   H2802     1.0  0.87254  0.52239  0.55312  1.0000
  S   S356      1.0  0.76480  0.73955  0.82780  1.0000
  C   C1588     1.0  0.91518  0.70527  0.03183  1.0000
  C   C1589     1.0  0.91267  0.70039  0.07703  1.0000
  H   H2803     1.0  0.75484  0.67807  0.47223  1.0000
  H   H2804     1.0  0.94831  0.54083  0.92411  1.0000
  H   H2805     1.0  0.91429  0.71072  0.95343  1.0000
  H   H2806     1.0  0.94092  0.70963  0.04306  1.0000
  H   H2807     1.0  0.85248  0.73605  0.15598  1.0000
  H   H2808     1.0  0.76094  0.64401  0.53791  1.0000
  C   C1590     1.0  0.90049  0.49876  0.98658  1.0000
  H   H2809     1.0  0.95345  0.70889  0.93578  1.0000
  H   H2810     1.0  0.95840  0.70337  0.98667  1.0000
  H   H2811     1.0  0.92894  0.68858  0.94494  1.0000
  H   H2812     1.0  0.93833  0.68263  0.99315  1.0000
  H   H2813     1.0  0.75134  0.70427  0.86711  1.0000
  H   H2814     1.0  0.83946  0.74142  0.11319  1.0000
  C   C1591     1.0  0.89322  0.50109  0.51135  1.0000
  H   H2815     1.0  0.81004  0.73707  0.92554  1.0000
  H   H2816     1.0  0.90418  0.71269  0.02232  1.0000
  H   H2817     1.0  0.91544  0.69394  0.01390  1.0000
  H   H2818     1.0  0.81237  0.72789  0.25838  1.0000
  H   H2819     1.0  0.75577  0.72785  0.91055  1.0000
  H   H2820     1.0  0.94866  0.59513  0.15842  1.0000
  H   H2821     1.0  0.97730  0.52465  0.08432  1.0000
  C   C1592     1.0  0.98047  0.52927  0.05289  1.0000
  C   C1593     1.0  0.94304  0.52843  0.92351  1.0000
  H   H2822     1.0  0.97114  0.59477  0.10756  1.0000
  N   N88       1.0  0.94009  0.61408  0.11526  1.0000
  C   C1594     1.0  0.92334  0.61252  0.13543  1.0000
  C   C1595     1.0  0.94005  0.60342  0.07784  1.0000
  H   H2823     1.0  0.78942  0.70922  0.26643  1.0000
  C   C1596     1.0  0.94332  0.63183  0.10454  1.0000
  C   C1597     1.0  0.92964  0.64098  0.07962  1.0000
  C   C1598     1.0  0.92023  0.62169  0.17612  1.0000
  N   N89       1.0  0.88092  0.50448  0.47807  1.0000
  C   C1599     1.0  0.95196  0.60767  0.04156  1.0000
  C   C1600     1.0  0.95287  0.59386  0.01058  1.0000
  C   C1601     1.0  0.93535  0.65733  0.06130  1.0000
  C   C1602     1.0  0.90229  0.62058  0.19017  1.0000
  S   S357      1.0  0.84669  0.73544  0.99962  1.0000
  H   H2824     1.0  0.92083  0.59928  0.14180  1.0000
  H   H2825     1.0  0.91362  0.61673  0.11395  1.0000
  H   H2826     1.0  0.94223  0.59031  0.08731  1.0000
  H   H2827     1.0  0.92766  0.60360  0.06395  1.0000
  H   H2828     1.0  0.85555  0.56087  0.22380  1.0000
  C   C1603     1.0  0.83980  0.55371  0.15250  1.0000
  H   H2829     1.0  0.94516  0.63891  0.13271  1.0000
  H   H2830     1.0  0.95512  0.63292  0.08730  1.0000
  H   H2831     1.0  0.91875  0.64370  0.09970  1.0000
  H   H2832     1.0  0.92564  0.63339  0.05421  1.0000
  H   H2833     1.0  0.92786  0.61606  0.20089  1.0000
  H   H2834     1.0  0.92298  0.63492  0.17262  1.0000
  H   H2835     1.0  0.83158  0.59890  0.04294  1.0000
  H   H2836     1.0  0.85693  0.51597  0.46975  1.0000
  H   H2837     1.0  0.94757  0.61906  0.02513  1.0000
  H   H2838     1.0  0.77606  0.62312  0.39742  1.0000
  H   H2839     1.0  0.76440  0.63831  0.61374  1.0000
  H   H2840     1.0  0.98962  0.53858  0.22924  1.0000
  C   C1604     1.0  0.79046  0.73832  0.88145  1.0000
  H   H2841     1.0  0.74995  0.55361  0.52720  1.0000
  S   S358      1.0  0.75508  0.74007  0.70039  1.0000
  C   C1605     1.0  0.75040  0.71561  0.97006  1.0000
  C   C1606     1.0  0.75343  0.72379  0.04122  1.0000
  H   H2842     1.0  0.85540  0.49592  0.42410  1.0000
  H   H2843     1.0  0.75093  0.70843  0.47705  1.0000
  H   H2844     1.0  0.82796  0.73817  0.20133  1.0000
  H   H2845     1.0  0.74796  0.68544  0.36554  1.0000
  C   C1607     1.0  0.94601  0.73463  0.98028  1.0000
  H   H2846     1.0  0.96681  0.53497  0.99712  1.0000
  H   H2847     1.0  0.98987  0.50527  0.03466  1.0000
  H   H2848     1.0  0.81512  0.74177  0.05809  1.0000
  H   H2849     1.0  0.74982  0.62482  0.49419  1.0000
  C   C1608     1.0  0.99049  0.56169  0.12417  1.0000
  H   H2850     1.0  0.89968  0.49696  0.86744  1.0000
  H   H2851     1.0  0.75091  0.70276  0.98275  1.0000
  H   H2852     1.0  0.97778  0.58862  0.18088  1.0000
  H   H2853     1.0  0.90086  0.73745  0.89827  1.0000
  H   H2854     1.0  0.83776  0.49754  0.58640  1.0000
  H   H2855     1.0  0.96030  0.51672  0.02535  1.0000
  H   H2856     1.0  0.74788  0.58858  0.55268  1.0000
  H   H2857     1.0  0.98221  0.61007  0.18724  1.0000
  C   C1609     1.0  0.90344  0.51096  0.42301  1.0000
  H   H2858     1.0  0.79440  0.73415  0.69690  1.0000
  H   H2859     1.0  0.93098  0.73949  0.90751  1.0000
  S   S359      1.0  0.74673  0.71430  0.31280  1.0000
  H   H2860     1.0  0.85262  0.49869  0.65209  1.0000
  H   H2861     1.0  0.95649  0.50264  0.74770  1.0000
  C   C1610     1.0  0.74650  0.70415  0.89926  1.0000
  H   H2862     1.0  0.90463  0.49523  0.49831  1.0000
  C   C1611     1.0  0.75324  0.61366  0.57197  1.0000
  H   H2863     1.0  0.87597  0.49411  0.56158  1.0000
  S   S360      1.0  0.89294  0.74749  0.03414  1.0000
  C   C1612     1.0  0.77175  0.76923  0.41179  1.0000
  H   H2864     1.0  0.78266  0.94876  0.37330  1.0000
  H   H2865     1.0  0.75949  0.97694  0.44484  1.0000
  H   H2866     1.0  0.81419  0.81408  0.46964  1.0000
  H   H2867     1.0  0.90594  0.94474  0.27263  1.0000
  Fe  Fe180     1.0  0.74916  0.75443  0.19160  1.0000
  S   S361      1.0  0.97333  0.83598  0.98598  1.0000
  H   H2868     1.0  0.95799  0.81645  0.87438  1.0000
  Fe  Fe181     1.0  0.96990  0.80861  0.99505  1.0000
  S   S362      1.0  0.94822  0.79623  0.96520  1.0000
  S   S363      1.0  0.97748  0.80845  0.06104  1.0000
  Fe  Fe182     1.0  0.95270  0.89807  0.31885  1.0000
  S   S364      1.0  0.93303  0.91612  0.29755  1.0000
  S   S365      1.0  0.96352  0.87620  0.28148  1.0000
  Fe  Fe183     1.0  0.95070  0.91182  0.40686  1.0000
  S   S366      1.0  0.93040  0.93033  0.39024  1.0000
  S   S367      1.0  0.95786  0.91183  0.47453  1.0000
  Fe  Fe184     1.0  0.91923  0.90972  0.35636  1.0000
  S   S368      1.0  0.89215  0.90384  0.34617  1.0000
  Fe  Fe185     1.0  0.94563  0.93525  0.33339  1.0000
  S   S369      1.0  0.95190  0.96050  0.30501  1.0000
  S   S370      1.0  0.93842  0.89095  0.37669  1.0000
  S   S371      1.0  0.96648  0.91758  0.35118  1.0000
  Fe  Fe186     1.0  0.76858  0.88909  0.42783  1.0000
  S   S372      1.0  0.78166  0.88798  0.48796  1.0000
  C   C1613     1.0  0.90786  0.76138  0.01410  1.0000
  Fe  Fe187     1.0  0.78352  0.85536  0.40341  1.0000
  S   S373      1.0  0.79757  0.85204  0.46185  1.0000
  S   S374      1.0  0.78690  0.83520  0.35675  1.0000
  Fe  Fe188     1.0  0.77436  0.86132  0.49304  1.0000
  S   S375      1.0  0.75983  0.85016  0.54749  1.0000
  Fe  Fe189     1.0  0.80400  0.87871  0.45128  1.0000
  S   S376      1.0  0.82994  0.88770  0.46337  1.0000
  S   S377      1.0  0.75995  0.86311  0.43492  1.0000
  S   S378      1.0  0.79127  0.88137  0.39095  1.0000
  C   C1614     1.0  0.87533  0.89851  0.37958  1.0000
  C   C1615     1.0  0.86019  0.89499  0.36228  1.0000
  C   C1616     1.0  0.84630  0.89137  0.38724  1.0000
  C   C1617     1.0  0.84727  0.89140  0.43008  1.0000
  C   C1618     1.0  0.86242  0.89493  0.44735  1.0000
  C   C1619     1.0  0.87636  0.89834  0.42240  1.0000
  H   H2869     1.0  0.85912  0.89518  0.32929  1.0000
  H   H2870     1.0  0.83478  0.88876  0.37336  1.0000
  H   H2871     1.0  0.86337  0.89497  0.48039  1.0000
  H   H2872     1.0  0.88787  0.90093  0.43639  1.0000
  C   C1620     1.0  0.94656  0.83030  0.79346  1.0000
  H   H2873     1.0  0.80849  0.82073  0.41837  1.0000
  C   C1621     1.0  0.94593  0.98129  0.31602  1.0000
  H   H2874     1.0  0.87916  0.95775  0.29301  1.0000
  H   H2875     1.0  0.77713  0.97814  0.38396  1.0000
  H   H2876     1.0  0.92828  0.97561  0.36376  1.0000
  C   C1622     1.0  0.75310  0.97613  0.41524  1.0000
  C   C1623     1.0  0.77263  0.95259  0.39495  1.0000
  C   C1624     1.0  0.80484  0.77405  0.19154  1.0000
  H   H2877     1.0  0.81377  0.77302  0.27138  1.0000
  C   C1625     1.0  0.75541  0.77532  0.99542  1.0000
  C   C1626     1.0  0.97734  0.90792  0.49713  1.0000
  C   C1627     1.0  0.97881  0.90972  0.53973  1.0000
  H   H2878     1.0  0.82128  0.75869  0.72316  1.0000
  H   H2879     1.0  0.96806  0.91317  0.55798  1.0000
  C   C1628     1.0  0.86471  0.94352  0.36196  1.0000
  C   C1629     1.0  0.97090  0.86198  0.14495  1.0000
  C   C1630     1.0  0.96669  0.87835  0.15525  1.0000
  C   C1631     1.0  0.96413  0.88291  0.19656  1.0000
  C   C1632     1.0  0.96580  0.87115  0.22845  1.0000
  C   C1633     1.0  0.96973  0.85471  0.21814  1.0000
  C   C1634     1.0  0.97213  0.85013  0.17679  1.0000
  S   S379      1.0  0.76586  0.78056  0.64409  1.0000
  H   H2880     1.0  0.96133  0.89561  0.20376  1.0000
  H   H2881     1.0  0.97095  0.84544  0.24239  1.0000
  H   H2882     1.0  0.97485  0.83744  0.16955  1.0000
  C   C1635     1.0  0.93270  0.78301  0.98527  1.0000
  C   C1636     1.0  0.92137  0.77667  0.95821  1.0000
  C   C1637     1.0  0.90903  0.76596  0.97245  1.0000
  C   C1638     1.0  0.93145  0.77850  0.02693  1.0000
  H   H2883     1.0  0.92213  0.78008  0.92596  1.0000
  H   H2884     1.0  0.78471  0.81132  0.48495  1.0000
  C   C1639     1.0  0.76401  0.80011  0.61822  1.0000
  C   C1640     1.0  0.77726  0.80562  0.59366  1.0000
  C   C1641     1.0  0.77627  0.82086  0.57182  1.0000
  C   C1642     1.0  0.76199  0.83086  0.57445  1.0000
  H   H2885     1.0  0.97122  0.86936  0.80624  1.0000
  C   C1643     1.0  0.96979  0.75104  0.00486  1.0000
  S   S380      1.0  0.76648  0.75983  0.13782  1.0000
  H   H2886     1.0  0.78660  0.82496  0.55335  1.0000
  H   H2887     1.0  0.79928  0.76984  0.16289  1.0000
  H   H2888     1.0  0.95558  0.88809  0.92965  1.0000
  C   C1644     1.0  0.77009  0.82416  0.34053  1.0000
  C   C1645     1.0  0.77294  0.81060  0.31523  1.0000
  H   H2889     1.0  0.75169  0.83897  0.37192  1.0000
  C   C1646     1.0  0.86041  0.97935  0.36415  1.0000
  C   C1647     1.0  0.74886  0.82546  0.59950  1.0000
  H   H2890     1.0  0.77541  0.80612  0.20383  1.0000
  H   H2891     1.0  0.78533  0.80735  0.30528  1.0000
  H   H2892     1.0  0.98102  0.85167  0.89040  1.0000
  H   H2893     1.0  0.86950  0.93151  0.35028  1.0000
  H   H2894     1.0  0.83066  0.77528  0.23729  1.0000
  H   H2895     1.0  0.83241  0.76847  0.14384  1.0000
  H   H2896     1.0  0.79309  0.75464  0.26153  1.0000
  H   H2897     1.0  0.75277  0.77637  0.53745  1.0000
  H   H2898     1.0  0.88425  0.97783  0.39316  1.0000
  C   C1648     1.0  0.78205  0.80473  0.45639  1.0000
  N   N90       1.0  0.87841  0.95279  0.38026  1.0000
  H   H2899     1.0  0.76212  0.79081  0.28335  1.0000
  C   C1649     1.0  0.96194  0.87047  0.88246  1.0000
  C   C1650     1.0  0.83485  0.93527  0.36762  1.0000
  H   H2900     1.0  0.79659  0.79038  0.24180  1.0000
  C   C1651     1.0  0.81191  0.80990  0.43815  1.0000
  C   C1652     1.0  0.97732  0.82892  0.83753  1.0000
  C   C1653     1.0  0.95976  0.87499  0.92753  1.0000
  H   H2901     1.0  0.94235  0.84195  0.85098  1.0000
  N   N91       1.0  0.81208  0.75946  0.21552  1.0000
  H   H2902     1.0  0.85737  0.75306  0.12184  1.0000
  H   H2903     1.0  0.75544  0.90494  0.54266  1.0000
  H   H2904     1.0  0.76424  0.79478  0.39939  1.0000
  H   H2905     1.0  0.80065  0.77066  0.67830  1.0000
  C   C1654     1.0  0.79805  0.74938  0.23239  1.0000
  C   C1655     1.0  0.75984  0.80121  0.30286  1.0000
  H   H2906     1.0  0.85230  0.76873  0.28759  1.0000
  C   C1656     1.0  0.88402  0.94335  0.41837  1.0000
  H   H2907     1.0  0.77611  0.75903  0.56441  1.0000
  H   H2908     1.0  0.89207  0.96325  0.45736  1.0000
  H   H2909     1.0  0.93753  0.74549  0.98440  1.0000
  H   H2910     1.0  0.77299  0.75761  0.01927  1.0000
  C   C1657     1.0  0.75404  0.82842  0.35293  1.0000
  H   H2911     1.0  0.78196  0.74475  0.90169  1.0000
  H   H2912     1.0  0.83579  0.77040  0.32553  1.0000
  H   H2913     1.0  0.92741  0.84414  0.76040  1.0000
  C   C1658     1.0  0.96837  0.85240  0.87831  1.0000
  C   C1659     1.0  0.97156  0.81674  0.87195  1.0000
  H   H2914     1.0  0.78391  0.77181  0.48393  1.0000
  H   H2915     1.0  0.97912  0.75182  0.02900  1.0000
  H   H2916     1.0  0.74968  0.78303  0.42655  1.0000
  H   H2917     1.0  0.82497  0.93152  0.38959  1.0000
  C   C1660     1.0  0.90229  0.94026  0.48035  1.0000
  H   H2918     1.0  0.83783  0.75293  0.77546  1.0000
  H   H2919     1.0  0.76117  0.74744  0.95387  1.0000
  C   C1661     1.0  0.78139  0.74502  0.12196  1.0000
  N   N92       1.0  0.80757  0.77417  0.76597  1.0000
  C   C1662     1.0  0.79039  0.77550  0.78404  1.0000
  C   C1663     1.0  0.80874  0.75994  0.73704  1.0000
  C   C1664     1.0  0.81905  0.77006  0.80090  1.0000
  C   C1665     1.0  0.81279  0.78993  0.74449  1.0000
  C   C1666     1.0  0.79915  0.80069  0.72313  1.0000
  C   C1667     1.0  0.78810  0.78699  0.82118  1.0000
  C   C1668     1.0  0.83707  0.76541  0.78865  1.0000
  C   C1669     1.0  0.89030  0.96165  0.30833  1.0000
  C   C1670     1.0  0.76060  0.76913  0.51561  1.0000
  C   C1671     1.0  0.80644  0.81395  0.69483  1.0000
  C   C1672     1.0  0.76999  0.79072  0.83105  1.0000
  H   H2920     1.0  0.78414  0.76264  0.71027  1.0000
  H   H2921     1.0  0.78635  0.76316  0.79448  1.0000
  H   H2922     1.0  0.78134  0.77951  0.76067  1.0000
  H   H2923     1.0  0.97669  0.95811  0.64475  1.0000
  C   C1673     1.0  0.98723  0.79591  0.17468  1.0000
  H   H2924     1.0  0.97377  0.79449  0.83595  1.0000
  H   H2925     1.0  0.81955  0.78063  0.82179  1.0000
  H   H2926     1.0  0.81851  0.79818  0.76644  1.0000
  H   H2927     1.0  0.82263  0.78717  0.72122  1.0000
  H   H2928     1.0  0.79127  0.80701  0.74647  1.0000
  H   H2929     1.0  0.79101  0.79343  0.70452  1.0000
  H   H2930     1.0  0.79346  0.78090  0.84897  1.0000
  H   H2931     1.0  0.79427  0.79881  0.81534  1.0000
  H   H2932     1.0  0.84204  0.77440  0.76581  1.0000
  H   H2933     1.0  0.96091  0.84486  0.90021  1.0000
  C   C1674     1.0  0.75407  0.80246  0.48355  1.0000
  H   H2934     1.0  0.98412  0.95827  0.42381  1.0000
  H   H2935     1.0  0.86766  0.97017  0.42323  1.0000
  H   H2936     1.0  0.76695  0.75878  0.43050  1.0000
  H   H2937     1.0  0.75543  0.88557  0.57132  1.0000
  H   H2938     1.0  0.81382  0.80822  0.66962  1.0000
  H   H2939     1.0  0.79636  0.82159  0.68084  1.0000
  H   H2940     1.0  0.81427  0.82209  0.71228  1.0000
  S   S381      1.0  0.74569  0.77195  0.75664  1.0000
  H   H2941     1.0  0.76243  0.77751  0.96630  1.0000
  H   H2942     1.0  0.83027  0.94601  0.34894  1.0000
  H   H2943     1.0  0.77826  0.81446  0.43355  1.0000
  H   H2944     1.0  0.97909  0.96780  0.49443  1.0000
  H   H2945     1.0  0.90297  0.96499  0.24953  1.0000
  C   C1675     1.0  0.76644  0.97006  0.38391  1.0000
  H   H2946     1.0  0.77916  0.79381  0.15925  1.0000
  H   H2947     1.0  0.91171  0.94627  0.49837  1.0000
  H   H2948     1.0  0.89697  0.93975  0.34424  1.0000
  C   C1676     1.0  0.91914  0.76778  0.04114  1.0000
  H   H2949     1.0  0.88958  0.97517  0.31255  1.0000
  H   H2950     1.0  0.84345  0.75601  0.84975  1.0000
  H   H2951     1.0  0.76177  0.96996  0.35227  1.0000
  H   H2952     1.0  0.92007  0.83211  0.80424  1.0000
  H   H2953     1.0  0.77740  0.95187  0.42663  1.0000
  H   H2954     1.0  0.81456  0.78262  0.18147  1.0000
  H   H2955     1.0  0.99063  0.83074  0.84227  1.0000
  H   H2956     1.0  0.85979  0.95008  0.33445  1.0000
  H   H2957     1.0  0.77584  0.77449  0.34667  1.0000
  H   H2958     1.0  0.92643  0.82209  0.75756  1.0000
  C   C1677     1.0  0.89283  0.95270  0.35030  1.0000
  H   H2959     1.0  0.96384  0.95292  0.44144  1.0000
  H   H2960     1.0  0.91638  0.96205  0.29231  1.0000
  H   H2961     1.0  0.90353  0.95856  0.36340  1.0000
  H   H2962     1.0  0.78093  0.77737  0.22436  1.0000
  H   H2963     1.0  0.97305  0.94752  0.51108  1.0000
  N   N93       1.0  0.76842  0.79286  0.46473  1.0000
  C   C1678     1.0  0.98147  0.95444  0.49020  1.0000
  C   C1679     1.0  0.89708  0.95158  0.44439  1.0000
  H   H2964     1.0  0.76409  0.79751  0.80498  1.0000
  H   H2965     1.0  0.95047  0.86721  0.94318  1.0000
  H   H2966     1.0  0.76349  0.77911  0.83760  1.0000
  H   H2967     1.0  0.88881  0.93084  0.41010  1.0000
  H   H2968     1.0  0.78840  0.79806  0.59165  1.0000
  H   H2969     1.0  0.84536  0.76328  0.18688  1.0000
  C   C1680     1.0  0.77409  0.78010  0.49635  1.0000
  H   H2970     1.0  0.81435  0.75960  0.82011  1.0000
  S   S382      1.0  0.75461  0.75636  0.25873  1.0000
  C   C1681     1.0  0.78491  0.79877  0.18672  1.0000
  H   H2971     1.0  0.85320  0.92890  0.41154  1.0000
  H   H2972     1.0  0.77986  0.78624  0.52231  1.0000
  H   H2973     1.0  0.79671  0.79365  0.40665  1.0000
  H   H2974     1.0  0.94001  0.78324  0.04820  1.0000
  H   H2975     1.0  0.98305  0.79481  0.14277  1.0000
  H   H2976     1.0  0.75722  0.80683  0.51436  1.0000
  Fe  Fe190     1.0  0.75069  0.74486  0.76797  1.0000
  N   N94       1.0  0.90827  0.86935  0.23705  1.0000
  C   C1682     1.0  0.89081  0.87043  0.22240  1.0000
  C   C1683     1.0  0.91836  0.85661  0.21339  1.0000
  C   C1684     1.0  0.90759  0.86378  0.28165  1.0000
  C   C1685     1.0  0.91628  0.88581  0.23432  1.0000
  C   C1686     1.0  0.91724  0.89417  0.19116  1.0000
  C   C1687     1.0  0.87895  0.88271  0.24498  1.0000
  C   C1688     1.0  0.92434  0.86039  0.30232  1.0000
  C   C1689     1.0  0.91396  0.85418  0.16785  1.0000
  C   C1690     1.0  0.92690  0.84331  0.14604  1.0000
  C   C1691     1.0  0.92322  0.91173  0.19318  1.0000
  C   C1692     1.0  0.86209  0.88357  0.22536  1.0000
  C   C1693     1.0  0.92206  0.85273  0.34529  1.0000
  H   H2977     1.0  0.88537  0.85804  0.22516  1.0000
  H   H2978     1.0  0.89029  0.87384  0.18934  1.0000
  H   H2979     1.0  0.93167  0.85929  0.21436  1.0000
  H   H2980     1.0  0.91730  0.84416  0.22822  1.0000
  H   H2981     1.0  0.90036  0.85242  0.28530  1.0000
  H   H2982     1.0  0.90119  0.87323  0.30082  1.0000
  H   H2983     1.0  0.91018  0.89453  0.25603  1.0000
  H   H2984     1.0  0.92919  0.88458  0.24467  1.0000
  H   H2985     1.0  0.90516  0.89495  0.17633  1.0000
  H   H2986     1.0  0.92619  0.88723  0.17148  1.0000
  H   H2987     1.0  0.87699  0.87883  0.27753  1.0000
  H   H2988     1.0  0.88370  0.89534  0.24388  1.0000
  H   H2989     1.0  0.93053  0.87215  0.30575  1.0000
  H   H2990     1.0  0.93259  0.85199  0.28448  1.0000
  H   H2991     1.0  0.90205  0.84799  0.16638  1.0000
  H   H2992     1.0  0.91287  0.86597  0.15027  1.0000
  H   H2993     1.0  0.92856  0.83124  0.16245  1.0000
  H   H2994     1.0  0.92305  0.84109  0.11425  1.0000
  H   H2995     1.0  0.93881  0.84951  0.14419  1.0000
  H   H2996     1.0  0.91464  0.91943  0.21214  1.0000
  H   H2997     1.0  0.93565  0.91176  0.20634  1.0000
  H   H2998     1.0  0.92391  0.91732  0.16177  1.0000
  H   H2999     1.0  0.85382  0.89224  0.24250  1.0000
  H   H3000     1.0  0.86306  0.88807  0.19296  1.0000
  H   H3001     1.0  0.85655  0.87126  0.22649  1.0000
  H   H3002     1.0  0.91416  0.86092  0.36474  1.0000
  H   H3003     1.0  0.91643  0.84052  0.34370  1.0000
  H   H3004     1.0  0.93420  0.85105  0.35992  1.0000
  C   C1694     1.0  0.76302  0.78557  0.42515  1.0000
  H   H3005     1.0  0.90043  0.76130  0.95122  1.0000
  H   H3006     1.0  0.98577  0.87664  0.74012  1.0000
  C   C1695     1.0  0.84808  0.76487  0.82604  1.0000
  H   H3007     1.0  0.94768  0.81805  0.80917  1.0000
  H   H3008     1.0  0.87360  0.94135  0.44020  1.0000
  H   H3009     1.0  0.90830  0.95448  0.42644  1.0000
  H   H3010     1.0  0.89163  0.93763  0.50095  1.0000
  C   C1696     1.0  0.97716  0.95051  0.44614  1.0000
  H   H3011     1.0  0.97436  0.79105  0.89076  1.0000
  H   H3012     1.0  0.79278  0.76171  0.07839  1.0000
  N   N95       1.0  0.96812  0.84537  0.83583  1.0000
  H   H3013     1.0  0.98004  0.93736  0.43981  1.0000
  H   H3014     1.0  0.82347  0.80426  0.42552  1.0000
  C   C1697     1.0  0.93406  0.98532  0.34610  1.0000
  H   H3015     1.0  0.98034  0.80623  0.18959  1.0000
  H   H3016     1.0  0.97160  0.87332  0.94366  1.0000
  Fe  Fe191     1.0  0.98255  0.83538  0.05117  1.0000
  H   H3017     1.0  0.84667  0.95024  0.41105  1.0000
  H   H3018     1.0  0.98451  0.78430  0.19179  1.0000
  H   H3019     1.0  0.91839  0.76439  0.07342  1.0000
  H   H3020     1.0  0.83779  0.92480  0.34720  1.0000
  H   H3021     1.0  0.90771  0.92844  0.46905  1.0000
  H   H3022     1.0  0.78764  0.75008  0.21074  1.0000
  S   S383      1.0  0.97424  0.85713  0.09200  1.0000
  H   H3023     1.0  0.97695  0.82261  0.80789  1.0000
  C   C1698     1.0  0.76812  0.75457  0.54012  1.0000
  H   H3024     1.0  0.79490  0.80702  0.17678  1.0000
  H   H3025     1.0  0.96561  0.88767  0.13104  1.0000
  C   C1699     1.0  0.97838  0.79928  0.86497  1.0000
  C   C1700     1.0  0.76877  0.76589  0.36664  1.0000
  H   H3026     1.0  0.76258  0.94384  0.39258  1.0000
  C   C1701     1.0  0.79154  0.78474  0.21442  1.0000
  H   H3027     1.0  0.77289  0.75310  0.35947  1.0000
  C   C1702     1.0  0.74979  0.81017  0.62104  1.0000
  C   C1703     1.0  0.84999  0.93969  0.39129  1.0000
  H   H3028     1.0  0.78518  0.76922  0.41571  1.0000
  C   C1704     1.0  0.87323  0.97012  0.39171  1.0000
  H   H3029     1.0  0.94996  0.87250  0.86733  1.0000
  H   H3030     1.0  0.84813  0.97411  0.36935  1.0000
  C   C1705     1.0  0.92903  0.83235  0.77806  1.0000
  S   S384      1.0  0.75118  0.90925  0.40086  1.0000
  C   C1706     1.0  0.74753  0.81757  0.45828  1.0000
  H   H3031     1.0  0.75650  0.82753  0.45764  1.0000
  H   H3032     1.0  0.97612  0.82058  0.90196  1.0000
  C   C1707     1.0  0.79840  0.79732  0.43882  1.0000
  C   C1708     1.0  0.75965  0.75821  0.01345  1.0000
  H   H3033     1.0  0.80298  0.78657  0.45724  1.0000
  H   H3034     1.0  0.75297  0.75705  0.04334  1.0000
  H   H3035     1.0  0.97627  0.75038  0.97459  1.0000
  C   C1709     1.0  0.90479  0.95809  0.27901  1.0000
  H   H3036     1.0  0.97088  0.87908  0.86845  1.0000
  H   H3037     1.0  0.76880  0.79848  0.85855  1.0000
  H   H3038     1.0  0.95495  0.83008  0.76640  1.0000
  C   C1710     1.0  0.82192  0.76608  0.24969  1.0000
  C   C1711     1.0  0.99134  0.90337  0.47398  1.0000
  C   C1712     1.0  0.97723  0.85688  0.80698  1.0000
  H   H3039     1.0  0.75867  0.78480  0.01753  1.0000
  C   C1713     1.0  0.95045  0.84410  0.82350  1.0000
  H   H3040     1.0  0.86344  0.97846  0.33109  1.0000
  H   H3041     1.0  0.94590  0.85609  0.80994  1.0000
  H   H3042     1.0  0.75089  0.90459  0.59694  1.0000
  H   H3043     1.0  0.80666  0.74821  0.75443  1.0000
  H   H3044     1.0  0.99042  0.90191  0.44123  1.0000
  H   H3045     1.0  0.75265  0.76439  0.49171  1.0000
  H   H3046     1.0  0.84860  0.77724  0.83952  1.0000
  C   C1714     1.0  0.79710  0.76069  0.70026  1.0000
  H   H3047     1.0  0.96194  0.76245  0.00544  1.0000
  H   H3048     1.0  0.74501  0.81408  0.42653  1.0000
  C   C1715     1.0  0.79318  0.74942  0.09198  1.0000
  H   H3049     1.0  0.77543  0.74628  0.51965  1.0000
  H   H3050     1.0  0.86072  0.76076  0.81679  1.0000
  Fe  Fe192     1.0  0.74843  0.76708  0.68923  1.0000
  H   H3051     1.0  0.96256  0.99124  0.27024  1.0000
  H   H3052     1.0  0.75556  0.76748  0.35940  1.0000
  C   C1716     1.0  0.83154  0.75330  0.27660  1.0000
  C   C1717     1.0  0.83701  0.75828  0.16426  1.0000
  H   H3053     1.0  0.96063  0.98807  0.45326  1.0000
  C   C1718     1.0  0.84291  0.76180  0.30544  1.0000
  H   H3054     1.0  0.96660  0.85320  0.74703  1.0000
  H   H3055     1.0  0.98311  0.95879  0.56804  1.0000
  C   C1719     1.0  0.75493  0.74459  0.98377  1.0000
  C   C1720     1.0  0.74933  0.89795  0.56803  1.0000
  C   C1721     1.0  0.79821  0.74465  0.67677  1.0000
  H   H3056     1.0  0.74728  0.92310  0.48320  1.0000
  H   H3057     1.0  0.99001  0.94001  0.65165  1.0000
  H   H3058     1.0  0.97944  0.99083  0.42347  1.0000
  H   H3059     1.0  0.75828  0.74741  0.55541  1.0000
  H   H3060     1.0  0.78986  0.74564  0.65028  1.0000
  H   H3061     1.0  0.96069  0.98702  0.39820  1.0000
  H   H3062     1.0  0.74557  0.99251  0.33763  1.0000
  C   C1722     1.0  0.82259  0.74939  0.18608  1.0000
  C   C1723     1.0  0.98955  0.95368  0.64964  1.0000
  C   C1724     1.0  0.97879  0.85204  0.76146  1.0000
  C   C1725     1.0  0.99403  0.90702  0.55902  1.0000
  H   H3063     1.0  0.98983  0.85849  0.81828  1.0000
  H   H3064     1.0  0.84934  0.75241  0.32520  1.0000
  C   C1726     1.0  0.84716  0.74645  0.13729  1.0000
  H   H3065     1.0  0.99406  0.93983  0.57675  1.0000
  N   N96       1.0  0.74448  0.99232  0.40434  1.0000
  H   H3066     1.0  0.99201  0.79910  0.86385  1.0000
  H   H3067     1.0  0.82285  0.74624  0.29623  1.0000
  H   H3068     1.0  0.81477  0.74471  0.16176  1.0000
  H   H3069     1.0  0.99365  0.95837  0.67931  1.0000
  C   C1727     1.0  0.99011  0.86360  0.73736  1.0000
  H   H3070     1.0  0.99038  0.86049  0.70438  1.0000
  H   H3071     1.0  0.98395  0.83936  0.75798  1.0000
  H   H3072     1.0  0.83926  0.74473  0.25796  1.0000
  C   C1728     1.0  0.96597  0.99332  0.42438  1.0000
