data_image0
_chemical_formula_structural       FeS2FeS2FeSFeS4H3C3HFeC6H4C6H3C2HCH2CH2CHC2H2C2H2CH2CHCH4C2H4S2H2CHCHCH2CHC2H9FeHCHCH5C3H2CNHNHCNHC3H2CH3CH10SH3C2NCHCH2CH6CH4CHCHCH8CHCHCHCHCHFeS2FeS2FeSFeS3FeS2HCHC2H3C6H4C6H4CH7C2HC2FeHNC2H2CH2CHC3H4CH2NHCSCHCH3CH2C2HC2H16C2NC5H3CH5CH7CH3CNCHCHCH2SH6CHC3H2CH6CH3SHCH2CHCH2C2HCHFeC3H5CNC3HCH2CH7SCHCH5CH3C2HSH2C3H3C3H2SCH5CHNC4SH3CH3FeH3CFeSH3FeSHFeS2Fe2S2FeS3HFeSH2S2H2C8H9NH2NC4HC5H2C2H4CH3C2FeCHCH4C2H6CHCH2C3H13C2HCHCSH2CH8FeH2CH4CHCH2CHCHC2HCH2SH2C2HSCHCFeC2H2CHCH2CH3CH3C2HC2H2NHCHCHC4H2CH2CHCH2SCH2CHCH2CH8CHCSH6SH3CH7C3HFeCH4CFeSH4CSCSCH4C3HCHSC4H4C2H4CH4C2SH2CH3SH2CH2CSH3CH2C2H4FeHC3HCH3C2HNHCH2CH4FeH3SH2Fe2S2FeHFeS3FeS2FeHC2FeHS2H6C7H7CH2C3H2FeCH4CHCHSCH2CSH7NC5HC3HC2HNH3CH7CHSH9CHCH2CHC2H2C2H2CH4SHSHCFeHCFeS2HCHC2H3CH2C4H2CHCH2CH5CH2C2HCH2CH4C2NH4CH2SHCH4CH6C2HCFeS2FeS2FeSFeCS2FeCSCH2CH2C7H4C2HCHCH5C2H2C2H5C2SHC4H5NSCHC2H2NHCH3CH3CHCH2C2H6CH5SH3CHCH2CSH6CH6C2H3C3H2CHCSHCH5C4H2CNH3CHCH4CH3CHCH4CH2FeS2FeS2FeSFeS3H3CHC3H2CH3C2FeC3H4C6H2CHNCH4C2H2C2H6C3NHCSHCH2CSC3HCH4CHCH5CH2CHCH2CH3CH3C2HCHCH3NHC2H3CHCNH11CH5CH6SHC
_chemical_formula_sum              "Fe48 S96 H768 C432 N24"
_cell_length_a       32.991
_cell_length_b       31.964
_cell_length_c       53.2894
_cell_angle_alpha    88.8243
_cell_angle_beta     88.8322
_cell_angle_gamma    89.9844

_space_group_name_H-M_alt    "P 1"
_space_group_IT_number       1

loop_
  _space_group_symop_operation_xyz
  'x, y, z'

loop_
  _atom_site_type_symbol
  _atom_site_label
  _atom_site_symmetry_multiplicity
  _atom_site_fract_x
  _atom_site_fract_y
  _atom_site_fract_z
  _atom_site_occupancy
  Fe  Fe1       1.0  0.16967  0.13194  0.07759  1.0000
  S   S1        1.0  0.18240  0.08120  0.10680  1.0000
  S   S2        1.0  0.18417  0.11288  0.03685  1.0000
  Fe  Fe2       1.0  0.14007  0.19381  0.11819  1.0000
  S   S3        1.0  0.15149  0.14750  0.14941  1.0000
  S   S4        1.0  0.11144  0.25932  0.12219  1.0000
  Fe  Fe3       1.0  0.21044  0.13186  0.12944  1.0000
  S   S5        1.0  0.27019  0.13047  0.15130  1.0000
  Fe  Fe4       1.0  0.12276  0.09999  0.12454  1.0000
  S   S6        1.0  0.07692  0.05617  0.14423  1.0000
  S   S7        1.0  0.20111  0.18195  0.09940  1.0000
  S   S8        1.0  0.10811  0.14697  0.09410  1.0000
  S   S9        1.0  0.05231  0.37817  0.21184  1.0000
  H   H1        1.0  0.32177  0.06808  0.09833  1.0000
  H   H2        1.0  0.43347  0.27633  0.30217  1.0000
  H   H3        1.0  0.14975  0.19385  0.02026  1.0000
  C   C1        1.0  0.27842  0.04986  0.07040  1.0000
  C   C2        1.0  0.11271  0.39441  0.28649  1.0000
  C   C3        1.0  0.18297  0.35734  0.16915  1.0000
  H   H4        1.0  0.16757  0.37592  0.26756  1.0000
  Fe  Fe5       1.0  0.02388  0.44294  0.21976  1.0000
  C   C4        1.0  0.30826  0.09323  0.16020  1.0000
  C   C5        1.0  0.34010  0.10619  0.17552  1.0000
  C   C6        1.0  0.37224  0.07886  0.18188  1.0000
  C   C7        1.0  0.37337  0.03807  0.17280  1.0000
  C   C8        1.0  0.34137  0.02500  0.15762  1.0000
  C   C9        1.0  0.30891  0.05214  0.15158  1.0000
  H   H5        1.0  0.34011  0.13780  0.18238  1.0000
  H   H6        1.0  0.39649  0.08959  0.19351  1.0000
  H   H7        1.0  0.43853  0.09183  0.05071  1.0000
  H   H8        1.0  0.28460  0.04139  0.14008  1.0000
  C   C10       1.0  0.06843  0.34583  0.18648  1.0000
  C   C11       1.0  0.06243  0.35682  0.16128  1.0000
  C   C12       1.0  0.07576  0.32995  0.14201  1.0000
  C   C13       1.0  0.09535  0.29175  0.14753  1.0000
  C   C14       1.0  0.10132  0.28072  0.17275  1.0000
  C   C15       1.0  0.08801  0.30760  0.19202  1.0000
  H   H9        1.0  0.04747  0.38598  0.15659  1.0000
  H   H10       1.0  0.07092  0.33893  0.12261  1.0000
  H   H11       1.0  0.11657  0.25171  0.17740  1.0000
  C   C16       1.0  0.28643  0.13766  0.05424  1.0000
  C   C17       1.0  0.04165  0.02473  0.12846  1.0000
  H   H12       1.0  0.38871  0.07218  0.08474  1.0000
  C   C18       1.0  0.17433  0.13601  0.00672  1.0000
  H   H13       1.0  0.44193  0.21065  0.26313  1.0000
  H   H14       1.0  0.42991  0.19967  0.29599  1.0000
  C   C19       1.0  0.01058  0.20371  0.14854  1.0000
  H   H15       1.0  0.12167  0.36480  0.25115  1.0000
  H   H16       1.0  0.30077  0.99602  0.09185  1.0000
  C   C20       1.0  0.19737  0.39068  0.18710  1.0000
  H   H17       1.0  0.35799  0.11262  0.11842  1.0000
  C   C21       1.0  0.17063  0.47253  0.21240  1.0000
  C   C22       1.0  0.29198  0.43431  0.23819  1.0000
  H   H18       1.0  0.05194  0.16719  0.22013  1.0000
  H   H19       1.0  0.12753  0.41734  0.29874  1.0000
  C   C23       1.0  0.41463  0.35418  0.30441  1.0000
  C   C24       1.0  0.09829  0.12514  0.20768  1.0000
  H   H20       1.0  0.03820  0.15167  0.12752  1.0000
  H   H21       1.0  0.15390  0.36689  0.16057  1.0000
  C   C25       1.0  0.01088  0.19424  0.10138  1.0000
  H   H22       1.0  0.39534  0.16724  0.13943  1.0000
  H   H23       1.0  0.43651  0.03616  0.05656  1.0000
  C   C26       1.0  0.29809  0.17808  0.03911  1.0000
  H   H24       1.0  0.29638  0.04239  0.05326  1.0000
  C   C27       1.0  0.37130  0.17655  0.12612  1.0000
  H   H25       1.0  0.36310  0.03872  0.06396  1.0000
  H   H26       1.0  0.17875  0.32678  0.17917  1.0000
  H   H27       1.0  0.25192  0.01551  0.10245  1.0000
  H   H28       1.0  0.01457  0.00028  0.16290  1.0000
  C   C28       1.0  0.01092  0.17177  0.12699  1.0000
  C   C29       1.0  0.15764  0.17604  0.00381  1.0000
  H   H29       1.0  0.09299  0.29872  0.21141  1.0000
  H   H30       1.0  0.34300  0.18235  0.13716  1.0000
  H   H31       1.0  0.22693  0.37993  0.19442  1.0000
  H   H32       1.0  0.13590  0.39992  0.20105  1.0000
  S   S10       1.0  0.46151  0.02307  0.24654  1.0000
  S   S11       1.0  0.01266  0.44962  0.26143  1.0000
  H   H33       1.0  0.10192  0.11093  0.22669  1.0000
  H   H34       1.0  0.07515  0.18355  0.17391  1.0000
  C   C30       1.0  0.01400  0.99983  0.14262  1.0000
  H   H35       1.0  0.03760  0.22432  0.14585  1.0000
  C   C31       1.0  0.26646  0.18881  0.01943  1.0000
  H   H36       1.0  0.41218  0.05833  0.02935  1.0000
  C   C32       1.0  0.04052  0.02406  0.10227  1.0000
  H   H37       1.0  0.03397  0.11755  0.20940  1.0000
  H   H38       1.0  0.32786  0.17461  0.02932  1.0000
  C   C33       1.0  0.36498  0.14156  0.10745  1.0000
  H   H39       1.0  0.38073  0.20594  0.11618  1.0000
  C   C34       1.0  0.05570  0.14345  0.20538  1.0000
  C   C35       1.0  0.04907  0.16243  0.17868  1.0000
  H   H40       1.0  0.11146  0.43688  0.23864  1.0000
  H   H41       1.0  0.03818  0.23105  0.19872  1.0000
  H   H42       1.0  0.46302  0.37297  0.27971  1.0000
  H   H43       1.0  0.45004  0.28881  0.27122  1.0000
  H   H44       1.0  0.34170  0.99356  0.15050  1.0000
  H   H45       1.0  0.08182  0.40573  0.28212  1.0000
  H   H46       1.0  0.03787  0.21489  0.09908  1.0000
  H   H47       1.0  0.22226  0.39270  0.24194  1.0000
  H   H48       1.0  0.12154  0.15002  0.20485  1.0000
  Fe  Fe6       1.0  0.46791  0.00341  0.20642  1.0000
  H   H49       1.0  0.29148  0.44308  0.25827  1.0000
  C   C36       1.0  0.29946  0.08376  0.08605  1.0000
  H   H50       1.0  0.06160  0.04306  0.09117  1.0000
  C   C37       1.0  0.14163  0.43022  0.24690  1.0000
  H   H51       1.0  0.24830  0.06139  0.06434  1.0000
  H   H52       1.0  0.27546  0.21777  0.00889  1.0000
  H   H53       1.0  0.01192  0.17082  0.08626  1.0000
  H   H54       1.0  0.10343  0.10038  0.19361  1.0000
  H   H55       1.0  0.27711  0.11441  0.04018  1.0000
  C   C38       1.0  0.38017  0.06851  0.06495  1.0000
  C   C39       1.0  0.16664  0.39621  0.20912  1.0000
  C   C40       1.0  0.46119  0.28152  0.29044  1.0000
  H   H56       1.0  0.20582  0.35320  0.15381  1.0000
  H   H57       1.0  0.47197  0.17386  0.28076  1.0000
  C   C41       1.0  0.45487  0.20378  0.28185  1.0000
  N   N1        1.0  0.00958  0.18554  0.17495  1.0000
  H   H58       1.0  0.25843  0.14458  0.06539  1.0000
  N   N2        1.0  0.17461  0.43157  0.22675  1.0000
  H   H59       1.0  0.39419  0.13756  0.09709  1.0000
  C   C42       1.0  0.21525  0.42656  0.23913  1.0000
  N   N3        1.0  0.31866  0.11936  0.07103  1.0000
  H   H60       1.0  0.05191  0.13575  0.16574  1.0000
  C   C43       1.0  0.33104  0.15296  0.08888  1.0000
  C   C44       1.0  0.46087  0.35787  0.29876  1.0000
  C   C45       1.0  0.35424  0.10563  0.05483  1.0000
  H   H61       1.0  0.16622  0.36555  0.21932  1.0000
  H   H62       1.0  0.29656  0.39999  0.23681  1.0000
  C   C46       1.0  0.41919  0.06355  0.04935  1.0000
  H   H63       1.0  0.27600  0.09603  0.09934  1.0000
  H   H64       1.0  0.14189  0.47298  0.20173  1.0000
  H   H65       1.0  0.20170  0.41998  0.17592  1.0000
  C   C47       1.0  0.13756  0.38856  0.26230  1.0000
  H   H66       1.0  0.34279  0.18095  0.07844  1.0000
  H   H67       1.0  0.30400  0.16368  0.09996  1.0000
  H   H68       1.0  0.31800  0.45043  0.22861  1.0000
  H   H69       1.0  0.21422  0.43962  0.25839  1.0000
  H   H70       1.0  0.40082  0.41730  0.29050  1.0000
  H   H71       1.0  0.37487  0.13266  0.05085  1.0000
  H   H72       1.0  0.29942  0.20523  0.05173  1.0000
  H   H73       1.0  0.14657  0.45527  0.26070  1.0000
  H   H74       1.0  0.34389  0.09590  0.03604  1.0000
  H   H75       1.0  0.39958  0.33896  0.28850  1.0000
  S   S12       1.0  0.41433  0.00265  0.17899  1.0000
  H   H76       1.0  0.00211  0.27878  0.17239  1.0000
  H   H77       1.0  0.23647  0.19428  0.02867  1.0000
  H   H78       1.0  0.10989  0.36407  0.29689  1.0000
  C   C48       1.0  0.27146  0.00946  0.08570  1.0000
  C   C49       1.0  0.48348  0.23877  0.28935  1.0000
  N   N4        1.0  0.48567  0.31796  0.29956  1.0000
  C   C50       1.0  0.25253  0.44751  0.22571  1.0000
  H   H79       1.0  0.25501  0.43960  0.20564  1.0000
  C   C51       1.0  0.00720  0.22002  0.19408  1.0000
  H   H80       1.0  0.26362  0.16311  0.00585  1.0000
  H   H81       1.0  0.00693  0.29516  0.21851  1.0000
  C   C52       1.0  0.01203  0.99876  0.09038  1.0000
  H   H82       1.0  0.19480  0.47611  0.19778  1.0000
  H   H83       1.0  0.47357  0.38123  0.31171  1.0000
  H   H84       1.0  0.99250  0.03307  0.99714  1.0000
  H   H85       1.0  0.99394  0.20779  0.21217  1.0000
  H   H86       1.0  0.25053  0.48208  0.22673  1.0000
  H   H87       1.0  0.01140  0.99851  0.07010  1.0000
  C   C53       1.0  0.39532  0.39733  0.30754  1.0000
  H   H88       1.0  0.36208  0.39396  0.31062  1.0000
  H   H89       1.0  0.40792  0.41320  0.32402  1.0000
  H   H90       1.0  0.40774  0.33538  0.32160  1.0000
  H   H91       1.0  0.45624  0.41619  0.51960  1.0000
  C   C54       1.0  0.49142  0.28515  0.37064  1.0000
  H   H92       1.0  0.45785  0.37469  0.48118  1.0000
  C   C55       1.0  0.48782  0.46923  0.55447  1.0000
  H   H93       1.0  0.45381  0.43807  0.36048  1.0000
  C   C56       1.0  0.47417  0.45801  0.34948  1.0000
  H   H94       1.0  0.45140  0.43994  0.63729  1.0000
  H   H95       1.0  0.45229  0.32722  0.35107  1.0000
  H   H96       1.0  0.47965  0.42577  0.47566  1.0000
  H   H97       1.0  0.48985  0.47808  0.57445  1.0000
  H   H98       1.0  0.46492  0.33309  0.59882  1.0000
  H   H99       1.0  0.45011  0.27324  0.34133  1.0000
  H   H100      1.0  0.45898  0.45162  0.55352  1.0000
  H   H101      1.0  0.46832  0.27762  0.38550  1.0000
  C   C57       1.0  0.48647  0.38617  0.57622  1.0000
  H   H102      1.0  0.48756  0.36988  0.52278  1.0000
  C   C58       1.0  0.47421  0.46218  0.63076  1.0000
  H   H103      1.0  0.47109  0.40849  0.58895  1.0000
  C   C59       1.0  0.48525  0.40145  0.51385  1.0000
  H   H104      1.0  0.46504  0.37866  0.56132  1.0000
  C   C60       1.0  0.47045  0.29906  0.34654  1.0000
  H   H105      1.0  0.26708  0.48471  0.37700  1.0000
  C   C61       1.0  0.48382  0.39522  0.48555  1.0000
  H   H106      1.0  0.24075  0.48914  0.40683  1.0000
  Fe  Fe7       1.0  0.11929  0.09592  0.85837  1.0000
  S   S13       1.0  0.09153  0.15595  0.87172  1.0000
  S   S14       1.0  0.09355  0.03103  0.86850  1.0000
  Fe  Fe8       1.0  0.19772  0.13990  0.83912  1.0000
  S   S15       1.0  0.17556  0.20292  0.85253  1.0000
  S   S16       1.0  0.25501  0.13785  0.81350  1.0000
  Fe  Fe9       1.0  0.15308  0.16828  0.88780  1.0000
  S   S17       1.0  0.15345  0.19479  0.92765  1.0000
  Fe  Fe10      1.0  0.11575  0.18645  0.83580  1.0000
  S   S18       1.0  0.07936  0.22633  0.80746  1.0000
  S   S19       1.0  0.18014  0.10726  0.87574  1.0000
  S   S20       1.0  0.13848  0.12454  0.82112  1.0000
  Fe  Fe11      1.0  0.01417  0.45993  0.75314  1.0000
  S   S21       1.0  0.01448  0.44648  0.71169  1.0000
  S   S22       1.0  0.03551  0.42023  0.78713  1.0000
  H   H107      1.0  0.18933  0.12352  0.75164  1.0000
  C   C62       1.0  0.38308  0.18247  0.75925  1.0000
  H   H108      1.0  0.11243  0.00754  0.93009  1.0000
  C   C63       1.0  0.16201  0.17109  0.95779  1.0000
  C   C64       1.0  0.17876  0.13109  0.96069  1.0000
  H   H109      1.0  0.14626  0.02624  0.95364  1.0000
  H   H110      1.0  0.18726  0.11361  0.94424  1.0000
  H   H111      1.0  0.14223  0.10364  0.76467  1.0000
  C   C65       1.0  0.06774  0.28057  0.80236  1.0000
  C   C66       1.0  0.08108  0.31206  0.81813  1.0000
  C   C67       1.0  0.07084  0.35441  0.81318  1.0000
  C   C68       1.0  0.04753  0.36612  0.79229  1.0000
  C   C69       1.0  0.03427  0.33469  0.77651  1.0000
  C   C70       1.0  0.04424  0.29233  0.78156  1.0000
  H   H112      1.0  0.09903  0.30373  0.83425  1.0000
  H   H113      1.0  0.08113  0.37829  0.82566  1.0000
  H   H114      1.0  0.00459  0.18281  0.96395  1.0000
  H   H115      1.0  0.03345  0.26838  0.76929  1.0000
  C   C71       1.0  0.29151  0.09896  0.80505  1.0000
  C   C72       1.0  0.30151  0.06544  0.82106  1.0000
  C   C73       1.0  0.33237  0.03701  0.81405  1.0000
  C   C74       1.0  0.35398  0.04174  0.79108  1.0000
  C   C75       1.0  0.34337  0.07471  0.77483  1.0000
  C   C76       1.0  0.31246  0.10310  0.78182  1.0000
  H   H116      1.0  0.28636  0.06212  0.83916  1.0000
  H   H117      1.0  0.34325  0.22910  0.74226  1.0000
  H   H118      1.0  0.35880  0.07814  0.75684  1.0000
  H   H119      1.0  0.30461  0.12850  0.76913  1.0000
  C   C77       1.0  0.02866  0.02329  0.83638  1.0000
  H   H120      1.0  0.36975  0.15681  0.74858  1.0000
  H   H121      1.0  0.03926  0.05184  0.82716  1.0000
  H   H122      1.0  0.05529  0.47033  0.89151  1.0000
  H   H123      1.0  0.48027  0.24567  0.72206  1.0000
  H   H124      1.0  0.41549  0.21744  0.72977  1.0000
  H   H125      1.0  0.04018  0.30988  0.71674  1.0000
  H   H126      1.0  0.04909  0.04842  0.92155  1.0000
  C   C78       1.0  0.35151  0.21731  0.76123  1.0000
  C   C79       1.0  0.06231  0.07781  0.92843  1.0000
  H   H127      1.0  0.25506  0.01243  0.78990  1.0000
  C   C80       1.0  0.04932  0.00691  0.85699  1.0000
  C   C81       1.0  0.46633  0.13871  0.78594  1.0000
  Fe  Fe12      1.0  0.44742  0.99644  0.75602  1.0000
  H   H128      1.0  0.02964  0.35061  0.69391  1.0000
  N   N5        1.0  0.02999  0.10895  0.93596  1.0000
  C   C82       1.0  0.18855  0.27229  0.78558  1.0000
  C   C83       1.0  0.05421  0.33215  0.70282  1.0000
  H   H129      1.0  0.34022  0.01163  0.82681  1.0000
  H   H130      1.0  0.06788  0.23443  0.93357  1.0000
  C   C84       1.0  0.12548  0.03597  0.93845  1.0000
  H   H131      1.0  0.07234  0.15853  0.92586  1.0000
  H   H132      1.0  0.20213  0.08480  0.79064  1.0000
  C   C85       1.0  0.15190  0.19350  0.97955  1.0000
  H   H133      1.0  0.36327  0.24357  0.77232  1.0000
  C   C86       1.0  0.04267  0.45241  0.87583  1.0000
  C   C87       1.0  0.13671  0.40482  0.74809  1.0000
  C   C88       1.0  0.15095  0.47683  0.76497  1.0000
  H   H134      1.0  0.45301  0.17812  0.70039  1.0000
  H   H135      1.0  0.43517  0.22233  0.76015  1.0000
  H   H136      1.0  0.38550  0.15037  0.70882  1.0000
  H   H137      1.0  0.09549  0.38412  0.70135  1.0000
  C   C89       1.0  0.42329  0.19892  0.74694  1.0000
  H   H138      1.0  0.16222  0.27313  0.79890  1.0000
  H   H139      1.0  0.32367  0.20501  0.77090  1.0000
  N   N6        1.0  0.19263  0.99553  0.79853  1.0000
  H   H140      1.0  0.16624  0.07826  0.73815  1.0000
  C   C90       1.0  0.45113  0.15159  0.71418  1.0000
  S   S23       1.0  0.45291  0.01073  0.71444  1.0000
  C   C91       1.0  0.17131  0.02664  0.78164  1.0000
  H   H141      1.0  0.02744  0.09385  0.97572  1.0000
  C   C92       1.0  0.41149  0.12840  0.70811  1.0000
  H   H142      1.0  0.41800  0.13707  0.66744  1.0000
  H   H143      1.0  0.38489  0.09476  0.67749  1.0000
  H   H144      1.0  0.12394  0.42294  0.73211  1.0000
  C   C93       1.0  0.17765  0.29257  0.76035  1.0000
  H   H145      1.0  0.42489  0.11368  0.75889  1.0000
  H   H146      1.0  0.14341  0.05337  0.92376  1.0000
  C   C94       1.0  0.45479  0.12945  0.75849  1.0000
  C   C95       1.0  0.16858  0.43351  0.76009  1.0000
  H   H147      1.0  0.20450  0.28984  0.74763  1.0000
  C   C96       1.0  0.19569  0.06647  0.77390  1.0000
  C   C97       1.0  0.17175  0.09453  0.75598  1.0000
  H   H148      1.0  0.14142  0.34028  0.77852  1.0000
  H   H149      1.0  0.12340  0.47421  0.77725  1.0000
  H   H150      1.0  0.13976  0.22481  0.97764  1.0000
  H   H151      1.0  0.40570  0.10150  0.72111  1.0000
  H   H152      1.0  0.47682  0.13041  0.70945  1.0000
  H   H153      1.0  0.00481  0.02723  0.95138  1.0000
  H   H154      1.0  0.22492  0.05908  0.76437  1.0000
  H   H155      1.0  0.16719  0.02565  0.83144  1.0000
  H   H156      1.0  0.02810  0.25445  0.95366  1.0000
  H   H157      1.0  0.10671  0.09070  0.95789  1.0000
  H   H158      1.0  0.38825  0.17033  0.77858  1.0000
  H   H159      1.0  0.14291  0.03783  0.79093  1.0000
  H   H160      1.0  0.07045  0.31438  0.68801  1.0000
  H   H161      1.0  0.19254  0.35479  0.77133  1.0000
  H   H162      1.0  0.45459  0.16953  0.79196  1.0000
  H   H163      1.0  0.19813  0.08294  0.98690  1.0000
  C   C98       1.0  0.16555  0.33924  0.76355  1.0000
  C   C99       1.0  0.00696  0.09489  0.95934  1.0000
  N   N7        1.0  0.15141  0.36218  0.74020  1.0000
  C   C100      1.0  0.09194  0.06379  0.94920  1.0000
  C   C101      1.0  0.11710  0.33713  0.72939  1.0000
  C   C102      1.0  0.18663  0.36529  0.72176  1.0000
  C   C103      1.0  0.17958  0.39190  0.69762  1.0000
  C   C104      1.0  0.08328  0.36170  0.71568  1.0000
  H   H164      1.0  0.47630  0.10516  0.75162  1.0000
  H   H165      1.0  0.17821  0.42039  0.77846  1.0000
  H   H166      1.0  0.08056  0.09074  0.91223  1.0000
  C   C105      1.0  0.41359  0.11126  0.68152  1.0000
  H   H167      1.0  0.12921  0.31295  0.71647  1.0000
  H   H168      1.0  0.10060  0.31922  0.74454  1.0000
  H   H169      1.0  0.21402  0.37746  0.73104  1.0000
  H   H170      1.0  0.19552  0.33365  0.71533  1.0000
  H   H171      1.0  0.41628  0.10541  0.80485  1.0000
  C   C106      1.0  0.99446  0.00231  0.82737  1.0000
  H   H172      1.0  0.15259  0.27393  0.75266  1.0000
  H   H173      1.0  0.06524  0.37954  0.72965  1.0000
  H   H174      1.0  0.01577  0.34288  0.76063  1.0000
  H   H175      1.0  0.21460  0.28861  0.79392  1.0000
  H   H176      1.0  0.07566  0.04553  0.96421  1.0000
  H   H177      1.0  0.19698  0.23899  0.78290  1.0000
  H   H178      1.0  0.21623  0.04287  0.82279  1.0000
  C   C107      1.0  0.04850  0.22737  0.95044  1.0000
  H   H179      1.0  0.15694  0.37650  0.68582  1.0000
  H   H180      1.0  0.43899  0.08862  0.67958  1.0000
  H   H181      1.0  0.23323  0.03440  0.86970  1.0000
  C   C108      1.0  0.02338  0.18792  0.94667  1.0000
  N   N8        1.0  0.45542  0.16676  0.74066  1.0000
  C   C109      1.0  0.21537  0.00496  0.87011  1.0000
  H   H182      1.0  0.07048  0.14611  0.95842  1.0000
  C   C110      1.0  0.05121  0.14957  0.94163  1.0000
  H   H183      1.0  0.19561  0.43788  0.74761  1.0000
  C   C111      1.0  0.44996  0.10530  0.80443  1.0000
  H   H184      1.0  0.11107  0.40116  0.76183  1.0000
  H   H185      1.0  0.23048  0.36498  0.67662  1.0000
  S   S24       1.0  0.39335  0.00528  0.78370  1.0000
  H   H186      1.0  0.46074  0.07372  0.79914  1.0000
  H   H187      1.0  0.46056  0.11175  0.82361  1.0000
  H   H188      1.0  0.01443  0.43625  0.88234  1.0000
  H   H189      1.0  0.21239  0.41433  0.66433  1.0000
  H   H190      1.0  0.16921  0.42402  0.70188  1.0000
  H   H191      1.0  0.06508  0.42821  0.87019  1.0000
  C   C112      1.0  0.00140  0.11739  0.91449  1.0000
  H   H192      1.0  0.24204  0.41325  0.69232  1.0000
  C   C113      1.0  0.18489  0.11377  0.98497  1.0000
  C   C114      1.0  0.21863  0.39621  0.68185  1.0000
  C   C115      1.0  0.03419  0.48138  0.85339  1.0000
  H   H193      1.0  0.16129  0.01154  0.76418  1.0000
  H   H194      1.0  0.06808  0.22335  0.96701  1.0000
  C   C116      1.0  0.19699  0.01432  0.82410  1.0000
  H   H195      1.0  0.18365  0.01147  0.87625  1.0000
  H   H196      1.0  0.01367  0.14275  0.90180  1.0000
  H   H197      1.0  0.00297  0.19452  0.93079  1.0000
  H   H198      1.0  0.02003  0.07528  0.88467  1.0000
  H   H199      1.0  0.02319  0.46179  0.83810  1.0000
  H   H200      1.0  0.29725  0.99411  0.75261  1.0000
  C   C117      1.0  0.99272  0.08084  0.89661  1.0000
  H   H201      1.0  0.22231  0.99203  0.74769  1.0000
  H   H202      1.0  0.99913  0.88394  0.00405  1.0000
  H   H203      1.0  0.35207  0.81900  0.15352  1.0000
  S   S25       1.0  0.45083  0.91996  0.28652  1.0000
  H   H204      1.0  0.37239  0.86163  0.19091  1.0000
  C   C118      1.0  0.36927  0.87698  0.24101  1.0000
  H   H205      1.0  0.14016  0.51628  0.23761  1.0000
  H   H206      1.0  0.33316  0.83390  0.20694  1.0000
  C   C119      1.0  0.35061  0.79067  0.16596  1.0000
  H   H207      1.0  0.40972  0.79930  0.18050  1.0000
  C   C120      1.0  0.44690  0.86560  0.29506  1.0000
  H   H208      1.0  0.23103  0.54432  0.32117  1.0000
  H   H209      1.0  0.12595  0.91095  0.14831  1.0000
  C   C121      1.0  0.46257  0.81147  0.22289  1.0000
  C   C122      1.0  0.17903  0.55176  0.21263  1.0000
  H   H210      1.0  0.37681  0.95775  0.26046  1.0000
  C   C123      1.0  0.43832  0.77970  0.31021  1.0000
  H   H211      1.0  0.32508  0.81411  0.26530  1.0000
  Fe  Fe13      1.0  0.99726  0.53551  0.21034  1.0000
  C   C124      1.0  0.14137  0.54754  0.28955  1.0000
  C   C125      1.0  0.14697  0.58621  0.27718  1.0000
  C   C126      1.0  0.18223  0.61014  0.28122  1.0000
  H   H212      1.0  0.11863  0.90458  0.18201  1.0000
  H   H213      1.0  0.12380  0.59805  0.26484  1.0000
  H   H214      1.0  0.38899  0.87350  0.31385  1.0000
  H   H215      1.0  0.05109  0.91445  0.14348  1.0000
  H   H216      1.0  0.00307  0.80667  0.11469  1.0000
  C   C127      1.0  0.37393  0.91992  0.22694  1.0000
  N   N9        1.0  0.38807  0.83974  0.22811  1.0000
  C   C128      1.0  0.38320  0.80221  0.24560  1.0000
  C   C129      1.0  0.43269  0.84910  0.22350  1.0000
  C   C130      1.0  0.47703  0.83651  0.28894  1.0000
  H   H217      1.0  0.45310  0.78710  0.20983  1.0000
  C   C131      1.0  0.17048  0.51238  0.22859  1.0000
  H   H218      1.0  0.05701  0.80706  0.11525  1.0000
  H   H219      1.0  0.31878  0.78552  0.17252  1.0000
  C   C132      1.0  0.47292  0.79409  0.29669  1.0000
  H   H220      1.0  0.00700  0.85578  0.19627  1.0000
  H   H221      1.0  0.35111  0.72274  0.25771  1.0000
  H   H222      1.0  0.09000  0.76963  0.15708  1.0000
  H   H223      1.0  0.39989  0.80775  0.26313  1.0000
  H   H224      1.0  0.39752  0.77397  0.23757  1.0000
  H   H225      1.0  0.43713  0.86755  0.20568  1.0000
  H   H226      1.0  0.44428  0.86931  0.23859  1.0000
  S   S26       1.0  0.37562  0.62004  0.31328  1.0000
  C   C133      1.0  0.33922  0.78979  0.25341  1.0000
  H   H227      1.0  0.05671  0.83812  0.07113  1.0000
  C   C134      1.0  0.41249  0.85135  0.30889  1.0000
  H   H228      1.0  0.15603  0.55538  0.19779  1.0000
  H   H229      1.0  0.08259  0.69332  0.16411  1.0000
  H   H230      1.0  0.05885  0.72082  0.18969  1.0000
  H   H231      1.0  0.10293  0.95215  0.16617  1.0000
  H   H232      1.0  0.25596  0.98621  0.07401  1.0000
  C   C135      1.0  0.06012  0.75509  0.15372  1.0000
  H   H233      1.0  0.38217  0.88022  0.26004  1.0000
  H   H234      1.0  0.09184  0.84221  0.14678  1.0000
  H   H235      1.0  0.19301  0.51040  0.24375  1.0000
  C   C136      1.0  0.10540  0.91760  0.16451  1.0000
  C   C137      1.0  0.03055  0.85761  0.07718  1.0000
  H   H236      1.0  0.32030  0.78514  0.23674  1.0000
  S   S27       1.0  0.09636  0.51701  0.28660  1.0000
  H   H237      1.0  0.04371  0.90850  0.17650  1.0000
  H   H238      1.0  0.35604  0.92062  0.20953  1.0000
  C   C138      1.0  0.21264  0.59574  0.29747  1.0000
  C   C139      1.0  0.33861  0.74891  0.26888  1.0000
  C   C140      1.0  0.17192  0.53296  0.30565  1.0000
  H   H239      1.0  0.07238  0.83878  0.17787  1.0000
  H   H240      1.0  0.36035  0.76327  0.15485  1.0000
  H   H241      1.0  0.32622  0.95141  0.24838  1.0000
  C   C141      1.0  0.20750  0.55656  0.30932  1.0000
  C   C142      1.0  0.06498  0.85056  0.15867  1.0000
  C   C143      1.0  0.02489  0.78529  0.16051  1.0000
  H   H242      1.0  0.16811  0.50304  0.31527  1.0000
  H   H243      1.0  0.99619  0.76994  0.15491  1.0000
  S   S28       1.0  0.25602  0.62808  0.30221  1.0000
  C   C144      1.0  0.37849  0.79544  0.18829  1.0000
  H   H244      1.0  0.37641  0.76609  0.19966  1.0000
  H   H245      1.0  0.30696  0.74092  0.27466  1.0000
  H   H246      1.0  0.18584  0.64022  0.27177  1.0000
  H   H247      1.0  0.05877  0.74607  0.13375  1.0000
  H   H248      1.0  0.33612  0.87252  0.24403  1.0000
  C   C145      1.0  0.02965  0.82492  0.12106  1.0000
  H   H249      1.0  0.35673  0.75201  0.28610  1.0000
  N   N10       1.0  0.02752  0.82908  0.14925  1.0000
  C   C146      1.0  0.06340  0.89914  0.16045  1.0000
  C   C147      1.0  0.36659  0.83420  0.20369  1.0000
  C   C148      1.0  0.03218  0.86601  0.10529  1.0000
  C   C149      1.0  0.40792  0.80872  0.31613  1.0000
  S   S29       1.0  0.05828  0.50384  0.21587  1.0000
  H   H250      1.0  0.17754  0.57967  0.22470  1.0000
  H   H251      1.0  0.46454  0.79665  0.24185  1.0000
  H   H252      1.0  0.20978  0.55032  0.20383  1.0000
  C   C150      1.0  0.35872  0.95577  0.24316  1.0000
  H   H253      1.0  0.00194  0.84150  0.07259  1.0000
  H   H254      1.0  0.03170  0.88786  0.06653  1.0000
  H   H255      1.0  0.02352  0.78628  0.18136  1.0000
  Fe  Fe14      1.0  0.04598  0.51118  0.25731  1.0000
  H   H256      1.0  0.40589  0.92677  0.22176  1.0000
  H   H257      1.0  0.06140  0.88203  0.10839  1.0000
  H   H258      1.0  0.02827  0.69811  0.16565  1.0000
  C   C151      1.0  0.05720  0.71447  0.16932  1.0000
  Fe  Fe15      1.0  0.48746  0.95931  0.25683  1.0000
  S   S30       1.0  0.43580  0.72576  0.31999  1.0000
  H   H259      1.0  0.00681  0.88714  0.10997  1.0000
  H   H260      1.0  0.36215  0.98584  0.23247  1.0000
  H   H261      1.0  0.47985  0.55622  0.32389  1.0000
  Fe  Fe16      1.0  0.30413  0.62812  0.61774  1.0000
  S   S31       1.0  0.33333  0.68709  0.60107  1.0000
  H   H262      1.0  0.30860  0.80005  0.40033  1.0000
  Fe  Fe17      1.0  0.38455  0.57975  0.61357  1.0000
  S   S32       1.0  0.41868  0.63522  0.59797  1.0000
  S   S33       1.0  0.41036  0.51553  0.62330  1.0000
  Fe  Fe18      1.0  0.38537  0.67379  0.62684  1.0000
  Fe  Fe19      1.0  0.36442  0.64451  0.57297  1.0000
  S   S34       1.0  0.38526  0.65687  0.53173  1.0000
  S   S35       1.0  0.33150  0.58679  0.58776  1.0000
  Fe  Fe20      1.0  0.34049  0.64339  0.38214  1.0000
  S   S36       1.0  0.40625  0.63747  0.37093  1.0000
  S   S37       1.0  0.31100  0.65246  0.42111  1.0000
  S   S38       1.0  0.23951  0.63419  0.63484  1.0000
  H   H263      1.0  0.16482  0.57997  0.35402  1.0000
  Fe  Fe21      1.0  0.38709  0.58214  0.34858  1.0000
  S   S39       1.0  0.41398  0.51671  0.35361  1.0000
  H   H264      1.0  0.40992  0.73681  0.44340  1.0000
  H   H265      1.0  0.36460  0.72311  0.40253  1.0000
  S   S40       1.0  0.32192  0.58578  0.36183  1.0000
  S   S41       1.0  0.32592  0.68592  0.34906  1.0000
  H   H266      1.0  0.20429  0.73519  0.34437  1.0000
  H   H267      1.0  0.29740  0.77733  0.59586  1.0000
  C   C152      1.0  0.35948  0.75711  0.40484  1.0000
  C   C153      1.0  0.31691  0.76740  0.39565  1.0000
  C   C154      1.0  0.36381  0.65334  0.50122  1.0000
  C   C155      1.0  0.32199  0.65060  0.49757  1.0000
  C   C156      1.0  0.30653  0.65011  0.47300  1.0000
  C   C157      1.0  0.33254  0.65149  0.45168  1.0000
  C   C158      1.0  0.37442  0.65346  0.45530  1.0000
  C   C159      1.0  0.38983  0.65484  0.47986  1.0000
  H   H268      1.0  0.30150  0.64964  0.51368  1.0000
  H   H269      1.0  0.27412  0.64870  0.47055  1.0000
  H   H270      1.0  0.39489  0.65451  0.43920  1.0000
  H   H271      1.0  0.42219  0.65709  0.48238  1.0000
  H   H272      1.0  0.10187  0.59599  0.33152  1.0000
  H   H273      1.0  0.47284  0.80376  0.42630  1.0000
  H   H274      1.0  0.09447  0.60764  0.38872  1.0000
  H   H275      1.0  0.48315  0.56174  0.60787  1.0000
  H   H276      1.0  0.38260  0.81631  0.39257  1.0000
  N   N11       1.0  0.43550  0.77697  0.39750  1.0000
  H   H277      1.0  0.32852  0.82891  0.63952  1.0000
  H   H278      1.0  0.24269  0.55358  0.36312  1.0000
  N   N12       1.0  0.18567  0.60612  0.38863  1.0000
  C   C160      1.0  0.16730  0.62768  0.41112  1.0000
  C   C161      1.0  0.15287  0.58645  0.37327  1.0000
  C   C162      1.0  0.21269  0.57151  0.39858  1.0000
  C   C163      1.0  0.21166  0.63542  0.37256  1.0000
  H   H279      1.0  0.43983  0.56236  0.53578  1.0000
  C   C164      1.0  0.19780  0.64916  0.42857  1.0000
  C   C165      1.0  0.46241  0.50257  0.62300  1.0000
  C   C166      1.0  0.46219  0.49905  0.34313  1.0000
  C   C167      1.0  0.17587  0.66988  0.45058  1.0000
  C   C168      1.0  0.44726  0.73199  0.39333  1.0000
  H   H280      1.0  0.14926  0.60470  0.42275  1.0000
  H   H281      1.0  0.14514  0.65199  0.40555  1.0000
  C   C169      1.0  0.42446  0.79785  0.64454  1.0000
  C   C170      1.0  0.39190  0.78319  0.39012  1.0000
  H   H282      1.0  0.46239  0.79456  0.47477  1.0000
  H   H283      1.0  0.24070  0.58483  0.40665  1.0000
  H   H284      1.0  0.23880  0.64545  0.38299  1.0000
  H   H285      1.0  0.22454  0.61888  0.35607  1.0000
  C   C171      1.0  0.45645  0.55215  0.41889  1.0000
  H   H286      1.0  0.21943  0.62623  0.43662  1.0000
  H   H287      1.0  0.21525  0.67392  0.41821  1.0000
  H   H288      1.0  0.42174  0.85495  0.36729  1.0000
  C   C172      1.0  0.46154  0.80373  0.37981  1.0000
  C   C173      1.0  0.30650  0.80640  0.63198  1.0000
  Fe  Fe22      1.0  0.39061  0.67656  0.33633  1.0000
  C   C174      1.0  0.19029  0.67482  0.36174  1.0000
  H   H289      1.0  0.43391  0.86325  0.63494  1.0000
  C   C175      1.0  0.21427  0.55362  0.65053  1.0000
  H   H290      1.0  0.42107  0.81692  0.42878  1.0000
  H   H291      1.0  0.27671  0.82217  0.63144  1.0000
  H   H292      1.0  0.35935  0.76474  0.42500  1.0000
  H   H293      1.0  0.43011  0.71041  0.40617  1.0000
  C   C176      1.0  0.11212  0.61036  0.37076  1.0000
  C   C177      1.0  0.45026  0.85079  0.37780  1.0000
  H   H294      1.0  0.46096  0.79124  0.36043  1.0000
  H   H295      1.0  0.43235  0.75057  0.48595  1.0000
  H   H296      1.0  0.38863  0.77650  0.36980  1.0000
  H   H297      1.0  0.22283  0.78232  0.63670  1.0000
  H   H298      1.0  0.43070  0.55607  0.40592  1.0000
  H   H299      1.0  0.44542  0.53423  0.43575  1.0000
  C   C178      1.0  0.43479  0.77580  0.47132  1.0000
  H   H300      1.0  0.40755  0.79606  0.47305  1.0000
  C   C179      1.0  0.44307  0.53273  0.54685  1.0000
  H   H301      1.0  0.23945  0.69455  0.33632  1.0000
  H   H302      1.0  0.19708  0.55392  0.41427  1.0000
  C   C180      1.0  0.44187  0.79055  0.42420  1.0000
  C   C181      1.0  0.22701  0.53843  0.37937  1.0000
  C   C182      1.0  0.43718  0.75641  0.44536  1.0000
  H   H303      1.0  0.28299  0.52332  0.39887  1.0000
  H   H304      1.0  0.29457  0.74591  0.40501  1.0000
  H   H305      1.0  0.32175  0.82779  0.59403  1.0000
  H   H306      1.0  0.15875  0.64624  0.46211  1.0000
  H   H307      1.0  0.14389  0.55547  0.38163  1.0000
  H   H308      1.0  0.44367  0.54057  0.56706  1.0000
  H   H309      1.0  0.15470  0.69440  0.44373  1.0000
  H   H310      1.0  0.46362  0.73496  0.44514  1.0000
  H   H311      1.0  0.17113  0.69055  0.37596  1.0000
  H   H312      1.0  0.43843  0.72262  0.37419  1.0000
  H   H313      1.0  0.31505  0.76379  0.37505  1.0000
  H   H314      1.0  0.41589  0.78961  0.62581  1.0000
  H   H315      1.0  0.35002  0.78267  0.60439  1.0000
  C   C183      1.0  0.43485  0.83970  0.64979  1.0000
  C   C184      1.0  0.31974  0.79785  0.60493  1.0000
  H   H316      1.0  0.17139  0.66581  0.34570  1.0000
  C   C185      1.0  0.22072  0.70744  0.35183  1.0000
  H   H317      1.0  0.19847  0.68485  0.46271  1.0000
  C   C186      1.0  0.08642  0.59185  0.35014  1.0000
  S   S42       1.0  0.35504  0.61673  0.64414  1.0000
  H   H318      1.0  0.11621  0.64399  0.36632  1.0000
  H   H319      1.0  0.05667  0.60805  0.34945  1.0000
  C   C187      1.0  0.20558  0.59652  0.64937  1.0000
  H   H320      1.0  0.24068  0.71770  0.36708  1.0000
  H   H321      1.0  0.24252  0.54232  0.64255  1.0000
  H   H322      1.0  0.48835  0.86258  0.34441  1.0000
  H   H323      1.0  0.20120  0.52023  0.37221  1.0000
  H   H324      1.0  0.48502  0.66290  0.41598  1.0000
  H   H325      1.0  0.48007  0.50380  0.51857  1.0000
  H   H326      1.0  0.08093  0.55794  0.35376  1.0000
  H   H327      1.0  0.44625  0.86445  0.39667  1.0000
  Fe  Fe23      1.0  0.31135  0.62708  0.32810  1.0000
  H   H328      1.0  0.33768  0.75544  0.64967  1.0000
  H   H329      1.0  0.47313  0.90876  0.36087  1.0000
  C   C188      1.0  0.48879  0.52465  0.32901  1.0000
  H   H330      1.0  0.29092  0.74056  0.63729  1.0000
  H   H331      1.0  0.48694  0.62488  0.62867  1.0000
  H   H332      1.0  0.49112  0.65829  0.38223  1.0000
  H   H333      1.0  0.41612  0.51290  0.54358  1.0000
  C   C189      1.0  0.48209  0.51026  0.53887  1.0000
  H   H334      1.0  0.38099  0.79845  0.32636  1.0000
  C   C190      1.0  0.48302  0.87573  0.36334  1.0000
  H   H335      1.0  0.46655  0.58368  0.42451  1.0000
  H   H336      1.0  0.16602  0.73836  0.65312  1.0000
  C   C191      1.0  0.25621  0.50706  0.39134  1.0000
  H   H337      1.0  0.15066  0.79167  0.64712  1.0000
  C   C192      1.0  0.30550  0.76548  0.64831  1.0000
  H   H338      1.0  0.47876  0.49822  0.39986  1.0000
  C   C193      1.0  0.49094  0.52882  0.40562  1.0000
  C   C194      1.0  0.21398  0.78479  0.65682  1.0000
  H   H339      1.0  0.29635  0.94082  0.76460  1.0000
  C   C195      1.0  0.42582  0.76682  0.66343  1.0000
  H   H340      1.0  0.32120  0.66691  0.72172  1.0000
  H   H341      1.0  0.27677  0.83518  0.67341  1.0000
  S   S43       1.0  0.05370  0.51681  0.74776  1.0000
  H   H342      1.0  0.28173  0.95230  0.73277  1.0000
  H   H343      1.0  0.11185  0.59296  0.67890  1.0000
  C   C196      1.0  0.05378  0.57440  0.82196  1.0000
  C   C197      1.0  0.49066  0.67843  0.74217  1.0000
  H   H344      1.0  0.02946  0.84017  0.92631  1.0000
  S   S44       1.0  0.45990  0.90494  0.67915  1.0000
  C   C198      1.0  0.44684  0.85137  0.67393  1.0000
  H   H345      1.0  0.09450  0.91294  0.79289  1.0000
  C   C199      1.0  0.44788  0.82036  0.69287  1.0000
  Fe  Fe24      1.0  0.48063  0.94564  0.71199  1.0000
  C   C200      1.0  0.12642  0.95926  0.81463  1.0000
  C   C201      1.0  0.43749  0.77849  0.68763  1.0000
  H   H346      1.0  0.39286  0.53031  0.70615  1.0000
  H   H347      1.0  0.33909  0.74171  0.69148  1.0000
  C   C202      1.0  0.14873  0.53876  0.67200  1.0000
  H   H348      1.0  0.16069  0.94531  0.78087  1.0000
  C   C203      1.0  0.40257  0.55609  0.69310  1.0000
  H   H349      1.0  0.10767  0.98531  0.80720  1.0000
  H   H350      1.0  0.11371  0.58744  0.80626  1.0000
  C   C204      1.0  0.28065  0.96386  0.75228  1.0000
  H   H351      1.0  0.30647  0.68393  0.66534  1.0000
  H   H352      1.0  0.23765  0.72447  0.66480  1.0000
  H   H353      1.0  0.38529  0.58470  0.69798  1.0000
  C   C205      1.0  0.03502  0.96974  0.86871  1.0000
  H   H354      1.0  0.36804  0.87759  0.70240  1.0000
  H   H355      1.0  0.07263  0.92242  0.82345  1.0000
  H   H356      1.0  0.43842  0.75504  0.70251  1.0000
  C   C206      1.0  0.30569  0.73639  0.69148  1.0000
  C   C207      1.0  0.32690  0.66156  0.70142  1.0000
  H   H357      1.0  0.11851  0.89202  0.82079  1.0000
  C   C208      1.0  0.00054  0.94899  0.85986  1.0000
  C   C209      1.0  0.44805  0.56355  0.69533  1.0000
  H   H358      1.0  0.22096  0.93899  0.75962  1.0000
  H   H359      1.0  0.09127  0.87634  0.93968  1.0000
  N   N13       1.0  0.28553  0.76770  0.67408  1.0000
  H   H360      1.0  0.20026  0.95484  0.84617  1.0000
  C   C210      1.0  0.10169  0.91908  0.81275  1.0000
  H   H361      1.0  0.14304  0.49267  0.74694  1.0000
  C   C211      1.0  0.14028  0.58173  0.67114  1.0000
  H   H362      1.0  0.01596  0.92419  0.95268  1.0000
  C   C212      1.0  0.00917  0.89024  0.95100  1.0000
  C   C213      1.0  0.33667  0.87003  0.69674  1.0000
  C   C214      1.0  0.23654  0.96961  0.76098  1.0000
  C   C215      1.0  0.24123  0.75604  0.67297  1.0000
  H   H363      1.0  0.31529  0.87993  0.71185  1.0000
  H   H364      1.0  0.35934  0.66772  0.69674  1.0000
  C   C216      1.0  0.33315  0.82304  0.69252  1.0000
  H   H365      1.0  0.07527  0.58084  0.78326  1.0000
  H   H366      1.0  0.06706  0.56631  0.84039  1.0000
  C   C217      1.0  0.29963  0.68959  0.68544  1.0000
  H   H367      1.0  0.47030  0.70470  0.74738  1.0000
  C   C218      1.0  0.08644  0.56903  0.80161  1.0000
  H   H368      1.0  0.19305  0.49206  0.66210  1.0000
  H   H369      1.0  0.15841  0.77369  0.67896  1.0000
  S   S45       1.0  0.47295  0.93086  0.75342  1.0000
  C   C219      1.0  0.28936  0.81021  0.68568  1.0000
  H   H370      1.0  0.26792  0.67969  0.68972  1.0000
  H   H371      1.0  0.07510  0.92413  0.92402  1.0000
  C   C220      1.0  0.16760  0.95598  0.80007  1.0000
  H   H372      1.0  0.29482  0.74065  0.71121  1.0000
  C   C221      1.0  0.23436  0.98513  0.78835  1.0000
  H   H373      1.0  0.34222  0.80659  0.71011  1.0000
  H   H374      1.0  0.32024  0.62825  0.69763  1.0000
  C   C222      1.0  0.48338  0.66661  0.71498  1.0000
  H   H375      1.0  0.13126  0.96453  0.83486  1.0000
  H   H376      1.0  0.02545  0.51681  0.80993  1.0000
  H   H377      1.0  0.02043  0.53684  0.87380  1.0000
  H   H378      1.0  0.00452  0.60020  0.85691  1.0000
  H   H379      1.0  0.24864  0.97904  0.83943  1.0000
  H   H380      1.0  0.18508  0.92976  0.80865  1.0000
  H   H381      1.0  0.22901  0.98316  0.88406  1.0000
  H   H382      1.0  0.08676  0.87845  0.90601  1.0000
  C   C223      1.0  0.21634  0.98519  0.84429  1.0000
  H   H383      1.0  0.45685  0.82863  0.71154  1.0000
  C   C224      1.0  0.07324  0.88941  0.92398  1.0000
  S   S46       1.0  0.99717  0.54651  0.70152  1.0000
  H   H384      1.0  0.01322  0.88689  0.90959  1.0000
  H   H385      1.0  0.02596  0.87463  0.96645  1.0000
  H   H386      1.0  0.44108  0.62537  0.67787  1.0000
  H   H387      1.0  0.00632  0.70017  0.78311  1.0000
  H   H388      1.0  0.27066  0.81146  0.70332  1.0000
  H   H389      1.0  0.21565  0.81787  0.66251  1.0000
  S   S47       1.0  0.11395  0.50073  0.68531  1.0000
  H   H390      1.0  0.35523  0.81448  0.67759  1.0000
  H   H391      1.0  0.24843  0.95996  0.79997  1.0000
  H   H392      1.0  0.22779  0.75392  0.69233  1.0000
  C   C225      1.0  0.02914  0.87486  0.92636  1.0000
  H   H393      1.0  0.39522  0.54690  0.67375  1.0000
  H   H394      1.0  0.45104  0.65758  0.71363  1.0000
  H   H395      1.0  0.46343  0.53379  0.69050  1.0000
  H   H396      1.0  0.04550  0.60813  0.82194  1.0000
  H   H397      1.0  0.33040  0.88790  0.67914  1.0000
  H   H398      1.0  0.16112  0.64323  0.65910  1.0000
  H   H399      1.0  0.45349  0.57083  0.71519  1.0000
  C   C226      1.0  0.46300  0.59891  0.67713  1.0000
  C   C227      1.0  0.16841  0.61026  0.65986  1.0000
  C   C228      1.0  0.01554  0.54755  0.81716  1.0000
  H   H400      1.0  0.09528  0.53564  0.80012  1.0000
  Fe  Fe25      1.0  0.05225  0.50551  0.70648  1.0000
  C   C229      1.0  0.18603  0.52508  0.66166  1.0000
  H   H401      1.0  0.06359  0.49499  0.84687  1.0000
  H   H402      1.0  0.05098  0.95674  0.88455  1.0000
  H   H403      1.0  0.17363  0.49638  0.77442  1.0000
  H   H404      1.0  0.99982  0.56246  0.80101  1.0000
  C   C230      1.0  0.00386  0.51671  0.86061  1.0000
  Fe  Fe26      1.0  0.99665  0.55468  0.74350  1.0000
  S   S48       1.0  0.99659  0.62028  0.76073  1.0000
  H   H405      1.0  0.48936  0.67461  0.66453  1.0000
  H   H406      1.0  0.48410  0.65148  0.75511  1.0000
  H   H407      1.0  0.48885  0.69520  0.70325  1.0000
  H   H408      1.0  0.45952  0.58621  0.65802  1.0000
  C   C231      1.0  0.16960  0.77121  0.65924  1.0000
  S   S49       1.0  0.41323  0.71324  0.65810  1.0000
  C   C232      1.0  0.54826  0.36294  0.28566  1.0000
  S   S50       1.0  0.55075  0.11256  0.25034  1.0000
  C   C233      1.0  0.84060  0.37408  0.30105  1.0000
  H   H409      1.0  0.54188  0.10592  0.30555  1.0000
  H   H410      1.0  0.96441  0.31905  0.20325  1.0000
  H   H411      1.0  0.72046  0.32895  0.27242  1.0000
  H   H412      1.0  0.51118  0.32481  0.26192  1.0000
  C   C234      1.0  0.52158  0.32365  0.28172  1.0000
  C   C235      1.0  0.86800  0.40243  0.28892  1.0000
  C   C236      1.0  0.85726  0.44448  0.28522  1.0000
  H   H413      1.0  0.80031  0.15881  0.28253  1.0000
  C   C237      1.0  0.76795  0.19369  0.31193  1.0000
  H   H414      1.0  0.89753  0.39178  0.28259  1.0000
  S   S51       1.0  0.53174  0.02902  0.20155  1.0000
  C   C238      1.0  0.59018  0.21425  0.28860  1.0000
  C   C239      1.0  0.58012  0.18607  0.26955  1.0000
  C   C240      1.0  0.56269  0.14664  0.27539  1.0000
  C   C241      1.0  0.55527  0.13597  0.30067  1.0000
  H   H415      1.0  0.68112  0.06677  0.29337  1.0000
  H   H416      1.0  0.60361  0.24425  0.28370  1.0000
  H   H417      1.0  0.58602  0.19474  0.25009  1.0000
  H   H418      1.0  0.65370  0.13560  0.30664  1.0000
  C   C242      1.0  0.90131  0.13568  0.17502  1.0000
  C   C243      1.0  0.58166  0.36659  0.26543  1.0000
  H   H419      1.0  0.93041  0.18621  0.15484  1.0000
  H   H420      1.0  0.85099  0.17915  0.31440  1.0000
  H   H421      1.0  0.66026  0.15588  0.27504  1.0000
  H   H422      1.0  0.54257  0.29647  0.28314  1.0000
  C   C244      1.0  0.71300  0.22116  0.28469  1.0000
  H   H423      1.0  0.92317  0.19416  0.18814  1.0000
  H   H424      1.0  0.90833  0.11223  0.16043  1.0000
  H   H425      1.0  0.63761  0.08280  0.27567  1.0000
  H   H426      1.0  0.71090  0.27813  0.30731  1.0000
  C   C245      1.0  0.93230  0.17125  0.17372  1.0000
  C   C246      1.0  0.81856  0.45745  0.29375  1.0000
  S   S52       1.0  0.89052  0.48223  0.27020  1.0000
  H   H427      1.0  0.97437  0.14311  0.19886  1.0000
  H   H428      1.0  0.88847  0.47744  0.17821  1.0000
  C   C247      1.0  0.80197  0.38711  0.30965  1.0000
  H   H429      1.0  0.67796  0.29527  0.26657  1.0000
  H   H430      1.0  0.75838  0.27077  0.29101  1.0000
  H   H431      1.0  0.60095  0.39423  0.26910  1.0000
  S   S53       1.0  0.65127  0.34645  0.31496  1.0000
  H   H432      1.0  0.80175  0.99907  0.03029  1.0000
  H   H433      1.0  0.60117  0.33825  0.26560  1.0000
  C   C248      1.0  0.98408  0.26067  0.18675  1.0000
  H   H434      1.0  0.87051  0.14839  0.17163  1.0000
  H   H435      1.0  0.72610  0.21247  0.26610  1.0000
  C   C249      1.0  0.58243  0.20361  0.31385  1.0000
  S   S54       1.0  0.96380  0.47351  0.21087  1.0000
  H   H436      1.0  0.56834  0.37082  0.24657  1.0000
  H   H437      1.0  0.72606  0.28741  0.25026  1.0000
  H   H438      1.0  0.49604  0.22980  0.30783  1.0000
  C   C250      1.0  0.71144  0.29631  0.26833  1.0000
  H   H439      1.0  0.56316  0.36101  0.30409  1.0000
  H   H440      1.0  0.67962  0.22121  0.28208  1.0000
  C   C251      1.0  0.97540  0.15469  0.17904  1.0000
  C   C252      1.0  0.72508  0.26715  0.28962  1.0000
  H   H441      1.0  0.90118  0.11995  0.19381  1.0000
  H   H442      1.0  0.98300  0.21337  0.09928  1.0000
  H   H443      1.0  0.84955  0.34182  0.30393  1.0000
  H   H444      1.0  0.98094  0.12616  0.16777  1.0000
  Fe  Fe27      1.0  0.52645  0.04589  0.24276  1.0000
  H   H445      1.0  0.95399  0.25419  0.17892  1.0000
  C   C253      1.0  0.84210  0.20113  0.29905  1.0000
  C   C254      1.0  0.79111  0.42908  0.30577  1.0000
  C   C255      1.0  0.97766  0.28866  0.20942  1.0000
  H   H446      1.0  0.86433  0.19828  0.28324  1.0000
  C   C256      1.0  0.71770  0.14615  0.29466  1.0000
  H   H447      1.0  0.77271  0.22352  0.32197  1.0000
  H   H448      1.0  0.98375  0.15134  0.12809  1.0000
  H   H449      1.0  0.73471  0.14260  0.27658  1.0000
  C   C257      1.0  0.56491  0.16432  0.31969  1.0000
  C   C258      1.0  0.66988  0.09005  0.27940  1.0000
  H   H450      1.0  0.75550  0.47185  0.23945  1.0000
  N   N14       1.0  0.72422  0.18938  0.30474  1.0000
  H   H451      1.0  0.80980  0.48983  0.29126  1.0000
  C   C259      1.0  0.67304  0.13436  0.28940  1.0000
  H   H452      1.0  0.50842  0.23984  0.27509  1.0000
  H   H453      1.0  0.68746  0.08720  0.26151  1.0000
  C   C260      1.0  0.79959  0.19094  0.29007  1.0000
  H   H454      1.0  0.53038  0.39231  0.28486  1.0000
  H   H455      1.0  0.76170  0.43981  0.31227  1.0000
  H   H456      1.0  0.79282  0.21310  0.27445  1.0000
  H   H457      1.0  0.98426  0.22438  0.14506  1.0000
  Fe  Fe28      1.0  0.95508  0.48370  0.25236  1.0000
  H   H458      1.0  0.73057  0.12181  0.30744  1.0000
  H   H459      1.0  0.84327  0.23373  0.30590  1.0000
  H   H460      1.0  0.94751  0.06412  0.99166  1.0000
  S   S55       1.0  0.58762  0.45044  0.31823  1.0000
  H   H461      1.0  0.66556  0.19861  0.32252  1.0000
  H   H462      1.0  0.95663  0.27358  0.22340  1.0000
  Fe  Fe29      1.0  0.70188  0.35444  0.63509  1.0000
  Fe  Fe30      1.0  0.66920  0.34499  0.58102  1.0000
  S   S56       1.0  0.60444  0.34690  0.59479  1.0000
  S   S57       1.0  0.69612  0.34302  0.54074  1.0000
  Fe  Fe31      1.0  0.62376  0.39932  0.61940  1.0000
  H   H463      1.0  0.56141  0.47127  0.46480  1.0000
  Fe  Fe32      1.0  0.62321  0.30387  0.62699  1.0000
  S   S58       1.0  0.57865  0.24917  0.63540  1.0000
  S   S59       1.0  0.68774  0.39981  0.60389  1.0000
  S   S60       1.0  0.68712  0.29850  0.61142  1.0000
  Fe  Fe33      1.0  0.64671  0.35913  0.38842  1.0000
  S   S61       1.0  0.67415  0.40827  0.36197  1.0000
  S   S62       1.0  0.62668  0.37119  0.42956  1.0000
  Fe  Fe34      1.0  0.62593  0.30099  0.34395  1.0000
  H   H464      1.0  0.81646  0.47153  0.57345  1.0000
  C   C261      1.0  0.50188  0.30986  0.32548  1.0000
  C   C262      1.0  0.57378  0.20522  0.65671  1.0000
  Fe  Fe35      1.0  0.62044  0.39651  0.33758  1.0000
  H   H465      1.0  0.52151  0.41133  0.34722  1.0000
  S   S63       1.0  0.67972  0.30611  0.36928  1.0000
  S   S64       1.0  0.59147  0.35085  0.36463  1.0000
  H   H466      1.0  0.53034  0.45630  0.38876  1.0000
  H   H467      1.0  0.52397  0.41880  0.63571  1.0000
  H   H468      1.0  0.91916  0.37945  0.58787  1.0000
  H   H469      1.0  0.54484  0.37977  0.55693  1.0000
  H   H470      1.0  0.60530  0.41893  0.56053  1.0000
  H   H471      1.0  0.49210  0.39239  0.39870  1.0000
  C   C263      1.0  0.51524  0.45005  0.62980  1.0000
  C   C264      1.0  0.67567  0.34945  0.50998  1.0000
  C   C265      1.0  0.63453  0.35746  0.50598  1.0000
  C   C266      1.0  0.62021  0.36364  0.48132  1.0000
  C   C267      1.0  0.64648  0.36102  0.46017  1.0000
  C   C268      1.0  0.68747  0.35229  0.46415  1.0000
  C   C269      1.0  0.70191  0.34681  0.48884  1.0000
  H   H472      1.0  0.61380  0.35860  0.52191  1.0000
  H   H473      1.0  0.58846  0.37011  0.47855  1.0000
  H   H474      1.0  0.70820  0.35029  0.44823  1.0000
  H   H475      1.0  0.73373  0.34044  0.49158  1.0000
  H   H476      1.0  0.92690  0.41922  0.63990  1.0000
  H   H477      1.0  0.94430  0.44210  0.61027  1.0000
  H   H478      1.0  0.63947  0.16853  0.36378  1.0000
  C   C270      1.0  0.60289  0.44562  0.54710  1.0000
  H   H479      1.0  0.54365  0.41437  0.58260  1.0000
  H   H480      1.0  0.78053  0.27985  0.61731  1.0000
  C   C271      1.0  0.79817  0.46230  0.59036  1.0000
  C   C272      1.0  0.81615  0.39549  0.54131  1.0000
  C   C273      1.0  0.67080  0.17278  0.37056  1.0000
  H   H481      1.0  0.70463  0.22774  0.33576  1.0000
  H   H482      1.0  0.55877  0.15561  0.33912  1.0000
  Fe  Fe36      1.0  0.70350  0.35510  0.34105  1.0000
  C   C274      1.0  0.54969  0.45422  0.40544  1.0000
  H   H483      1.0  0.60701  0.43371  0.52787  1.0000
  H   H484      1.0  0.67411  0.20518  0.37743  1.0000
  H   H485      1.0  0.77094  0.40318  0.58061  1.0000
  H   H486      1.0  0.51118  0.31043  0.37745  1.0000
  C   C275      1.0  0.49418  0.34611  0.59154  1.0000
  H   H487      1.0  0.73230  0.16566  0.35775  1.0000
  C   C276      1.0  0.93804  0.41219  0.62060  1.0000
  H   H488      1.0  0.86872  0.42061  0.55855  1.0000
  S   S65       1.0  0.59676  0.46507  0.61963  1.0000
  C   C277      1.0  0.51250  0.44277  0.34198  1.0000
  H   H489      1.0  0.57636  0.43528  0.39942  1.0000
  H   H490      1.0  0.52321  0.17974  0.63709  1.0000
  C   C278      1.0  0.51203  0.38646  0.41496  1.0000
  S   S66       1.0  0.59372  0.23791  0.33887  1.0000
  H   H491      1.0  0.81899  0.25892  0.59631  1.0000
  H   H492      1.0  0.80377  0.31458  0.56484  1.0000
  H   H493      1.0  0.52499  0.28460  0.32503  1.0000
  H   H494      1.0  0.49982  0.44420  0.43306  1.0000
  H   H495      1.0  0.67548  0.15056  0.38653  1.0000
  H   H496      1.0  0.54741  0.41932  0.44118  1.0000
  H   H497      1.0  0.87276  0.44199  0.59903  1.0000
  N   N15       1.0  0.83406  0.39032  0.58892  1.0000
  C   C279      1.0  0.79496  0.41393  0.59319  1.0000
  C   C280      1.0  0.82835  0.34539  0.59760  1.0000
  C   C281      1.0  0.86566  0.40940  0.60541  1.0000
  C   C282      1.0  0.84894  0.39270  0.56188  1.0000
  C   C283      1.0  0.52684  0.42760  0.42569  1.0000
  H   H498      1.0  0.81060  0.39187  0.50093  1.0000
  C   C284      1.0  0.90684  0.38616  0.60690  1.0000
  C   C285      1.0  0.79507  0.31993  0.58472  1.0000
  C   C286      1.0  0.83461  0.38871  0.51518  1.0000
  H   H499      1.0  0.80182  0.42691  0.54113  1.0000
  C   C287      1.0  0.54280  0.17569  0.65299  1.0000
  C   C288      1.0  0.79013  0.27676  0.59731  1.0000
  H   H500      1.0  0.78256  0.40691  0.61238  1.0000
  N   N16       1.0  0.52388  0.44238  0.54750  1.0000
  H   H501      1.0  0.85669  0.32720  0.59461  1.0000
  H   H502      1.0  0.82196  0.34411  0.61823  1.0000
  H   H503      1.0  0.85370  0.41180  0.62502  1.0000
  C   C289      1.0  0.62180  0.48554  0.47597  1.0000
  H   H504      1.0  0.85858  0.41230  0.51079  1.0000
  H   H505      1.0  0.86884  0.36543  0.55775  1.0000
  H   H506      1.0  0.84772  0.35678  0.51394  1.0000
  H   H507      1.0  0.53824  0.36703  0.40896  1.0000
  H   H508      1.0  0.69625  0.13187  0.34326  1.0000
  H   H509      1.0  0.56138  0.48403  0.56859  1.0000
  H   H510      1.0  0.96689  0.39449  0.62209  1.0000
  C   C290      1.0  0.63855  0.47477  0.55181  1.0000
  H   H511      1.0  0.76517  0.33565  0.58569  1.0000
  S   S67       1.0  0.63868  0.35720  0.65248  1.0000
  H   H512      1.0  0.51009  0.25673  0.36739  1.0000
  H   H513      1.0  0.66743  0.45734  0.54915  1.0000
  H   H514      1.0  0.61581  0.46647  0.42804  1.0000
  H   H515      1.0  0.79154  0.37234  0.54430  1.0000
  H   H516      1.0  0.76648  0.25884  0.58758  1.0000
  H   H517      1.0  0.73849  0.47673  0.60610  1.0000
  H   H518      1.0  0.50929  0.32217  0.57977  1.0000
  H   H519      1.0  0.76792  0.44530  0.65259  1.0000
  H   H520      1.0  0.90327  0.35627  0.61772  1.0000
  C   C291      1.0  0.70171  0.16419  0.34954  1.0000
  H   H521      1.0  0.51849  0.33769  0.33200  1.0000
  C   C292      1.0  0.54485  0.47854  0.62136  1.0000
  H   H522      1.0  0.81301  0.47529  0.60705  1.0000
  H   H523      1.0  0.63339  0.45345  0.47260  1.0000
  C   C293      1.0  0.52679  0.40537  0.56561  1.0000
  H   H524      1.0  0.51348  0.35272  0.60785  1.0000
  C   C294      1.0  0.52238  0.42807  0.52076  1.0000
  C   C295      1.0  0.53917  0.46840  0.32797  1.0000
  H   H525      1.0  0.54920  0.40833  0.51625  1.0000
  H   H526      1.0  0.73984  0.47083  0.57229  1.0000
  C   C296      1.0  0.75650  0.48285  0.58856  1.0000
  C   C297      1.0  0.56162  0.46878  0.54999  1.0000
  H   H527      1.0  0.61301  0.48789  0.49606  1.0000
  H   H528      1.0  0.52479  0.45529  0.50749  1.0000
  C   C298      1.0  0.69789  0.19674  0.32770  1.0000
  H   H529      1.0  0.49458  0.36852  0.42959  1.0000
  H   H530      1.0  0.60978  0.47021  0.36904  1.0000
  H   H531      1.0  0.63724  0.48618  0.57135  1.0000
  H   H532      1.0  0.51212  0.38009  0.47862  1.0000
  S   S68       1.0  0.76162  0.35299  0.65705  1.0000
  H   H533      1.0  0.77620  0.16862  0.32568  1.0000
  S   S69       1.0  0.76890  0.34978  0.32520  1.0000
  H   H534      1.0  0.73647  0.01175  0.73107  1.0000
  C   C299      1.0  0.59512  0.06894  0.79280  1.0000
  Fe  Fe37      1.0  0.95912  0.48841  0.70986  1.0000
  H   H535      1.0  0.66286  0.11761  0.68089  1.0000
  C   C300      1.0  0.90860  0.46560  0.81023  1.0000
  Fe  Fe38      1.0  0.51683  0.03352  0.72125  1.0000
  S   S70       1.0  0.50888  0.02320  0.76299  1.0000
  S   S71       1.0  0.55521  0.09288  0.71256  1.0000
  H   H536      1.0  0.65559  0.01884  0.78101  1.0000
  C   C301      1.0  0.79489  0.43343  0.66147  1.0000
  H   H537      1.0  0.52114  0.16313  0.73973  1.0000
  C   C302      1.0  0.86153  0.44682  0.67987  1.0000
  C   C303      1.0  0.86514  0.40384  0.68498  1.0000
  H   H538      1.0  0.56465  0.08344  0.79130  1.0000
  H   H539      1.0  0.72771  0.05682  0.70041  1.0000
  H   H540      1.0  0.89203  0.39203  0.69399  1.0000
  C   C304      1.0  0.79879  0.39036  0.66626  1.0000
  H   H541      1.0  0.57018  0.22590  0.73165  1.0000
  H   H542      1.0  0.61218  0.16092  0.71004  1.0000
  C   C305      1.0  0.56195  0.13510  0.69022  1.0000
  C   C306      1.0  0.59280  0.16468  0.69403  1.0000
  C   C307      1.0  0.59888  0.19930  0.67737  1.0000
  C   C308      1.0  0.53707  0.14078  0.66945  1.0000
  H   H543      1.0  0.55120  0.27102  0.71489  1.0000
  H   H544      1.0  0.73773  0.05171  0.75323  1.0000
  C   C309      1.0  0.69465  0.10779  0.68416  1.0000
  H   H545      1.0  0.72339  0.00533  0.78815  1.0000
  C   C310      1.0  0.72068  0.02308  0.74817  1.0000
  H   H546      1.0  0.64379  0.08068  0.72178  1.0000
  H   H547      1.0  0.96514  0.11989  0.86757  1.0000
  C   C311      1.0  0.94960  0.47925  0.82018  1.0000
  H   H548      1.0  0.92932  0.09605  0.88986  1.0000
  H   H549      1.0  0.62740  0.01024  0.72154  1.0000
  H   H550      1.0  0.71066  0.13291  0.69412  1.0000
  H   H551      1.0  0.51334  0.11839  0.66605  1.0000
  H   H552      1.0  0.67839  0.04349  0.68843  1.0000
  C   C312      1.0  0.69558  0.06660  0.69924  1.0000
  H   H553      1.0  0.59448  0.04409  0.75555  1.0000
  H   H554      1.0  0.61461  0.09637  0.75774  1.0000
  C   C313      1.0  0.65324  0.99798  0.73267  1.0000
  C   C314      1.0  0.95799  0.09127  0.87901  1.0000
  H   H555      1.0  0.68981  0.09911  0.73454  1.0000
  C   C315      1.0  0.67568  0.07162  0.72556  1.0000
  H   H556      1.0  0.83761  0.34279  0.68202  1.0000
  H   H557      1.0  0.95356  0.06493  0.86604  1.0000
  C   C316      1.0  0.83413  0.37593  0.67813  1.0000
  H   H558      1.0  0.97217  0.47713  0.80464  1.0000
  H   H559      1.0  0.98506  0.05132  0.90681  1.0000
  H   H560      1.0  0.59153  0.03772  0.80214  1.0000
  H   H561      1.0  0.95849  0.05564  0.94526  1.0000
  C   C317      1.0  0.54388  0.24738  0.72989  1.0000
  C   C318      1.0  0.61415  0.06461  0.76657  1.0000
  N   N17       1.0  0.67699  0.03396  0.74315  1.0000
  H   H562      1.0  0.97899  0.01497  0.81119  1.0000
  H   H563      1.0  0.67674  0.06997  0.77726  1.0000
  H   H564      1.0  0.97182  0.12943  0.92179  1.0000
  H   H565      1.0  0.53899  0.26382  0.74786  1.0000
  C   C319      1.0  0.65762  0.04641  0.76788  1.0000
  H   H566      1.0  0.49991  0.13931  0.78737  1.0000
  H   H567      1.0  0.61417  0.08909  0.80453  1.0000
  S   S72       1.0  0.90057  0.48369  0.68674  1.0000
  H   H568      1.0  0.92556  0.99884  0.90269  1.0000
  C   C320      1.0  0.98454  0.05254  0.95803  1.0000
  H   H569      1.0  0.88546  0.46402  0.82565  1.0000
  H   H570      1.0  0.91158  0.43404  0.80201  1.0000
  H   H571      1.0  0.62271  0.22165  0.68065  1.0000
  H   H572      1.0  0.95741  0.45655  0.83534  1.0000
  C   C321      1.0  0.82617  0.46126  0.66799  1.0000
  H   H573      1.0  0.98326  0.11816  0.96433  1.0000
  H   H574      1.0  0.51144  0.21061  0.70399  1.0000
  H   H575      1.0  0.79316  0.99635  0.76897  1.0000
  H   H576      1.0  0.89809  0.48766  0.79536  1.0000
  H   H577      1.0  0.70983  0.10363  0.66558  1.0000
  H   H578      1.0  0.50112  0.19992  0.76116  1.0000
  C   C322      1.0  0.50585  0.22320  0.72301  1.0000
  C   C323      1.0  0.96750  0.03932  0.98391  1.0000
  H   H579      1.0  0.94919  0.01042  0.98245  1.0000
  C   C324      1.0  0.49676  0.18697  0.74218  1.0000
  Fe  Fe39      1.0  0.86062  0.82328  0.07420  1.0000
  S   S73       1.0  0.84760  0.89078  0.08028  1.0000
  S   S74       1.0  0.85726  0.79263  0.03566  1.0000
  Fe  Fe40      1.0  0.88403  0.80873  0.12955  1.0000
  S   S75       1.0  0.87233  0.87711  0.13867  1.0000
  S   S76       1.0  0.90781  0.76664  0.16199  1.0000
  Fe  Fe41      1.0  0.81517  0.87092  0.11636  1.0000
  S   S77       1.0  0.75419  0.90598  0.12117  1.0000
  Fe  Fe42      1.0  0.90502  0.89202  0.10208  1.0000
  C   C325      1.0  0.94909  0.64677  0.15013  1.0000
  S   S78       1.0  0.82498  0.80210  0.10906  1.0000
  S   S79       1.0  0.92003  0.82476  0.09426  1.0000
  Fe  Fe43      1.0  0.55499  0.96639  0.21542  1.0000
  C   C326      1.0  0.70275  0.88989  0.99301  1.0000
  S   S80       1.0  0.60879  0.92419  0.20315  1.0000
  C   C327      1.0  0.96561  0.88257  0.00316  1.0000
  H   H580      1.0  0.74057  0.77588  0.09081  1.0000
  H   H581      1.0  0.78456  0.88382  0.04244  1.0000
  C   C328      1.0  0.71840  0.83997  0.05819  1.0000
  H   H582      1.0  0.91477  0.90467  0.02625  1.0000
  H   H583      1.0  0.71782  0.75172  0.06405  1.0000
  C   C329      1.0  0.67490  0.91985  0.07189  1.0000
  C   C330      1.0  0.71502  0.91136  0.14481  1.0000
  C   C331      1.0  0.71154  0.88451  0.16585  1.0000
  C   C332      1.0  0.67904  0.88912  0.18337  1.0000
  C   C333      1.0  0.64964  0.92085  0.18043  1.0000
  C   C334      1.0  0.65336  0.94795  0.15950  1.0000
  C   C335      1.0  0.68562  0.94306  0.14183  1.0000
  H   H584      1.0  0.73360  0.85988  0.16851  1.0000
  H   H585      1.0  0.67664  0.86788  0.19939  1.0000
  H   H586      1.0  0.77152  0.74670  0.06904  1.0000
  H   H587      1.0  0.91403  0.59126  0.27931  1.0000
  C   C336      1.0  0.92826  0.71493  0.16586  1.0000
  C   C337      1.0  0.94124  0.70165  0.18980  1.0000
  H   H588      1.0  0.94439  0.88700  0.21273  1.0000
  C   C338      1.0  0.96187  0.63338  0.17408  1.0000
  H   H589      1.0  0.96466  0.82209  0.19131  1.0000
  C   C339      1.0  0.93239  0.68710  0.14602  1.0000
  H   H590      1.0  0.51722  0.84822  0.22876  1.0000
  H   H591      1.0  0.92236  0.51736  0.16522  1.0000
  H   H592      1.0  0.54727  0.52909  0.31018  1.0000
  H   H593      1.0  0.92277  0.69662  0.12747  1.0000
  H   H594      1.0  0.68908  0.82303  0.05641  1.0000
  C   C340      1.0  0.85005  0.81597  0.00539  1.0000
  C   C341      1.0  0.84368  0.85895  0.00190  1.0000
  H   H595      1.0  0.92063  0.88324  0.18284  1.0000
  H   H596      1.0  0.84388  0.87916  0.01788  1.0000
  C   C342      1.0  0.81521  0.65840  0.21061  1.0000
  C   C343      1.0  0.81884  0.69865  0.19474  1.0000
  H   H597      1.0  0.78281  0.64899  0.21114  1.0000
  H   H598      1.0  0.82415  0.66591  0.22994  1.0000
  H   H599      1.0  0.81051  0.69311  0.17499  1.0000
  H   H600      1.0  0.79826  0.72289  0.20249  1.0000
  H   H601      1.0  0.85032  0.71088  0.19503  1.0000
  C   C344      1.0  0.72176  0.86198  0.01388  1.0000
  C   C345      1.0  0.86194  0.53977  0.17546  1.0000
  S   S81       1.0  0.98370  0.58224  0.17778  1.0000
  H   H602      1.0  0.75801  0.90935  0.06661  1.0000
  C   C346      1.0  0.79888  0.96890  0.04088  1.0000
  C   C347      1.0  0.84178  0.62312  0.19932  1.0000
  C   C348      1.0  0.80206  0.56408  0.21680  1.0000
  C   C349      1.0  0.76298  0.94417  0.03120  1.0000
  H   H603      1.0  0.70581  0.83134  0.01262  1.0000
  H   H604      1.0  0.90371  0.56896  0.19987  1.0000
  H   H605      1.0  0.87277  0.63563  0.19520  1.0000
  H   H606      1.0  0.65441  0.88234  0.04111  1.0000
  H   H607      1.0  0.89338  0.64947  0.23467  1.0000
  N   N18       1.0  0.71967  0.87765  0.04056  1.0000
  S   S82       1.0  0.94937  0.94274  0.08826  1.0000
  C   C350      1.0  0.95798  0.66134  0.19388  1.0000
  H   H608      1.0  0.92299  0.60236  0.23289  1.0000
  C   C351      1.0  0.79981  0.51911  0.22836  1.0000
  C   C352      1.0  0.74511  0.76814  0.07072  1.0000
  H   H609      1.0  0.50567  0.84048  0.19611  1.0000
  H   H610      1.0  0.78215  0.82137  0.06116  1.0000
  N   N19       1.0  0.84389  0.58312  0.21475  1.0000
  H   H611      1.0  0.95219  0.62574  0.13455  1.0000
  C   C353      1.0  0.89737  0.61759  0.24283  1.0000
  H   H612      1.0  0.81306  0.51795  0.24729  1.0000
  H   H613      1.0  0.95879  0.88938  0.04340  1.0000
  H   H614      1.0  0.78186  0.58387  0.22861  1.0000
  C   C354      1.0  0.50539  0.82558  0.21514  1.0000
  H   H615      1.0  0.93791  0.64047  0.27101  1.0000
  H   H616      1.0  0.95898  0.93830  0.02602  1.0000
  H   H617      1.0  0.67908  0.92944  0.03198  1.0000
  C   C355      1.0  0.90922  0.62243  0.27020  1.0000
  H   H618      1.0  0.75385  0.85549  0.00819  1.0000
  C   C356      1.0  0.85825  0.59112  0.24094  1.0000
  H   H619      1.0  0.83409  0.60628  0.25246  1.0000
  H   H620      1.0  0.81634  0.49645  0.21643  1.0000
  C   C357      1.0  0.63571  0.94523  0.07376  1.0000
  C   C358      1.0  0.75696  0.90266  0.04623  1.0000
  H   H621      1.0  0.71984  0.84967  0.07810  1.0000
  H   H622      1.0  0.93856  0.72285  0.20531  1.0000
  H   H623      1.0  0.75759  0.79806  0.03515  1.0000
  H   H624      1.0  0.88521  0.63942  0.28077  1.0000
  H   H625      1.0  0.79444  0.97573  0.06113  1.0000
  H   H626      1.0  0.87903  0.52567  0.21419  1.0000
  C   C359      1.0  0.75328  0.80775  0.05488  1.0000
  H   H627      1.0  0.76988  0.93751  0.01122  1.0000
  H   H628      1.0  0.82910  0.61697  0.18057  1.0000
  H   H629      1.0  0.70017  0.94088  0.07676  1.0000
  H   H630      1.0  0.96864  0.65226  0.21225  1.0000
  H   H631      1.0  0.73592  0.96456  0.03262  1.0000
  S   S83       1.0  0.55195  0.98393  0.25645  1.0000
  H   H632      1.0  0.78744  0.56386  0.19816  1.0000
  H   H633      1.0  0.86440  0.56101  0.25093  1.0000
  H   H634      1.0  0.67252  0.89441  0.08631  1.0000
  C   C360      1.0  0.68118  0.90224  0.04511  1.0000
  H   H635      1.0  0.50388  0.84683  0.27857  1.0000
  C   C361      1.0  0.95007  0.88746  0.19211  1.0000
  H   H636      1.0  0.83082  0.52687  0.17514  1.0000
  H   H637      1.0  0.71208  0.92301  0.99400  1.0000
  C   C362      1.0  0.87350  0.55390  0.20211  1.0000
  S   S84       1.0  0.98719  0.54651  0.25162  1.0000
  H   H638      1.0  0.96239  0.83661  0.14752  1.0000
  H   H639      1.0  0.49683  0.77219  0.29209  1.0000
  H   H640      1.0  0.86409  0.56658  0.16191  1.0000
  H   H641      1.0  0.96311  0.91838  0.18648  1.0000
  H   H642      1.0  0.68793  0.96424  0.12580  1.0000
  H   H643      1.0  0.63165  0.95683  0.09317  1.0000
  C   C363      1.0  0.75598  0.50403  0.23112  1.0000
  H   H644      1.0  0.96387  0.95609  0.14175  1.0000
  H   H645      1.0  0.66913  0.88870  0.99483  1.0000
  H   H646      1.0  0.82754  0.95114  0.03823  1.0000
  H   H647      1.0  0.73831  0.52472  0.24378  1.0000
  H   H648      1.0  0.52605  0.79815  0.21484  1.0000
  H   H649      1.0  0.63120  0.97250  0.15685  1.0000
  C   C364      1.0  0.89058  0.50585  0.16590  1.0000
  C   C365      1.0  0.94843  0.90530  0.02596  1.0000
  H   H650      1.0  0.60914  0.92546  0.06948  1.0000
  H   H651      1.0  0.95605  0.84937  0.00527  1.0000
  H   H652      1.0  0.74142  0.50334  0.21252  1.0000
  C   C366      1.0  0.52697  0.50919  0.32127  1.0000
  C   C367      1.0  0.98540  0.97456  0.13070  1.0000
  C   C368      1.0  0.97916  0.85213  0.18523  1.0000
  H   H653      1.0  0.98864  0.88404  0.14915  1.0000
  H   H654      1.0  0.63692  0.97265  0.06062  1.0000
  C   C369      1.0  0.98882  0.85143  0.15654  1.0000
  H   H655      1.0  0.88219  0.49717  0.14661  1.0000
  C   C370      1.0  0.98437  0.97388  0.10449  1.0000
  S   S85       1.0  0.49185  0.93922  0.21681  1.0000
  H   H656      1.0  0.55570  0.52079  0.37455  1.0000
  C   C371      1.0  0.53313  0.51918  0.61397  1.0000
  H   H657      1.0  0.49386  0.80233  0.38537  1.0000
  H   H658      1.0  0.55591  0.54134  0.60733  1.0000
  H   H659      1.0  0.49470  0.70123  0.62097  1.0000
  H   H660      1.0  0.51559  0.50914  0.44093  1.0000
  H   H661      1.0  0.57325  0.52604  0.46503  1.0000
  C   C372      1.0  0.63357  0.52905  0.35560  1.0000
  C   C373      1.0  0.50116  0.67540  0.39893  1.0000
  C   C374      1.0  0.51531  0.63994  0.63425  1.0000
  C   C375      1.0  0.52777  0.52294  0.42308  1.0000
  H   H662      1.0  0.52159  0.67108  0.59781  1.0000
  H   H663      1.0  0.64212  0.49617  0.39049  1.0000
  C   C376      1.0  0.52062  0.67952  0.61793  1.0000
  N   N20       1.0  0.56271  0.49741  0.41282  1.0000
  H   H664      1.0  0.58550  0.55332  0.39370  1.0000
  H   H665      1.0  0.64399  0.55943  0.36287  1.0000
  H   H666      1.0  0.53871  0.55472  0.42790  1.0000
  C   C377      1.0  0.61727  0.50089  0.37703  1.0000
  H   H667      1.0  0.60987  0.53481  0.34143  1.0000
  C   C378      1.0  0.57879  0.52003  0.38949  1.0000
  H   H668      1.0  0.54092  0.61864  0.62983  1.0000
  H   H669      1.0  0.61781  0.52184  0.42884  1.0000
  H   H670      1.0  0.49929  0.54750  0.38852  1.0000
  H   H671      1.0  0.65964  0.51344  0.34615  1.0000
  C   C379      1.0  0.59676  0.49472  0.43149  1.0000
  H   H672      1.0  0.56239  0.49463  0.53572  1.0000
  H   H673      1.0  0.54931  0.69574  0.62233  1.0000
  H   H674      1.0  0.53416  0.66991  0.40104  1.0000
  C   C380      1.0  0.49204  0.53102  0.61451  1.0000
  H   H675      1.0  0.50744  0.53231  0.54179  1.0000
  C   C381      1.0  0.58498  0.49472  0.45983  1.0000
  H   H676      1.0  0.50677  0.73878  0.41137  1.0000
  H   H677      1.0  0.50947  0.73282  0.37798  1.0000
  H   H678      1.0  0.51191  0.87528  0.37369  1.0000
  H   H679      1.0  0.76011  0.51723  0.58607  1.0000
  C   C382      1.0  0.49323  0.72225  0.39548  1.0000
  H   H680      1.0  0.64645  0.50845  0.47174  1.0000
  H   H681      1.0  0.63851  0.50201  0.53856  1.0000
  Fe  Fe44      1.0  0.80767  0.85775  0.83212  1.0000
  S   S86       1.0  0.81275  0.80694  0.86189  1.0000
  S   S87       1.0  0.75702  0.85898  0.80280  1.0000
  Fe  Fe45      1.0  0.89581  0.88764  0.84160  1.0000
  S   S88       1.0  0.90684  0.83771  0.87119  1.0000
  S   S89       1.0  0.93793  0.93928  0.82603  1.0000
  Fe  Fe46      1.0  0.87496  0.79363  0.84516  1.0000
  S   S90       1.0  0.88601  0.72352  0.83814  1.0000
  Fe  Fe47      1.0  0.84409  0.85427  0.88568  1.0000
  S   S91       1.0  0.82978  0.87384  0.92629  1.0000
  S   S92       1.0  0.86862  0.84249  0.81463  1.0000
  S   S93       1.0  0.83456  0.90639  0.85690  1.0000
  H   H682      1.0  0.56533  0.59414  0.66750  1.0000
  H   H683      1.0  0.77401  0.95312  0.75108  1.0000
  H   H684      1.0  0.82287  0.49437  0.66392  1.0000
  C   C383      1.0  0.94264  0.58950  0.86874  1.0000
  H   H685      1.0  0.97891  0.95604  0.92192  1.0000
  C   C384      1.0  0.90251  0.76533  0.76442  1.0000
  C   C385      1.0  0.83789  0.85032  0.95640  1.0000
  C   C386      1.0  0.84471  0.80741  0.95983  1.0000
  H   H686      1.0  0.97883  0.50238  0.87221  1.0000
  H   H687      1.0  0.84498  0.78724  0.94377  1.0000
  C   C387      1.0  0.76976  0.97142  0.76843  1.0000
  H   H688      1.0  0.55198  0.49290  0.67548  1.0000
  H   H689      1.0  0.76120  0.86658  0.73549  1.0000
  H   H690      1.0  0.84649  0.72311  0.78748  1.0000
  C   C388      1.0  0.91646  0.69591  0.81591  1.0000
  C   C389      1.0  0.95372  0.71139  0.80684  1.0000
  Fe  Fe48      1.0  0.53545  0.95921  0.75750  1.0000
  C   C390      1.0  0.96451  0.64852  0.78175  1.0000
  C   C391      1.0  0.92717  0.63300  0.79075  1.0000
  C   C392      1.0  0.90361  0.65634  0.80797  1.0000
  H   H691      1.0  0.96436  0.74143  0.81299  1.0000
  H   H692      1.0  0.86102  0.62099  0.72817  1.0000
  H   H693      1.0  0.91658  0.60297  0.78456  1.0000
  H   H694      1.0  0.87509  0.64373  0.81506  1.0000
  C   C393      1.0  0.70877  0.88372  0.79923  1.0000
  C   C394      1.0  0.68605  0.87522  0.77779  1.0000
  C   C395      1.0  0.64797  0.89429  0.77380  1.0000
  C   C396      1.0  0.63184  0.92210  0.79132  1.0000
  C   C397      1.0  0.65452  0.93057  0.81278  1.0000
  C   C398      1.0  0.69273  0.91168  0.81670  1.0000
  H   H695      1.0  0.69779  0.85336  0.76428  1.0000
  H   H696      1.0  0.63079  0.88689  0.75743  1.0000
  C   C399      1.0  0.53626  0.58025  0.67476  1.0000
  H   H697      1.0  0.70964  0.91862  0.83328  1.0000
  N   N21       1.0  0.96427  0.88254  0.95425  1.0000
  C   C400      1.0  0.94052  0.90211  0.93309  1.0000
  H   H698      1.0  0.66618  0.91378  0.69205  1.0000
  H   H699      1.0  0.88716  0.96146  0.91253  1.0000
  H   H700      1.0  0.92234  0.75669  0.95218  1.0000
  H   H701      1.0  0.93644  0.74902  0.91976  1.0000
  C   C401      1.0  0.95515  0.83612  0.95674  1.0000
  C   C402      1.0  0.57219  0.51259  0.68678  1.0000
  H   H702      1.0  0.93900  0.65762  0.86596  1.0000
  H   H703      1.0  0.59872  0.52250  0.67491  1.0000
  C   C403      1.0  0.83702  0.87584  0.97764  1.0000
  C   C404      1.0  0.94222  0.63266  0.88061  1.0000
  H   H704      1.0  0.62760  0.92084  0.71601  1.0000
  H   H705      1.0  0.90765  0.89710  0.93683  1.0000
  H   H706      1.0  0.94694  0.88671  0.91499  1.0000
  H   H707      1.0  0.97056  0.63796  0.89098  1.0000
  H   H708      1.0  0.91609  0.63494  0.89400  1.0000
  H   H709      1.0  0.56949  0.56752  0.70930  1.0000
  C   C405      1.0  0.91960  0.96521  0.90686  1.0000
  C   C406      1.0  0.51190  0.63047  0.70677  1.0000
  C   C407      1.0  0.94732  0.52403  0.83053  1.0000
  N   N22       1.0  0.50578  0.61429  0.68067  1.0000
  H   H710      1.0  0.64239  0.95188  0.82654  1.0000
  C   C408      1.0  0.64840  0.93746  0.70254  1.0000
  S   S94       1.0  0.54496  0.96991  0.71588  1.0000
  H   H711      1.0  0.83163  0.90907  0.97527  1.0000
  C   C409      1.0  0.98013  0.96511  0.83903  1.0000
  H   H712      1.0  0.63019  0.95591  0.68892  1.0000
  H   H713      1.0  0.93388  0.54488  0.81584  1.0000
  C   C410      1.0  0.85047  0.79037  0.98418  1.0000
  S   S95       1.0  0.58382  0.94720  0.78754  1.0000
  C   C411      1.0  0.95033  0.90291  0.97831  1.0000
  C   C412      1.0  0.94705  0.94956  0.92787  1.0000
  C   C413      1.0  0.72723  0.99030  0.76962  1.0000
  H   H714      1.0  0.70489  0.96459  0.76887  1.0000
  C   C414      1.0  0.67708  0.96610  0.71638  1.0000
  H   H715      1.0  0.54247  0.66651  0.66685  1.0000
  H   H716      1.0  0.94739  0.77894  0.73474  1.0000
  H   H717      1.0  0.96902  0.60736  0.83268  1.0000
  H   H718      1.0  0.99022  0.92009  0.86874  1.0000
  C   C415      1.0  0.75793  0.84219  0.72108  1.0000
  H   H719      1.0  0.93841  0.82148  0.75622  1.0000
  C   C416      1.0  0.82117  0.72124  0.73725  1.0000
  H   H720      1.0  0.78771  0.78682  0.70815  1.0000
  H   H721      1.0  0.50848  0.60528  0.72123  1.0000
  H   H722      1.0  0.72789  0.82682  0.72366  1.0000
  H   H723      1.0  0.75916  0.85769  0.70224  1.0000
  H   H724      1.0  0.76127  0.77233  0.75137  1.0000
  C   C417      1.0  0.79201  0.80993  0.72312  1.0000
  H   H725      1.0  0.79116  0.81310  0.76365  1.0000
  H   H726      1.0  0.75532  0.74375  0.78887  1.0000
  C   C418      1.0  0.79127  0.78803  0.74944  1.0000
  H   H727      1.0  0.82096  0.82675  0.71932  1.0000
  C   C419      1.0  0.94117  0.78698  0.75463  1.0000
  H   H728      1.0  0.90712  0.73124  0.76328  1.0000
  H   H729      1.0  0.58325  0.49319  0.70275  1.0000
  C   C420      1.0  0.83860  0.64662  0.72559  1.0000
  H   H730      1.0  0.85164  0.67319  0.76094  1.0000
  H   H731      1.0  0.78962  0.70890  0.73813  1.0000
  H   H732      1.0  0.91571  0.82164  0.92560  1.0000
  C   C421      1.0  0.85077  0.68413  0.74111  1.0000
  H   H733      1.0  0.75351  0.69148  0.82290  1.0000
  H   H734      1.0  0.80829  0.63473  0.73176  1.0000
  H   H735      1.0  0.88171  0.69330  0.73458  1.0000
  C   C422      1.0  0.78290  0.70618  0.81731  1.0000
  C   C423      1.0  0.78137  0.72187  0.79006  1.0000
  H   H736      1.0  0.87312  0.78040  0.72936  1.0000
  C   C424      1.0  0.97750  0.68784  0.78991  1.0000
  H   H737      1.0  0.82588  0.73185  0.71741  1.0000
  C   C425      1.0  0.86498  0.78054  0.74975  1.0000
  H   H738      1.0  0.83805  0.65529  0.70530  1.0000
  H   H739      1.0  0.77556  0.69442  0.77829  1.0000
  H   H740      1.0  0.86176  0.81418  0.75471  1.0000
  N   N23       1.0  0.82533  0.75760  0.75465  1.0000
  H   H741      1.0  0.82451  0.77195  0.79409  1.0000
  C   C426      1.0  0.82145  0.74420  0.78196  1.0000
  C   C427      1.0  0.71462  0.87446  0.96690  1.0000
  H   H742      1.0  0.80727  0.68252  0.81960  1.0000
  H   H743      1.0  0.78855  0.73257  0.83001  1.0000
  H   H744      1.0  0.89876  0.77297  0.78455  1.0000
  C   C428      1.0  0.54909  0.55056  0.69663  1.0000
  H   H745      1.0  0.69629  0.94586  0.72842  1.0000
  C   C429      1.0  0.97711  0.58612  0.84864  1.0000
  N   N24       1.0  0.98650  0.54268  0.83932  1.0000
  H   H746      1.0  0.69952  0.89394  0.95234  1.0000
  H   H747      1.0  0.52252  0.68871  0.74446  1.0000
  H   H748      1.0  0.52299  0.53883  0.70804  1.0000
  H   H749      1.0  0.94610  0.56551  0.88389  1.0000
  H   H750      1.0  0.92521  0.94754  0.88939  1.0000
  H   H751      1.0  0.91268  0.58540  0.85995  1.0000
  H   H752      1.0  0.96004  0.93614  0.97856  1.0000
  H   H753      1.0  0.96731  0.77639  0.76593  1.0000
  H   H754      1.0  0.92751  0.83080  0.96878  1.0000
  H   H755      1.0  0.77393  0.94994  0.78484  1.0000
  H   H756      1.0  0.91659  0.90333  0.97958  1.0000
  C   C430      1.0  0.94606  0.81224  0.93241  1.0000
  H   H757      1.0  0.97535  0.75341  0.94286  1.0000
  H   H758      1.0  0.74793  0.87693  0.96367  1.0000
  H   H759      1.0  0.98011  0.81955  0.96662  1.0000
  H   H760      1.0  0.93947  0.96811  0.94463  1.0000
  H   H761      1.0  0.70522  0.84138  0.96469  1.0000
  C   C431      1.0  0.94505  0.76495  0.93721  1.0000
  H   H762      1.0  0.54372  0.64167  0.70848  1.0000
  H   H763      1.0  0.96853  0.81881  0.91717  1.0000
  H   H764      1.0  0.85523  0.75705  0.98661  1.0000
  H   H765      1.0  0.63852  0.97900  0.74803  1.0000
  H   H766      1.0  0.69721  0.98151  0.70216  1.0000
  H   H767      1.0  0.92459  0.52184  0.84616  1.0000
  S   S96       1.0  0.95663  0.49891  0.75182  1.0000
  H   H768      1.0  0.52505  0.56066  0.65935  1.0000
  C   C432      1.0  0.51345  0.65057  0.66252  1.0000
