data_image0
_chemical_formula_structural       HFeS2FeS2FeSFeS2FeS2FeSHFe2S3HFeS2FeHSFeSHS2H2C2H2SFeC2HCHCH5CHC3HCH7C6H4C6H4C6H6CHC3H2C5HNC8HFeHCH3CH5NH4C3H4C2H11CHCHC2HCH3CH4CHCH3NCHC4H3CH5CH2CNH3CHCH17C2HC3HC2H2CH3CH2C2H3C3H2C5H2CHC2HCH4CH2CNCHC2HCHSH2CH4CH9CH4C2H6CH3CH4CHSCNHNC3H6CNH10CHCH2CHCH3SHCH3C3HC2SH4CH4CH2C2H2C3H5CHC2HC2H3CH5FeS2CFeSFeCS2HSFeSHFe2SHSFeS2FeS2FeSFeS3HCS2CHFeSHSH3SHSHSFeSHFeS2FeS2H2C3FeHSC7H4C6H4C6H4C6H4C6H4CH2CHCHCH2C2H7FeCHCH3C6H6S2H3FeCH6C5HSCHCH2FeCSH2CHCH2SCHFeNH2CHCH2NFeH2C2H3NC12H17C2H13SHC2HCH2SFeH3C3SCHCH3SH2C2H3C2H4CHCH4NHC9H8SCH7SH4NC12H29CH2N2C11H26CH2NC12H12CH7CH2C2H2CH3SHFeH6SH2CH6C3H2C2H7CH3C2FeS2HSFeSFeS3FeS2FeS2FeCFeS3FeS2CHFeS2FeSH2CHFeS2FeHSFeSHS3FeS2FeSFeS3CH4CHC6HCH4CFeC7H4C2H3C6H4C6H4C6H4CH3C3HFeHCH2C3H3C3HCH3CH2CH3CHCH5CHFeH3NHCNCHC2H3CH2CH3CH2CH3C2HCH2C2H2CH2C2H2CSH6FeH3NHCH3CHC2H4FeH4SHCH2C2H4CH3CHCH2SHCHC2SH3NC8HC3H26CH2CH6C2SH2CNCHC4HNH2CH3CH10CH3SHC2HFeHCH2NC11H25C2FeC2H2CHC4HCHC2HCNH4CH2CH3C2HC2HCH4SHCH2CH2CH3C2H4CH2CH2SHCH2C2H6SH5CH3SH3CH6CHCHFeH5C2H2C3H3CHC2FeS2FeS2FeSFeS3H3FeHSHCHSFeSHFeS2FeSFeS3FeS2H6C4H2CHCHCHC6H6CH4C6H4C2NHC2H4C3H2CH2CHC6H7CH3C3H5CH7CH3C3H2CH2C3H4CH5CH6CH3CHC2H2CH5C2H2C3H3CH2CHFeH2CH2SH3C3HC3HC2H2NSH3NC10H22CH3C2H3CHCHC3H12CH4CH4CH3C2HC3H3CH8C2HCH3SCH2CH4CH3CHNH6NC3H2SCHC2H2C2HCHNCHNCHNC11H18SHCSH3CHCH2FeH2FeHCH2C2H2SC3H2FeHSH4C3S2HFeSHFeSHFeSFeS3FeS2FeS2Fe2S3FeS2FeS2FeSFeS3FeCH2CHCHC6H4C3HC5H2C6H4C7H7C6H4CHC2HCHC3H6CHCHNC4HC3H2C2H2CH5C2H9CHCH6CH2SH6C3H4CH2CH2CHFeCHCH2CH3CH4C2HCH2NCH2CHC2HC4SCHCH7C2HC4H5CH2CH10CH3CHNH2CH2CH7CH4CHCSH3CH4CH4CH2NC11H13C2H3C2H6NH6CH4CH3C2NH8SH16CH7NC12H10CH7CH3CH3CHSH5C2HCSFeSFeSHFe2S2FeS2FeS2FeSFeS3FeS2FeSFeSFeS3HFeCSHNSC2H4C2H2C2H4C5H3C6H4C6H4C6H4C2H3C6H4CH5CSHC4HC2HC2H5CH2NH3CHCH3CH2C2HCHCH2SC3NHC3H6C3HC2HCNH2FeH10CH4CH3C3H2C2H6CHC2H2CHCHCHCHCHC2HC2H2CH9C2H2NHC2H3NCHCH3SH6CNH4CHC2H3NC5HC4H10NHCH12NH3CHC3HC2HCH2CH3CH15CHC2H4CHCH8C2H4C2H4CH3C2H2CH4CH2C2H2CHCH2C2H5C2H4CHCHNH4C2H2CH3C2H3SC4FeS2FeS2FeSFeS3H3SCFeS2FeSFeS2HSHSFe2SHFeS2FeS2FeSFeS4H4C7H4C6H4CHC4H3C6H4C2HC5H2C6H4C6H4C6H4NC6HC5HCH15SH7CHNHCH2SC3H18CH6C2HCH2NH10NC10HCH35C3H2C2H5CHCH2C2HCSC3H5SC3H2CH2CH6NH2NH2CSHCH4CH2CHCH3C4H5C2H2C2HNC12H30SH2CHCSCHC2HC4H5CH8CH4CH4C2HCFeH6CSHC2H3C2H3FeS2FeSFeCFeS2FeS2FeS2FeSFeS3FeS2FeHFeS3HFeS2FeS2FeHFeHS2HC2H3CH4CH4CHCH2C3HCHC9H4C6H5C5H3C7H7CH3C3H2CH3CH2CHC2H3C2HCH3NHCH3CHCH2SCHCH6NCFeHCSCH2CH5CNC2HCNCH7CH5CH3CH5NHNH2C2H3CH9NC11H29C2H3CH4C2HCH8CH6CH3SCHC2H2CHCHCH2CH6C2H3CH2C3H4CSH6CHCHCH2CHCH3C3H2CHCH6CSHCH2CH2CHCH2CHFeS2HSFeSFeS3CFe2S2FeSFeS2CHCFeS2FeSFeS3FeS2FeS2FeSFeS3CHSH2FeS2C6HCH2C6H5C2HCH2CH4C6H5C4H2C2H4C6H6C4H2C5H4FeHC6H6C2H3SHFeHCH2SH2CHS2CHCHC2H3CH9NH2C4H4CH3CHC2H3CSHCSNH2CH9SHC2H4NCHCH2CH2CHC2H2CH6CH4CSHCSH2CH7CSCH2CH5CHC2H2C2HSHFeNC11H24C5H11CHFeHNH2C2HCHNC12H27NCHC4H2CHC2H13CH2C3H7CH8NC2H2CH8CH3CHCHCH3CFeC4HC2HC2H2CHC2HSCH3CH3CH2C2H5C4H4FeH3SC2H5CHFeS2FeS2FeSFeS4FeS2CH3FeSC2FeHSCH3FeS2H2SHSC2H3SCH2SH6CH4C6H2C2HC5H4SC6H4C5H2C6H4C6HCHCH2CH12CH2C2H3CH11NH2C11H15CH3CH3CHCHCHCHFeCH4C2NC3H2C4SCH8CH11FeH8S2H7CHSHCHSCHCFeCNCHC2HC2HC3H24NC2HC2NC2HC2H7CH3CFeCH4S2HCSH5CHCNC9H15CHC2H3CHCH2CHCH2NC6H11C2H3CH4CH2CH3C2HC2H2SH5CHNHCH2CH2C2FeS2HCH2SC2FeS2FeSCFeSFeS3FeCHSFeS3C2H2C6H4C6H4CH2CH2NHC6H4FeHC3H3CH7SH2CHCH10C2H2CHCH3CFeH2C2HSH2CH2CH4FeH2CH4CSH5CH2C2HNC3H4CH2CH4SNH5SCH2CSHCH2NC2HC2H2C3HC2H3SH6C2H10CH4NC11H19CH5C3HNC2H3C2H2CHC2H4CH2CH12CH2CHCH3NC6HC4H5CH8CH7FeC2H9CSCH7CHC2FeSFeS2FeSFeS3FeH2FeS2FeS2FeSFeS3HSHFeS2FeSHFeS3FeSHFeS2FeSFeS4C2SC6H5C2HC7H4C6H4C4H5C5H9CHC4HC12H4C4HCH7C2H3CH5CH4CHCH5CSCH2CH14CH3CHFeC2H2CH8CH4CHCHSNCH3C5H2CH2CHCHCSH3CH4C2H7CH9CHCH2CFeNHSHCH2CH2SH2CHNHCHCH4CHCH3CH2CHCH2NC12H18CH11N2HC2HCH2CHC3H11CHCHCHCSH3NC12H28NC11H2CHCH2CHCH4SH4C3H2FeCH3CH7FeS2FeSFeS2FeS4FeHFeS4FeS2FeS2FeSFeSFeS2FeS2FeSFeS2FeHSFeSNHS2FeCSFeS2C6H4C6H4C3H3C6H4CHC6H7NC6H4C4H2C6HCH2C6H4CH2CHC3H4CH2SH2C2H7CH13CHC2H5CH4CH2NH2CH5C2HSHCHFeCHCH2CHSC2H4NH6C2NC12H28C2H4SCNH3NC12H28CHNC6HC2H7CH5CHCSH7CH5FeHSFeCHCH11C2FeHSHCHC2H2C2H5CH3SH2CHCH5SH7CH4C4HC3SHC2HC3H3C2H3CHCH3CHCHCHCH4CHC2HSC2FeCSFeS2Fe2S4CFeS2FeS2FeSFeS3CH3SHC6H4C6H4C6H4C6H4C3HCSHCH4CH3FeC9H10CH3SH2CHCH3CHNC4HC4H2CH22CH9FeCH5CH2C6H3NH3C4HSC2HCHC2H3NC12H18C3H12SH2C2H3SH2CHCH2SCNH2CH4C3H3C2H2CH2N2H2SH2CHSCH3CH4CH7CHCH2C3H3C2H2CH2CH4C2H2CH2CH2CH2CH5C2H2NC3HFeH2C4H15SCH7CH5CH2NH3CHCHCH2CH2CH5C2HFeSFeS2FeHFeS3C2FeS2FeS2Fe2S4FeS2C3HFeSCSHCHC5H3CH2C6H3C6H4CH2NC6H5CHSHC6H18C2H2CSHC2H2CH4CH3C4HCHC2H2CH3NHC2HC2H4CH7C2HNC12H37CH7CH2CHNH3NH3FeCH4CH4CHNCHCHC2H3CH2CSCHCH2CHCSC4NCHC4HCHCHCH14CH2CH4CH10CH3C3HNC2HC6H11CH10SHCH3C2HCSH11CH2CH4C3HFeSFeS2H2SFeS2Fe2CFeSHFeS2FeS2FeSFeS4FeSCSHFeS2FeSCFeSFeHS2HS2HCH3FeC6H4C3H2CH5C6H4C6H4CHC4H3C2S3H4C3SH4C6H4C3H2CH4C6H5NC12H29CH3C2H3CH2CHNH4CNC5HC4HCH28NC4H13CHCFeSH7C2HSCHCH5CH5CH4SHCH2C2H2C3H4CSH2C3H5C2NH5CH2CH3CH4C2H2CHC2SCHC2H2C11H2NH3C2NH4CH3CHCH3FeH4CH2FeC3H3C2H4C2H2CH7CHSCH4CH5SHCH2C2H2C2H2C2H2C2HC4H7FeS2FeS2FeSFeS2NCFeS3HFeS2FeS2FeSFeS4FeS2FeS2FeSFeS3H2C6H4CHCH2CH3C2SC6H4C6H4C6H4C6H4C2HC4H2C4H5C3HC3H4CHCH9CH4CH3C3H7C2H10CHC2H2CH8CH4CH2NHNC2HC2H2C3HCH10CH4CH5CH2C2HNHSC2HCH2C4H2SCH3CHC2H4C3HC5H8CH5CHC3H10CFeH8C2H4CH2NC12H28NC8HC3H20CH6CHCH6SH5CNH5CHFeS2FeSFeHFeS2NHFeS2FeSFeHFeS3FeSFeHSCHFeS2HFeS2FeS2FeSFeS3H2C3H2CH2C6H4C6H8C2H4C2HC2H3C6H9CH4CHFeH2SNH4CH5C2H6CH3C2HNCHCHCH6SH2CH3CHC2HC2HCH2CHCH2C2HC3H4CHC2H5NC12H28CHSH2CHCH3CSHCH5CHCHCHCHCH7CH2CHSHC2NH5CHCH5C3NC10HCH5C4SH4CH2CHC2H2SH2CH2CH2CH8SC2H4CH2FeS2HFeSFeS2HFeS2FeS2FeSFeS3H3C2H2CFeS2FeS2FeSFeS2FeS2FeHFeHFeS3H3CH2SH3C6H7CHC6H3CH2CSH2CH2C6H4C6H4C3H2CH2CHC6H4C3H3NC4H3C2HCH5NCH2CH14CH3CNHC2H2SH3CHNCHCHCHC5H2CSH4C2H5C2H2CHNH4C2HCSCH2CH2CNC12H28FeC2H3CHC2H2CHCH2CH3C2H5CH3C3H4NC5HC4H19CH4CHCH5C2H2CHCH2CH4NH7C2H4CH2CH5C3H2C2HCHCH10CH3CHCH2CHCHCH3CH5CFeSCFeS2FeSFeS3H2C2HSH3S2FeS2FeSFeSFeS2FeS2FeS2FeSFeS3HC6H4C3H2C6H6C4H2C6H4C2H2C2HC2HCHFeC6H4C3HC2H5C2H3C2HNH3CH3CH3SH6CH4CNCH2CH3CH3CH2C2HCH2CH3CH5CH2NC12H26FeSH4CH3C2H7NC9H20CH2NC12H29CNC2HC3NC2H8C2H12CH3C3H2NC12H8CHCH3CH3CSH2CH4C5H3CHCH4CH5CH2SHCH2CHSH5C2H3CHCHC3SHCSCHCHFeHFeCHCFeS2FeS2FeCFeS3HFeH4S2HSCHC2HCH2NHC6H4C6H5C3HC2HCHC2H2CHC6H6C2H2CHCH2NC3HC2H2CNH2C2H4CH3CHC2H5FeH4CH2CH4C2H2CH3CHCH6CHC2HC2HFeH5CSHNCNH2C2H2C3H3CH2CH2CH5CHCH10CHCH3CHCHCHC2HCHCH4C2SHCHSH6CNHSH5CH3NHCFeHCH2SCH6CHC2H2CH2SHCFeH4C2H5CH2C2H9CH2CSH5CH4C2HCH2SH11CH3NHSH4CHCH3CH3CH4CH3CH6CHCH2SC3H2C2H2NC2H5CHCHCHCH3C3FeSHSHFeS2FeS2FeSFeS3FeHCFeSHFeSHSFeS2FeSFeSFeS3FeS2FeS2FeHFeS3FeS2FeHSC2H3CH3C6H5CH3C6H4C6H4C6H4C3H3CH2C2H2FeHC6H4CHCHC4H5C2H4C2HC4NCH7NH6C2HCH2NCHCHC2HCH3CH2CHSH2NCH2CNCHC2HC2SC2H6C2H3CHSCH2CHCH3C2HC2HCH2CH10C2H4CHCH4C4H9CHFeH5CH2CH2NHC2HC3H4CH2CHSC3HC2H3C6HCH12CH2C3HC2H3CFeH2CH12CH4CHCH6CHCH2SCSH3SCHCH6CH2CHCHC3H4CH2NH5CH2CH2CH2CH8CHC2H6CHCNCH13SHCHC2HCHNCHNH3CH3C3H7FeS2FeS2FeSFeS3FeS2FeS2FeSFeS3FeSFeS2FeSFeS3CSH2FeS2CFeS2FeS2FeCFeS3HCHC3H2C6H4C6H6CH6C3H2C6H4C6H5C2H2C6H4C2H7C6H4CHCH2CH5C2HC2HCH4SHCH2CSH2NCH4C3H3CH4CH3C2H2C2HCSH3CHCH3C2H2CH8CHCHCSCHCH2C3H3CH2CHCH5NC12H24CH3C6H4NC4H12CHSCH5FeH2CHCSCHNC11H25FeC2HNC12H29CH7NC2H2C2HCH4CHSHCHCH3C2H5CHCHC2NHNH3C2H9C2FeH2CH2NH2CH4C2H7CH2CHCH2CH2CH3CHCNH3FeS2FeS2FeS2FeSFeS3CH2C2H2FeSCSCHSCFeSHFe2HC3SFeS2CH2C2H2CH2C6H6C2NH5C6H4C6H3C6H5C6H6C3HCH4SH2CH3CH2SHCSFeCH5C2H3C2HCH5SN2C12H30NC12H21SH6SHNFeC9H13C2SHCHCH3CH8CH4NHCHCHCH3C2HCH2CH3CH2C2SHCFeH4CSH2CH2CHSHSHNCH2C3SHC2H5NC12H30FeCFeH2CHSCH5SCH3C2H4CHC2H3SHC2H5SH3CH4CH6
_chemical_formula_sum              "H6144 Fe384 S768 C3456 N192"
_cell_length_a       61.467
_cell_length_b       61.9321
_cell_length_c       97.3931
_cell_angle_alpha    78.9336
_cell_angle_beta     79.0659
_cell_angle_gamma    79.5062

_space_group_name_H-M_alt    "P 1"
_space_group_IT_number       1

loop_
  _space_group_symop_operation_xyz
  'x, y, z'

loop_
  _atom_site_type_symbol
  _atom_site_label
  _atom_site_symmetry_multiplicity
  _atom_site_fract_x
  _atom_site_fract_y
  _atom_site_fract_z
  _atom_site_occupancy
  H   H1        1.0  0.10360  0.27664  0.14730  1.0000
  Fe  Fe1       1.0  0.30755  0.12254  0.17207  1.0000
  S   S1        1.0  0.29370  0.09687  0.18946  1.0000
  S   S2        1.0  0.28488  0.15015  0.16059  1.0000
  Fe  Fe2       1.0  0.35608  0.10283  0.17435  1.0000
  S   S3        1.0  0.34562  0.07557  0.19205  1.0000
  S   S4        1.0  0.39360  0.10306  0.16711  1.0000
  Fe  Fe3       1.0  0.32003  0.07217  0.17890  1.0000
  S   S5        1.0  0.31593  0.03692  0.17636  1.0000
  Fe  Fe4       1.0  0.32033  0.10255  0.20097  1.0000
  S   S6        1.0  0.33234  0.09767  0.16067  1.0000
  S   S7        1.0  0.33233  0.12991  0.18404  1.0000
  Fe  Fe5       1.0  0.18512  0.23293  0.19341  1.0000
  S   S8        1.0  0.14986  0.23340  0.20531  1.0000
  S   S9        1.0  0.21100  0.20428  0.20087  1.0000
  Fe  Fe6       1.0  0.17408  0.27872  0.17630  1.0000
  S   S10       1.0  0.13858  0.28281  0.18734  1.0000
  H   H2        1.0  0.41620  0.22285  0.18324  1.0000
  Fe  Fe7       1.0  0.15278  0.26823  0.20739  1.0000
  Fe  Fe8       1.0  0.13878  0.24765  0.18420  1.0000
  S   S11       1.0  0.10711  0.24413  0.17613  1.0000
  S   S12       1.0  0.18851  0.26719  0.19651  1.0000
  S   S13       1.0  0.17393  0.24422  0.17215  1.0000
  H   H3        1.0  0.26401  0.27549  0.16140  1.0000
  Fe  Fe9       1.0  0.05207  0.17832  0.13260  1.0000
  S   S14       1.0  0.03228  0.21201  0.12680  1.0000
  S   S15       1.0  0.08013  0.17182  0.14607  1.0000
  Fe  Fe10      1.0  0.03123  0.15714  0.11230  1.0000
  H   H4        1.0  0.46251  0.14687  0.10609  1.0000
  S   S16       1.0  0.02868  0.12349  0.10649  1.0000
  Fe  Fe11      1.0  0.04188  0.20536  0.10443  1.0000
  S   S17       1.0  0.05992  0.22866  0.08679  1.0000
  H   H5        1.0  0.41463  0.16109  0.21915  1.0000
  S   S18       1.0  0.06274  0.17209  0.11011  1.0000
  S   S19       1.0  0.02237  0.16006  0.13553  1.0000
  H   H6        1.0  0.00783  0.25080  0.05468  1.0000
  H   H7        1.0  0.28481  0.05881  0.15639  1.0000
  C   C1        1.0  0.00278  0.00076  0.00161  1.0000
  C   C2        1.0  0.48428  0.26354  0.09210  1.0000
  H   H8        1.0  0.46726  0.26622  0.06094  1.0000
  H   H9        1.0  0.05674  0.28171  0.11393  1.0000
  S   S20       1.0  0.44003  0.18999  0.14548  1.0000
  Fe  Fe12      1.0  0.47697  0.18949  0.13597  1.0000
  C   C3        1.0  0.41585  0.20498  0.18323  1.0000
  C   C4        1.0  0.03170  0.29234  0.09080  1.0000
  H   H10       1.0  0.02571  0.06857  0.05668  1.0000
  C   C5        1.0  0.13622  0.13097  0.17444  1.0000
  H   H11       1.0  0.41288  0.16333  0.19661  1.0000
  C   C6        1.0  0.18448  0.18072  0.16528  1.0000
  H   H12       1.0  0.08867  0.05856  0.04510  1.0000
  H   H13       1.0  0.01327  0.08416  0.10295  1.0000
  H   H14       1.0  0.16656  0.17876  0.16764  1.0000
  H   H15       1.0  0.03370  0.05457  0.07975  1.0000
  H   H16       1.0  0.47119  0.08133  0.14933  1.0000
  C   C7        1.0  0.42454  0.29506  0.05187  1.0000
  H   H17       1.0  0.07449  0.08952  0.05617  1.0000
  C   C8        1.0  0.07239  0.27009  0.07881  1.0000
  C   C9        1.0  0.05551  0.25776  0.08624  1.0000
  C   C10       1.0  0.03522  0.26895  0.09237  1.0000
  H   H18       1.0  0.21022  0.30807  0.20991  1.0000
  C   C11       1.0  0.10156  0.28470  0.10973  1.0000
  H   H19       1.0  0.08808  0.26153  0.07397  1.0000
  H   H20       1.0  0.01983  0.98897  0.98251  1.0000
  H   H21       1.0  0.07937  0.10436  0.09052  1.0000
  H   H22       1.0  0.42408  0.16679  0.10383  1.0000
  H   H23       1.0  0.18816  0.18859  0.17374  1.0000
  H   H24       1.0  0.47120  0.06905  0.08893  1.0000
  H   H25       1.0  0.01718  0.10475  0.13526  1.0000
  C   C12       1.0  0.08758  0.19219  0.15425  1.0000
  C   C13       1.0  0.07229  0.21082  0.15759  1.0000
  C   C14       1.0  0.07854  0.22632  0.16444  1.0000
  C   C15       1.0  0.10022  0.22363  0.16783  1.0000
  C   C16       1.0  0.11564  0.20514  0.16434  1.0000
  C   C17       1.0  0.10929  0.18942  0.15768  1.0000
  H   H26       1.0  0.05550  0.21310  0.15513  1.0000
  H   H27       1.0  0.06644  0.24051  0.16713  1.0000
  H   H28       1.0  0.13234  0.20296  0.16686  1.0000
  H   H29       1.0  0.12126  0.17512  0.15508  1.0000
  C   C18       1.0  0.26598  0.16697  0.17162  1.0000
  C   C19       1.0  0.26551  0.16273  0.18628  1.0000
  C   C20       1.0  0.24924  0.17519  0.19505  1.0000
  C   C21       1.0  0.23314  0.19173  0.18925  1.0000
  C   C22       1.0  0.23414  0.19663  0.17454  1.0000
  C   C23       1.0  0.25057  0.18427  0.16574  1.0000
  H   H30       1.0  0.27742  0.14956  0.19092  1.0000
  H   H31       1.0  0.24871  0.17152  0.20641  1.0000
  H   H32       1.0  0.22196  0.20956  0.16998  1.0000
  H   H33       1.0  0.25104  0.18776  0.15437  1.0000
  C   C24       1.0  0.40592  0.12769  0.16201  1.0000
  C   C25       1.0  0.42928  0.12614  0.16086  1.0000
  C   C26       1.0  0.43989  0.14516  0.15606  1.0000
  C   C27       1.0  0.42726  0.16587  0.15223  1.0000
  C   C28       1.0  0.40382  0.16755  0.15381  1.0000
  C   C29       1.0  0.39316  0.14855  0.15869  1.0000
  H   H34       1.0  0.43923  0.11013  0.16367  1.0000
  H   H35       1.0  0.45787  0.14385  0.15528  1.0000
  H   H36       1.0  0.39389  0.18357  0.15099  1.0000
  H   H37       1.0  0.37516  0.14998  0.15956  1.0000
  H   H38       1.0  0.00137  0.01496  0.97989  1.0000
  H   H39       1.0  0.46711  0.22950  0.05447  1.0000
  C   C30       1.0  0.04740  0.08199  0.03805  1.0000
  H   H40       1.0  0.09361  0.98945  0.13566  1.0000
  C   C31       1.0  0.46430  0.26221  0.10164  1.0000
  C   C32       1.0  0.44736  0.28082  0.10196  1.0000
  C   C33       1.0  0.00977  0.09679  0.09397  1.0000
  H   H41       1.0  0.46187  0.24682  0.10877  1.0000
  H   H42       1.0  0.43195  0.27965  0.10940  1.0000
  C   C34       1.0  0.27439  0.00885  0.15067  1.0000
  C   C35       1.0  0.27324  0.03203  0.14967  1.0000
  C   C36       1.0  0.28573  0.04099  0.15742  1.0000
  C   C37       1.0  0.29939  0.02686  0.16643  1.0000
  C   C38       1.0  0.30033  0.00371  0.16755  1.0000
  H   H43       1.0  0.26271  0.04316  0.14276  1.0000
  N   N1        1.0  0.33415  0.01044  0.11851  1.0000
  C   C39       1.0  0.31362  0.00667  0.11339  1.0000
  C   C40       1.0  0.44984  0.30238  0.02248  1.0000
  C   C41       1.0  0.32990  0.03405  0.12152  1.0000
  C   C42       1.0  0.35487  0.00795  0.10745  1.0000
  C   C43       1.0  0.46347  0.29742  0.00798  1.0000
  C   C44       1.0  0.30730  0.02229  0.09979  1.0000
  C   C45       1.0  0.34767  0.04070  0.12871  1.0000
  C   C46       1.0  0.03260  0.08205  0.02707  1.0000
  H   H44       1.0  0.04625  0.09312  0.06488  1.0000
  Fe  Fe13      1.0  0.00342  0.19338  0.12788  1.0000
  H   H45       1.0  0.17088  0.12196  0.18959  1.0000
  C   C47       1.0  0.34029  0.06412  0.13238  1.0000
  H   H46       1.0  0.99643  0.07490  0.08388  1.0000
  H   H47       1.0  0.47431  0.98722  0.01712  1.0000
  H   H48       1.0  0.33193  0.16657  0.22108  1.0000
  C   C48       1.0  0.33761  0.99492  0.13223  1.0000
  H   H49       1.0  0.31330  0.03714  0.12841  1.0000
  H   H50       1.0  0.32892  0.04624  0.11157  1.0000
  H   H51       1.0  0.35360  0.02155  0.09821  1.0000
  H   H52       1.0  0.34687  0.98090  0.09812  1.0000
  H   H53       1.0  0.31423  0.17466  0.19273  1.0000
  N   N2        1.0  0.03499  0.30929  0.03421  1.0000
  H   H54       1.0  0.30195  0.03967  0.10177  1.0000
  H   H55       1.0  0.32154  0.02186  0.09090  1.0000
  H   H56       1.0  0.36400  0.04062  0.12152  1.0000
  H   H57       1.0  0.35028  0.02933  0.13875  1.0000
  C   C49       1.0  0.21441  0.13625  0.21393  1.0000
  C   C50       1.0  0.10016  0.03910  0.06361  1.0000
  C   C51       1.0  0.06241  0.08144  0.06476  1.0000
  H   H58       1.0  0.13544  0.29241  0.10880  1.0000
  H   H59       1.0  0.04358  0.09874  0.04124  1.0000
  H   H60       1.0  0.00810  0.98450  0.00803  1.0000
  H   H61       1.0  0.03065  0.02512  0.06649  1.0000
  C   C52       1.0  0.12330  0.30887  0.08963  1.0000
  C   C53       1.0  0.03611  0.26724  0.13241  1.0000
  H   H62       1.0  0.25427  0.28251  0.14440  1.0000
  H   H63       1.0  0.20608  0.10403  0.18115  1.0000
  H   H64       1.0  0.33797  0.07655  0.12271  1.0000
  H   H65       1.0  0.32435  0.06485  0.14002  1.0000
  H   H66       1.0  0.35324  0.06859  0.13743  1.0000
  H   H67       1.0  0.42714  0.27682  0.05217  1.0000
  H   H68       1.0  0.22146  0.15089  0.18602  1.0000
  H   H69       1.0  0.19789  0.15239  0.15441  1.0000
  H   H70       1.0  0.06198  0.11782  0.07749  1.0000
  H   H71       1.0  0.19369  0.16216  0.19209  1.0000
  H   H72       1.0  0.13309  0.01890  0.06249  1.0000
  C   C54       1.0  0.00444  0.10260  0.14493  1.0000
  H   H73       1.0  0.43219  0.19532  0.18559  1.0000
  C   C55       1.0  0.37958  0.13746  0.20451  1.0000
  H   H74       1.0  0.41286  0.30299  0.04429  1.0000
  C   C56       1.0  0.07590  0.10413  0.07976  1.0000
  C   C57       1.0  0.03574  0.00897  0.08730  1.0000
  H   H75       1.0  0.48701  0.11483  0.12299  1.0000
  C   C58       1.0  0.40272  0.09898  0.20447  1.0000
  H   H76       1.0  0.24187  0.13109  0.16231  1.0000
  H   H77       1.0  0.39067  0.09492  0.19852  1.0000
  H   H78       1.0  0.21738  0.16175  0.16214  1.0000
  C   C59       1.0  0.01052  0.13439  0.08150  1.0000
  H   H79       1.0  0.07325  0.28324  0.04659  1.0000
  H   H80       1.0  0.07526  0.27870  0.13510  1.0000
  H   H81       1.0  0.02205  0.00366  0.05011  1.0000
  H   H82       1.0  0.47620  0.30082  0.14682  1.0000
  C   C60       1.0  0.33426  0.16422  0.20986  1.0000
  H   H83       1.0  0.31094  0.99269  0.17442  1.0000
  C   C61       1.0  0.18786  0.19686  0.15133  1.0000
  H   H84       1.0  0.17618  0.21266  0.15217  1.0000
  H   H85       1.0  0.20532  0.20062  0.14886  1.0000
  H   H86       1.0  0.18429  0.18974  0.14250  1.0000
  N   N3        1.0  0.10092  0.26316  0.12005  1.0000
  C   C62       1.0  0.10497  0.24429  0.11163  1.0000
  H   H87       1.0  0.43522  0.29329  0.02450  1.0000
  C   C63       1.0  0.11880  0.25939  0.12931  1.0000
  C   C64       1.0  0.07838  0.26418  0.12943  1.0000
  C   C65       1.0  0.16096  0.13284  0.16908  1.0000
  C   C66       1.0  0.10164  0.22097  0.12022  1.0000
  H   H88       1.0  0.00414  0.08456  0.14876  1.0000
  H   H89       1.0  0.16908  0.11719  0.16512  1.0000
  H   H90       1.0  0.23272  0.13561  0.21023  1.0000
  C   C67       1.0  0.10803  0.20321  0.11063  1.0000
  H   H91       1.0  0.07821  0.03309  0.05021  1.0000
  H   H92       1.0  0.12237  0.24257  0.10574  1.0000
  H   H93       1.0  0.09405  0.24792  0.10330  1.0000
  H   H94       1.0  0.13579  0.25672  0.12287  1.0000
  H   H95       1.0  0.18582  0.12770  0.20776  1.0000
  C   C68       1.0  0.06898  0.29344  0.07745  1.0000
  H   H96       1.0  0.11769  0.24381  0.13711  1.0000
  H   H97       1.0  0.07806  0.24938  0.13788  1.0000
  C   C69       1.0  0.48369  0.08624  0.13990  1.0000
  N   N4        1.0  0.46251  0.29649  0.03490  1.0000
  H   H98       1.0  0.05917  0.01229  0.06800  1.0000
  H   H99       1.0  0.11227  0.21598  0.12862  1.0000
  H   H100      1.0  0.08389  0.22060  0.12521  1.0000
  C   C70       1.0  0.48631  0.07282  0.09216  1.0000
  H   H101      1.0  0.01581  0.30092  0.09539  1.0000
  C   C71       1.0  0.04849  0.30468  0.08325  1.0000
  H   H102      1.0  0.37325  0.18326  0.22112  1.0000
  H   H103      1.0  0.05917  0.25182  0.11641  1.0000
  H   H104      1.0  0.32787  0.00245  0.14146  1.0000
  H   H105      1.0  0.12821  0.12856  0.16564  1.0000
  H   H106      1.0  0.09742  0.20689  0.10218  1.0000
  H   H107      1.0  0.12593  0.20228  0.10569  1.0000
  H   H108      1.0  0.10544  0.18670  0.11700  1.0000
  H   H109      1.0  0.28262  0.02749  0.08574  1.0000
  H   H110      1.0  0.04163  0.27847  0.05954  1.0000
  H   H111      1.0  0.20649  0.11518  0.16306  1.0000
  H   H112      1.0  0.27716  0.31242  0.14104  1.0000
  H   H113      1.0  0.35272  0.19137  0.20212  1.0000
  H   H114      1.0  0.43463  0.29505  0.99856  1.0000
  H   H115      1.0  0.41958  0.08991  0.20097  1.0000
  H   H116      1.0  0.29269  0.99869  0.09172  1.0000
  H   H117      1.0  0.23458  0.27822  0.16053  1.0000
  H   H118      1.0  0.04882  0.00505  0.09423  1.0000
  C   C72       1.0  0.05796  0.26625  0.12185  1.0000
  C   C73       1.0  0.11777  0.27776  0.13834  1.0000
  H   H119      1.0  0.27304  0.01489  0.10365  1.0000
  C   C74       1.0  0.35548  0.17348  0.20110  1.0000
  C   C75       1.0  0.39648  0.19707  0.19427  1.0000
  C   C76       1.0  0.13925  0.27491  0.14467  1.0000
  H   H120      1.0  0.02207  0.25962  0.09806  1.0000
  C   C77       1.0  0.04955  0.04515  0.07488  1.0000
  C   C78       1.0  0.46485  0.27937  0.13548  1.0000
  H   H121      1.0  0.37045  0.12886  0.21435  1.0000
  H   H122      1.0  0.39878  0.20024  0.20470  1.0000
  C   C79       1.0  0.31304  0.17620  0.20403  1.0000
  H   H123      1.0  0.13411  0.27437  0.09670  1.0000
  H   H124      1.0  0.15385  0.27747  0.13619  1.0000
  H   H125      1.0  0.47820  0.98845  0.05918  1.0000
  C   C80       1.0  0.04303  0.06365  0.05120  1.0000
  H   H126      1.0  0.47157  0.26846  0.12742  1.0000
  H   H127      1.0  0.14236  0.25797  0.15091  1.0000
  C   C81       1.0  0.46457  0.09987  0.10817  1.0000
  C   C82       1.0  0.39601  0.17198  0.19473  1.0000
  H   H128      1.0  0.35546  0.99252  0.13373  1.0000
  H   H129      1.0  0.09427  0.02926  0.07397  1.0000
  H   H130      1.0  0.24216  0.11912  0.18065  1.0000
  C   C83       1.0  0.21054  0.11852  0.17305  1.0000
  C   C84       1.0  0.23639  0.11757  0.17080  1.0000
  C   C85       1.0  0.06948  0.08162  0.07923  1.0000
  H   H131      1.0  0.43822  0.25972  0.14457  1.0000
  H   H132      1.0  0.03976  0.27388  0.03358  1.0000
  C   C86       1.0  0.24858  0.09552  0.16645  1.0000
  C   C87       1.0  0.36108  0.98541  0.10192  1.0000
  C   C88       1.0  0.41293  0.29944  0.06659  1.0000
  C   C89       1.0  0.28770  0.01536  0.09498  1.0000
  C   C90       1.0  0.12507  0.28893  0.10156  1.0000
  H   H133      1.0  0.02031  0.01827  0.09268  1.0000
  H   H134      1.0  0.02387  0.31140  0.98697  1.0000
  C   C91       1.0  0.00149  0.12891  0.07056  1.0000
  H   H135      1.0  0.12633  0.03319  0.04555  1.0000
  C   C92       1.0  0.19991  0.15808  0.16420  1.0000
  C   C93       1.0  0.02815  0.28643  0.03934  1.0000
  H   H136      1.0  0.12722  0.14645  0.17835  1.0000
  C   C94       1.0  0.04413  0.02249  0.07304  1.0000
  H   H137      1.0  0.01457  0.15093  0.08069  1.0000
  H   H138      1.0  0.46966  0.27936  0.00842  1.0000
  H   H139      1.0  0.00950  0.10985  0.15321  1.0000
  H   H140      1.0  0.03784  0.24227  0.05390  1.0000
  C   C95       1.0  0.24725  0.30968  0.15668  1.0000
  H   H141      1.0  0.46269  0.25156  0.15306  1.0000
  H   H142      1.0  0.13758  0.28722  0.15188  1.0000
  C   C96       1.0  0.01507  0.11825  0.09317  1.0000
  N   N5        1.0  0.45484  0.10496  0.12283  1.0000
  C   C97       1.0  0.44119  0.08754  0.13142  1.0000
  H   H143      1.0  0.48256  0.26622  0.02880  1.0000
  C   C98       1.0  0.43906  0.12680  0.12119  1.0000
  C   C99       1.0  0.02709  0.98665  0.05483  1.0000
  H   H144      1.0  0.09077  0.28543  0.10162  1.0000
  C   C100      1.0  0.42098  0.08394  0.12514  1.0000
  H   H145      1.0  0.10196  0.00325  0.11787  1.0000
  S   S21       1.0  0.25854  0.99851  0.14043  1.0000
  H   H146      1.0  0.03642  0.25213  0.14067  1.0000
  H   H147      1.0  0.09405  0.29928  0.11509  1.0000
  C   C101      1.0  0.40894  0.06565  0.13471  1.0000
  H   H148      1.0  0.47407  0.06345  0.11416  1.0000
  H   H149      1.0  0.43449  0.09190  0.14218  1.0000
  H   H150      1.0  0.45166  0.07102  0.13329  1.0000
  H   H151      1.0  0.06242  0.98757  0.04782  1.0000
  C   C102      1.0  0.38050  0.98613  0.08951  1.0000
  H   H152      1.0  0.42813  0.12918  0.13149  1.0000
  H   H153      1.0  0.42746  0.12669  0.11372  1.0000
  H   H154      1.0  0.03162  0.99305  0.08555  1.0000
  H   H155      1.0  0.20693  0.15338  0.21582  1.0000
  H   H156      1.0  0.10526  0.28863  0.02719  1.0000
  H   H157      1.0  0.06599  0.29552  0.02193  1.0000
  H   H158      1.0  0.40845  0.09928  0.12419  1.0000
  H   H159      1.0  0.42657  0.07883  0.11457  1.0000
  H   H160      1.0  0.24460  0.08134  0.17491  1.0000
  C   C103      1.0  0.45019  0.30085  0.09272  1.0000
  H   H161      1.0  0.21241  0.11261  0.20104  1.0000
  H   H162      1.0  0.37122  0.13525  0.19578  1.0000
  H   H163      1.0  0.36979  0.01006  0.11169  1.0000
  H   H164      1.0  0.11355  0.00898  0.05440  1.0000
  C   C104      1.0  0.48715  0.28354  0.08284  1.0000
  C   C105      1.0  0.37780  0.16528  0.22023  1.0000
  H   H165      1.0  0.03245  0.29091  0.01046  1.0000
  H   H166      1.0  0.39482  0.16953  0.18387  1.0000
  H   H167      1.0  0.40207  0.07045  0.14530  1.0000
  H   H168      1.0  0.39479  0.06315  0.12989  1.0000
  H   H169      1.0  0.42054  0.04967  0.13603  1.0000
  H   H170      1.0  0.44052  0.18374  0.10951  1.0000
  C   C106      1.0  0.00028  0.09146  0.08318  1.0000
  H   H171      1.0  0.45277  0.29338  0.13103  1.0000
  H   H172      1.0  0.37574  0.99890  0.08046  1.0000
  H   H173      1.0  0.02042  0.24731  0.07036  1.0000
  C   C107      1.0  0.28794  0.99474  0.15976  1.0000
  H   H174      1.0  0.26696  0.09561  0.16470  1.0000
  H   H175      1.0  0.06053  0.04164  0.08309  1.0000
  H   H176      1.0  0.41497  0.12719  0.20823  1.0000
  H   H177      1.0  0.11003  0.29532  0.04350  1.0000
  C   C108      1.0  0.43242  0.16851  0.11265  1.0000
  H   H178      1.0  0.45521  0.26285  0.03730  1.0000
  S   S22       1.0  0.99007  0.04446  0.04040  1.0000
  C   C109      1.0  0.25035  0.28496  0.15566  1.0000
  N   N6        1.0  0.19676  0.13997  0.17688  1.0000
  H   H179      1.0  0.39560  0.98988  0.09277  1.0000
  N   N7        1.0  0.37771  0.16191  0.20530  1.0000
  C   C110      1.0  0.20347  0.12925  0.20297  1.0000
  C   C111      1.0  0.20425  0.14660  0.18915  1.0000
  C   C112      1.0  0.40345  0.12400  0.20167  1.0000
  H   H180      1.0  0.41368  0.20312  0.17247  1.0000
  H   H181      1.0  0.33535  0.14626  0.20966  1.0000
  H   H182      1.0  0.48766  0.06068  0.01597  1.0000
  H   H183      1.0  0.01461  0.08533  0.03169  1.0000
  H   H184      1.0  0.24390  0.09315  0.15642  1.0000
  H   H185      1.0  0.47417  0.11315  0.10203  1.0000
  C   C113      1.0  0.47017  0.30214  0.08314  1.0000
  N   N8        1.0  0.05949  0.05926  0.06154  1.0000
  H   H186      1.0  0.13440  0.11658  0.18312  1.0000
  H   H187      1.0  0.11540  0.29466  0.13210  1.0000
  H   H188      1.0  0.03341  0.28223  0.13757  1.0000
  H   H189      1.0  0.08375  0.06863  0.08159  1.0000
  H   H190      1.0  0.16240  0.15098  0.18592  1.0000
  H   H191      1.0  0.24208  0.31121  0.16807  1.0000
  H   H192      1.0  0.01137  0.28599  0.03672  1.0000
  H   H193      1.0  0.41088  0.12860  0.19040  1.0000
  H   H194      1.0  0.09115  0.10721  0.07194  1.0000
  H   H195      1.0  0.29834  0.16860  0.21015  1.0000
  C   C114      1.0  0.44896  0.30454  0.99628  1.0000
  H   H196      1.0  0.07077  0.31210  0.04888  1.0000
  C   C115      1.0  0.02644  0.27732  0.05545  1.0000
  H   H197      1.0  0.06502  0.07964  0.03268  1.0000
  H   H198      1.0  0.35545  0.17293  0.18971  1.0000
  C   C116      1.0  0.48098  0.07787  0.10731  1.0000
  H   H199      1.0  0.05525  0.07872  0.08794  1.0000
  C   C117      1.0  0.17253  0.13667  0.18109  1.0000
  H   H200      1.0  0.16165  0.14672  0.16002  1.0000
  H   H201      1.0  0.03599  0.09542  0.01792  1.0000
  H   H202      1.0  0.04249  0.04819  0.04711  1.0000
  S   S23       1.0  0.01121  0.18993  0.10475  1.0000
  H   H203      1.0  0.31512  0.98936  0.11140  1.0000
  C   C118      1.0  0.11941  0.02414  0.05601  1.0000
  H   H204      1.0  0.39630  0.29374  0.06905  1.0000
  H   H205      1.0  0.47807  0.30654  0.00477  1.0000
  H   H206      1.0  0.45102  0.10017  0.10199  1.0000
  C   C119      1.0  0.46942  0.27153  0.03755  1.0000
  C   C120      1.0  0.08128  0.04747  0.05452  1.0000
  C   C121      1.0  0.47892  0.26151  0.05146  1.0000
  H   H207      1.0  0.03609  0.06586  0.02316  1.0000
  C   C122      1.0  0.45162  0.26607  0.14816  1.0000
  C   C123      1.0  0.09972  0.30043  0.03488  1.0000
  S   S24       1.0  0.18588  0.30310  0.15703  1.0000
  H   H208      1.0  0.47652  0.30841  0.11364  1.0000
  H   H209      1.0  0.46676  0.11931  0.13809  1.0000
  H   H210      1.0  0.10724  0.05345  0.06530  1.0000
  H   H211      1.0  0.08207  0.30275  0.07172  1.0000
  C   C124      1.0  0.45007  0.14819  0.11585  1.0000
  H   H212      1.0  0.29881  0.00855  0.12188  1.0000
  H   H213      1.0  0.38089  0.20746  0.19127  1.0000
  H   H214      1.0  0.41959  0.17065  0.12219  1.0000
  H   H215      1.0  0.02181  0.26810  0.12675  1.0000
  C   C125      1.0  0.02290  0.25295  0.05871  1.0000
  H   H216      1.0  0.39769  0.09317  0.21596  1.0000
  H   H217      1.0  0.44371  0.27676  0.15625  1.0000
  C   C126      1.0  0.00316  0.99801  0.98631  1.0000
  C   C127      1.0  0.10524  0.98775  0.12557  1.0000
  H   H218      1.0  0.45864  0.15151  0.12410  1.0000
  H   H219      1.0  0.01455  0.01227  0.00190  1.0000
  C   C128      1.0  0.47323  0.10742  0.13056  1.0000
  C   C129      1.0  0.48306  0.23609  0.05353  1.0000
  C   C130      1.0  0.44692  0.30475  0.04742  1.0000
  H   H220      1.0  0.45528  0.30159  0.05690  1.0000
  H   H221      1.0  0.48056  0.05057  0.97189  1.0000
  H   H222      1.0  0.01206  0.28686  0.06157  1.0000
  H   H223      1.0  0.17621  0.30622  0.10950  1.0000
  H   H224      1.0  0.31019  0.19411  0.20501  1.0000
  C   C131      1.0  0.06005  0.30757  0.02947  1.0000
  H   H225      1.0  0.42310  0.29016  0.07474  1.0000
  C   C132      1.0  0.99646  0.10741  0.07127  1.0000
  C   C133      1.0  0.48413  0.28820  0.13988  1.0000
  H   H226      1.0  0.12270  0.98567  0.12770  1.0000
  C   C134      1.0  0.48298  0.30822  0.03098  1.0000
  C   C135      1.0  0.07497  0.30039  0.04115  1.0000
  H   H227      1.0  0.99863  0.14139  0.06138  1.0000
  H   H228      1.0  0.45914  0.30128  0.98596  1.0000
  H   H229      1.0  0.11554  0.30490  0.08120  1.0000
  C   C136      1.0  0.03212  0.30921  0.00794  1.0000
  H   H230      1.0  0.48912  0.07196  0.13412  1.0000
  H   H231      1.0  0.14027  0.31294  0.08486  1.0000
  H   H232      1.0  0.04927  0.31267  0.00304  1.0000
  H   H233      1.0  0.28089  0.31324  0.15841  1.0000
  H   H234      1.0  0.30491  0.98072  0.20352  1.0000
  Fe  Fe14      1.0  0.07350  0.04595  0.42520  1.0000
  S   S25       1.0  0.10553  0.02849  0.43292  1.0000
  S   S26       1.0  0.06331  0.08334  0.42319  1.0000
  C   C137      1.0  0.39963  0.15600  0.22644  1.0000
  Fe  Fe15      1.0  0.08367  0.00561  0.44763  1.0000
  S   S27       1.0  0.46853  0.16463  0.40473  1.0000
  Fe  Fe16      1.0  0.10741  0.00599  0.41704  1.0000
  C   C138      1.0  0.27670  0.27940  0.33373  1.0000
  S   S28       1.0  0.05144  0.02457  0.44118  1.0000
  S   S29       1.0  0.07708  0.02539  0.40808  1.0000
  H   H235      1.0  0.43476  0.31285  0.39444  1.0000
  S   S30       1.0  0.42998  0.99932  0.45117  1.0000
  Fe  Fe17      1.0  0.45788  0.03972  0.41990  1.0000
  S   S31       1.0  0.42941  0.05154  0.43611  1.0000
  H   H236      1.0  0.00833  0.09464  0.35239  1.0000
  Fe  Fe18      1.0  0.44755  0.02754  0.45225  1.0000
  Fe  Fe19      1.0  0.41470  0.02204  0.43335  1.0000
  S   S32       1.0  0.37846  0.02632  0.43007  1.0000
  H   H237      1.0  0.07169  0.31216  0.38322  1.0000
  S   S33       1.0  0.44229  0.01157  0.41625  1.0000
  Fe  Fe20      1.0  0.38192  0.15047  0.30980  1.0000
  S   S34       1.0  0.34793  0.16390  0.32061  1.0000
  S   S35       1.0  0.41351  0.14593  0.31994  1.0000
  Fe  Fe21      1.0  0.36164  0.13659  0.28640  1.0000
  S   S36       1.0  0.32631  0.14887  0.29578  1.0000
  S   S37       1.0  0.37170  0.11823  0.26740  1.0000
  Fe  Fe22      1.0  0.34043  0.17835  0.29875  1.0000
  S   S38       1.0  0.32379  0.21381  0.29283  1.0000
  Fe  Fe23      1.0  0.33695  0.13322  0.31676  1.0000
  S   S39       1.0  0.31479  0.11487  0.33466  1.0000
  S   S40       1.0  0.37546  0.16725  0.28793  1.0000
  S   S41       1.0  0.37122  0.11868  0.30731  1.0000
  H   H238      1.0  0.45143  0.09485  0.43939  1.0000
  C   C139      1.0  0.47785  0.09354  0.35586  1.0000
  S   S42       1.0  0.30021  0.00224  0.37898  1.0000
  S   S43       1.0  0.31909  0.01130  0.33774  1.0000
  C   C140      1.0  0.37434  0.24047  0.29416  1.0000
  H   H239      1.0  0.18343  0.00955  0.43842  1.0000
  Fe  Fe24      1.0  0.15783  0.29995  0.32242  1.0000
  S   S44       1.0  0.99619  0.23730  0.39281  1.0000
  H   H240      1.0  0.20863  0.26038  0.27046  1.0000
  S   S45       1.0  0.45165  0.22029  0.34183  1.0000
  H   H241      1.0  0.48534  0.22476  0.28253  1.0000
  H   H242      1.0  0.29783  0.18928  0.34153  1.0000
  H   H243      1.0  0.19303  0.21030  0.24541  1.0000
  S   S46       1.0  0.46358  0.22055  0.37996  1.0000
  H   H244      1.0  0.37966  0.25704  0.29287  1.0000
  S   S47       1.0  0.17809  0.27648  0.30829  1.0000
  H   H245      1.0  0.40175  0.03413  0.39921  1.0000
  S   S48       1.0  0.12539  0.29268  0.33701  1.0000
  Fe  Fe25      1.0  0.20700  0.27946  0.31841  1.0000
  S   S49       1.0  0.22766  0.24643  0.32568  1.0000
  H   H246      1.0  0.48765  0.16325  0.43999  1.0000
  Fe  Fe26      1.0  0.02745  0.17748  0.36257  1.0000
  S   S50       1.0  0.01868  0.19031  0.34078  1.0000
  S   S51       1.0  0.04878  0.14352  0.36412  1.0000
  Fe  Fe27      1.0  0.02927  0.22205  0.34339  1.0000
  S   S52       1.0  0.05263  0.23983  0.32569  1.0000
  S   S53       1.0  0.03988  0.20850  0.36448  1.0000
  H   H247      1.0  0.12549  0.29275  0.25599  1.0000
  H   H248      1.0  0.11288  0.05873  0.45880  1.0000
  C   C141      1.0  0.14346  0.29222  0.25319  1.0000
  C   C142      1.0  0.15442  0.28596  0.24019  1.0000
  C   C143      1.0  0.17765  0.28519  0.23671  1.0000
  Fe  Fe28      1.0  0.26878  0.98614  0.38498  1.0000
  H   H249      1.0  0.01144  0.08540  0.37801  1.0000
  S   S54       1.0  0.30966  0.10947  0.22374  1.0000
  C   C144      1.0  0.21880  0.24890  0.27783  1.0000
  C   C145      1.0  0.10640  0.27673  0.33365  1.0000
  C   C146      1.0  0.09161  0.26721  0.34510  1.0000
  C   C147      1.0  0.07533  0.25552  0.34284  1.0000
  C   C148      1.0  0.07351  0.25350  0.32906  1.0000
  C   C149      1.0  0.08863  0.26259  0.31763  1.0000
  C   C150      1.0  0.10508  0.27408  0.31991  1.0000
  H   H250      1.0  0.09275  0.26892  0.35577  1.0000
  H   H251      1.0  0.06396  0.24841  0.35173  1.0000
  H   H252      1.0  0.08739  0.26102  0.30694  1.0000
  H   H253      1.0  0.11631  0.28142  0.31100  1.0000
  C   C151      1.0  0.29644  0.22221  0.30137  1.0000
  C   C152      1.0  0.28556  0.20785  0.31229  1.0000
  C   C153      1.0  0.26445  0.21552  0.31965  1.0000
  C   C154      1.0  0.25385  0.23739  0.31592  1.0000
  C   C155      1.0  0.26448  0.25160  0.30477  1.0000
  C   C156      1.0  0.28580  0.24405  0.29758  1.0000
  H   H254      1.0  0.29364  0.19098  0.31528  1.0000
  H   H255      1.0  0.25634  0.20450  0.32832  1.0000
  H   H256      1.0  0.25649  0.26850  0.30186  1.0000
  H   H257      1.0  0.29415  0.25525  0.28914  1.0000
  C   C157      1.0  0.32754  0.11282  0.23526  1.0000
  C   C158      1.0  0.34962  0.10187  0.23446  1.0000
  C   C159      1.0  0.36298  0.10397  0.24426  1.0000
  C   C160      1.0  0.35436  0.11681  0.25507  1.0000
  C   C161      1.0  0.33223  0.12772  0.25591  1.0000
  C   C162      1.0  0.31890  0.12566  0.24607  1.0000
  H   H258      1.0  0.00237  0.28926  0.34548  1.0000
  H   H259      1.0  0.38002  0.09534  0.24360  1.0000
  H   H260      1.0  0.32537  0.13763  0.26418  1.0000
  H   H261      1.0  0.30174  0.13399  0.24687  1.0000
  C   C163      1.0  0.42412  0.16697  0.32563  1.0000
  C   C164      1.0  0.41300  0.18885  0.32473  1.0000
  C   C165      1.0  0.42177  0.20501  0.32959  1.0000
  C   C166      1.0  0.44144  0.19936  0.33573  1.0000
  C   C167      1.0  0.45261  0.17744  0.33659  1.0000
  C   C168      1.0  0.44406  0.16140  0.33148  1.0000
  H   H262      1.0  0.39778  0.19325  0.32017  1.0000
  H   H263      1.0  0.41332  0.22199  0.32856  1.0000
  H   H264      1.0  0.46795  0.17291  0.34106  1.0000
  H   H265      1.0  0.45293  0.14456  0.33204  1.0000
  C   C169      1.0  0.31714  0.08581  0.33607  1.0000
  C   C170      1.0  0.30170  0.07441  0.34599  1.0000
  C   C171      1.0  0.30262  0.05135  0.34694  1.0000
  C   C172      1.0  0.31897  0.03963  0.33792  1.0000
  C   C173      1.0  0.33493  0.05087  0.32837  1.0000
  C   C174      1.0  0.33398  0.07392  0.32741  1.0000
  H   H266      1.0  0.28870  0.08351  0.35278  1.0000
  H   H267      1.0  0.29024  0.04278  0.35433  1.0000
  H   H268      1.0  0.34774  0.04178  0.32148  1.0000
  H   H269      1.0  0.34610  0.08251  0.31987  1.0000
  C   C175      1.0  0.29585  0.26264  0.32769  1.0000
  H   H270      1.0  0.20746  0.29169  0.24285  1.0000
  H   H271      1.0  0.41281  0.30212  0.40757  1.0000
  C   C176      1.0  0.01369  0.11035  0.35337  1.0000
  H   H272      1.0  0.30001  0.26871  0.31617  1.0000
  C   C177      1.0  0.45465  0.10170  0.41082  1.0000
  H   H273      1.0  0.29770  0.18538  0.36034  1.0000
  C   C178      1.0  0.47219  0.09103  0.40196  1.0000
  H   H274      1.0  0.16446  0.04996  0.45255  1.0000
  H   H275      1.0  0.44186  0.09250  0.41713  1.0000
  C   C179      1.0  0.37079  0.00818  0.42038  1.0000
  C   C180      1.0  0.34872  0.01124  0.41758  1.0000
  H   H276      1.0  0.48687  0.09096  0.36504  1.0000
  H   H277      1.0  0.36460  0.15703  0.22776  1.0000
  H   H278      1.0  0.33654  0.02452  0.42150  1.0000
  H   H279      1.0  0.28942  0.24665  0.32913  1.0000
  H   H280      1.0  0.41400  0.15622  0.24513  1.0000
  H   H281      1.0  0.46330  0.13366  0.45093  1.0000
  H   H282      1.0  0.39955  0.99221  0.35832  1.0000
  Fe  Fe29      1.0  0.48497  0.18796  0.38644  1.0000
  C   C181      1.0  0.20740  0.21974  0.24210  1.0000
  H   H283      1.0  0.05562  0.00936  0.38417  1.0000
  C   C182      1.0  0.17095  0.01007  0.40846  1.0000
  H   H284      1.0  0.02575  0.13891  0.33908  1.0000
  H   H285      1.0  0.15776  0.02050  0.41425  1.0000
  H   H286      1.0  0.24996  0.24025  0.26297  1.0000
  C   C183      1.0  0.05264  0.12714  0.38063  1.0000
  C   C184      1.0  0.04516  0.13560  0.39330  1.0000
  C   C185      1.0  0.04865  0.12202  0.40628  1.0000
  C   C186      1.0  0.05935  0.09987  0.40668  1.0000
  C   C187      1.0  0.06660  0.09140  0.39400  1.0000
  C   C188      1.0  0.06335  0.10504  0.38101  1.0000
  H   H287      1.0  0.03688  0.15261  0.39311  1.0000
  H   H288      1.0  0.04300  0.12865  0.41607  1.0000
  H   H289      1.0  0.07493  0.07442  0.39418  1.0000
  H   H290      1.0  0.06915  0.09841  0.37124  1.0000
  H   H291      1.0  0.30656  0.05749  0.37828  1.0000
  H   H292      1.0  0.38386  0.15982  0.24809  1.0000
  S   S55       1.0  0.47423  0.06250  0.40119  1.0000
  S   S56       1.0  0.13750  0.98934  0.40328  1.0000
  H   H293      1.0  0.14740  0.04425  0.46963  1.0000
  H   H294      1.0  0.48005  0.07119  0.43103  1.0000
  H   H295      1.0  0.39323  0.11257  0.45715  1.0000
  Fe  Fe30      1.0  0.47602  0.21359  0.35774  1.0000
  C   C189      1.0  0.19349  0.01302  0.40719  1.0000
  H   H296      1.0  0.44845  0.07580  0.45542  1.0000
  H   H297      1.0  0.28192  0.29606  0.33223  1.0000
  H   H298      1.0  0.01232  0.10883  0.38582  1.0000
  H   H299      1.0  0.12850  0.01850  0.45940  1.0000
  H   H300      1.0  0.00342  0.05929  0.41541  1.0000
  H   H301      1.0  0.39250  0.27209  0.34515  1.0000
  C   C190      1.0  0.12952  0.06288  0.45329  1.0000
  C   C191      1.0  0.18527  0.00579  0.44983  1.0000
  C   C192      1.0  0.15548  0.29817  0.26249  1.0000
  C   C193      1.0  0.45088  0.09328  0.45095  1.0000
  C   C194      1.0  0.17857  0.29830  0.25873  1.0000
  H   H302      1.0  0.30091  0.04929  0.24949  1.0000
  S   S57       1.0  0.02874  0.99002  0.41825  1.0000
  C   C195      1.0  0.03266  0.30133  0.34745  1.0000
  H   H303      1.0  0.34862  0.26535  0.31291  1.0000
  C   C196      1.0  0.46983  0.13658  0.40307  1.0000
  H   H304      1.0  0.01198  0.30295  0.38575  1.0000
  H   H305      1.0  0.25330  0.03156  0.32046  1.0000
  Fe  Fe31      1.0  0.18687  0.30698  0.29317  1.0000
  C   C197      1.0  0.14828  0.04477  0.45809  1.0000
  S   S58       1.0  0.21736  0.30854  0.30248  1.0000
  H   H306      1.0  0.32242  0.27677  0.33226  1.0000
  H   H307      1.0  0.27296  0.04329  0.32731  1.0000
  C   C198      1.0  0.34482  0.24799  0.31547  1.0000
  H   H308      1.0  0.01522  0.98169  0.46565  1.0000
  C   C199      1.0  0.99179  0.08523  0.39881  1.0000
  H   H309      1.0  0.05782  0.27702  0.37502  1.0000
  H   H310      1.0  0.37654  0.26241  0.32640  1.0000
  S   S59       1.0  0.08915  0.98950  0.46993  1.0000
  C   C200      1.0  0.39884  0.16422  0.24039  1.0000
  H   H311      1.0  0.39486  0.24230  0.34729  1.0000
  Fe  Fe32      1.0  0.30310  0.99154  0.35795  1.0000
  N   N9        1.0  0.16306  0.00248  0.45905  1.0000
  H   H312      1.0  0.36110  0.24164  0.28759  1.0000
  H   H313      1.0  0.44794  0.08307  0.36846  1.0000
  C   C201      1.0  0.47631  0.12077  0.44645  1.0000
  H   H314      1.0  0.40687  0.08407  0.45909  1.0000
  C   C202      1.0  0.45363  0.12432  0.41151  1.0000
  H   H315      1.0  0.34587  0.23882  0.35150  1.0000
  H   H316      1.0  0.19110  0.02071  0.45184  1.0000
  N   N10       1.0  0.33575  0.24220  0.33102  1.0000
  Fe  Fe33      1.0  0.05726  0.00263  0.42455  1.0000
  H   H317      1.0  0.32521  0.99960  0.40776  1.0000
  H   H318      1.0  0.08562  0.00801  0.37952  1.0000
  C   C203      1.0  0.20539  0.98365  0.39303  1.0000
  C   C204      1.0  0.18961  0.29162  0.24587  1.0000
  H   H319      1.0  0.32404  0.21249  0.35689  1.0000
  H   H320      1.0  0.13002  0.06482  0.44166  1.0000
  H   H321      1.0  0.40331  0.98813  0.41751  1.0000
  N   N11       1.0  0.31017  0.06576  0.28804  1.0000
  C   C205      1.0  0.30914  0.05425  0.27592  1.0000
  C   C206      1.0  0.30229  0.05129  0.30177  1.0000
  C   C207      1.0  0.29553  0.08817  0.28643  1.0000
  C   C208      1.0  0.33376  0.06946  0.28810  1.0000
  C   C209      1.0  0.35221  0.04879  0.28734  1.0000
  C   C210      1.0  0.31847  0.06586  0.26095  1.0000
  C   C211      1.0  0.29186  0.10087  0.29917  1.0000
  C   C212      1.0  0.27749  0.04744  0.30422  1.0000
  C   C213      1.0  0.27105  0.03418  0.31893  1.0000
  C   C214      1.0  0.37508  0.05476  0.28786  1.0000
  C   C215      1.0  0.31827  0.05187  0.24966  1.0000
  C   C216      1.0  0.27743  0.12352  0.29619  1.0000
  H   H322      1.0  0.29148  0.05290  0.27553  1.0000
  H   H323      1.0  0.31786  0.03676  0.27759  1.0000
  H   H324      1.0  0.31259  0.03449  0.30260  1.0000
  H   H325      1.0  0.30482  0.05823  0.31093  1.0000
  H   H326      1.0  0.27883  0.08669  0.28416  1.0000
  H   H327      1.0  0.30290  0.09937  0.27701  1.0000
  H   H328      1.0  0.33889  0.08284  0.27930  1.0000
  H   H329      1.0  0.33459  0.07579  0.29788  1.0000
  H   H330      1.0  0.35365  0.04219  0.27734  1.0000
  H   H331      1.0  0.34866  0.03533  0.29637  1.0000
  H   H332      1.0  0.30792  0.08211  0.25822  1.0000
  H   H333      1.0  0.33596  0.06870  0.26023  1.0000
  H   H334      1.0  0.30802  0.10382  0.30138  1.0000
  H   H335      1.0  0.28322  0.09155  0.30895  1.0000
  H   H336      1.0  0.26581  0.06336  0.30343  1.0000
  H   H337      1.0  0.27477  0.03778  0.29636  1.0000
  H   H338      1.0  0.44019  0.13240  0.41856  1.0000
  C   C217      1.0  0.20480  0.98628  0.45179  1.0000
  C   C218      1.0  0.07140  0.99880  0.38030  1.0000
  H   H339      1.0  0.37477  0.06117  0.29781  1.0000
  H   H340      1.0  0.38803  0.03974  0.28744  1.0000
  H   H341      1.0  0.37984  0.06764  0.27865  1.0000
  H   H342      1.0  0.23101  0.00638  0.44154  1.0000
  H   H343      1.0  0.32902  0.03548  0.25165  1.0000
  H   H344      1.0  0.01717  0.05553  0.39781  1.0000
  H   H345      1.0  0.26048  0.12152  0.29470  1.0000
  H   H346      1.0  0.27571  0.13233  0.30535  1.0000
  H   H347      1.0  0.28540  0.13383  0.28657  1.0000
  H   H348      1.0  0.03947  0.28508  0.35311  1.0000
  H   H349      1.0  0.39835  0.18255  0.23857  1.0000
  H   H350      1.0  0.02518  0.28580  0.33108  1.0000
  H   H351      1.0  0.46190  0.30191  0.43655  1.0000
  S   S60       1.0  0.19407  0.30815  0.26919  1.0000
  H   H352      1.0  0.07861  0.03736  0.46977  1.0000
  C   C219      1.0  0.38280  0.25796  0.34775  1.0000
  C   C220      1.0  0.21082  0.99986  0.39947  1.0000
  H   H353      1.0  0.00333  0.13732  0.36546  1.0000
  C   C221      1.0  0.01028  0.06811  0.40487  1.0000
  H   H354      1.0  0.40934  0.10159  0.44183  1.0000
  H   H355      1.0  0.32487  0.06068  0.23905  1.0000
  S   S61       1.0  0.08766  0.98183  0.43227  1.0000
  Fe  Fe34      1.0  0.45881  0.99091  0.43411  1.0000
  H   H356      1.0  0.00541  0.12706  0.33274  1.0000
  H   H357      1.0  0.02909  0.10591  0.35835  1.0000
  H   H358      1.0  0.38897  0.22855  0.29025  1.0000
  C   C222      1.0  0.31424  0.21291  0.34837  1.0000
  C   C223      1.0  0.01628  0.29719  0.33858  1.0000
  C   C224      1.0  0.47509  0.31218  0.43110  1.0000
  S   S62       1.0  0.18626  0.30105  0.33377  1.0000
  C   C225      1.0  0.30790  0.18974  0.34978  1.0000
  H   H359      1.0  0.18628  0.28027  0.22678  1.0000
  C   C226      1.0  0.32794  0.21983  0.33354  1.0000
  H   H360      1.0  0.14678  0.30321  0.27238  1.0000
  H   H361      1.0  0.22323  0.24224  0.24960  1.0000
  H   H362      1.0  0.20443  0.23180  0.23235  1.0000
  S   S63       1.0  0.23893  0.00402  0.39837  1.0000
  H   H363      1.0  0.32315  0.17705  0.34878  1.0000
  H   H364      1.0  0.34256  0.20646  0.33216  1.0000
  C   C227      1.0  0.36654  0.26077  0.33720  1.0000
  C   C228      1.0  0.34228  0.99718  0.40976  1.0000
  H   H365      1.0  0.13155  0.07904  0.45587  1.0000
  H   H366      1.0  0.31119  0.25787  0.34669  1.0000
  H   H367      1.0  0.22304  0.20808  0.23949  1.0000
  C   C229      1.0  0.38476  0.99771  0.35286  1.0000
  C   C230      1.0  0.40845  0.10121  0.45338  1.0000
  H   H368      1.0  0.31787  0.21890  0.32538  1.0000
  H   H369      1.0  0.05330  0.26969  0.40092  1.0000
  H   H370      1.0  0.33187  0.24775  0.30894  1.0000
  H   H371      1.0  0.27118  0.27371  0.34519  1.0000
  C   C231      1.0  0.35350  0.24069  0.34011  1.0000
  H   H372      1.0  0.36174  0.21525  0.31046  1.0000
  C   C232      1.0  0.03023  0.30320  0.38211  1.0000
  H   H373      1.0  0.29839  0.22457  0.35022  1.0000
  H   H374      1.0  0.37350  0.25772  0.35872  1.0000
  H   H375      1.0  0.42594  0.02514  0.38672  1.0000
  H   H376      1.0  0.36606  0.22539  0.33916  1.0000
  N   N12       1.0  0.21225  0.22591  0.28084  1.0000
  H   H377      1.0  0.02983  0.27152  0.37544  1.0000
  C   C233      1.0  0.18870  0.22674  0.28907  1.0000
  C   C234      1.0  0.22775  0.21131  0.29039  1.0000
  C   C235      1.0  0.21433  0.21593  0.26754  1.0000
  C   C236      1.0  0.20945  0.23224  0.25378  1.0000
  C   C237      1.0  0.22228  0.18749  0.29639  1.0000
  C   C238      1.0  0.16979  0.24229  0.28201  1.0000
  C   C239      1.0  0.14726  0.24259  0.29192  1.0000
  C   C240      1.0  0.01998  0.12316  0.33849  1.0000
  C   C241      1.0  0.24087  0.17350  0.30410  1.0000
  H   H378      1.0  0.18346  0.21000  0.29127  1.0000
  H   H379      1.0  0.18825  0.23157  0.29959  1.0000
  H   H380      1.0  0.22812  0.21944  0.29962  1.0000
  H   H381      1.0  0.24529  0.20916  0.28466  1.0000
  H   H382      1.0  0.23160  0.20694  0.26480  1.0000
  H   H383      1.0  0.20324  0.20294  0.26944  1.0000
  H   H384      1.0  0.37972  0.23111  0.31567  1.0000
  H   H385      1.0  0.19390  0.24414  0.25553  1.0000
  S   S64       1.0  0.99260  0.18764  0.37371  1.0000
  C   C242      1.0  0.04126  0.26451  0.39547  1.0000
  H   H386      1.0  0.22035  0.17891  0.28778  1.0000
  H   H387      1.0  0.20664  0.18804  0.30427  1.0000
  H   H388      1.0  0.16753  0.23627  0.27245  1.0000
  H   H389      1.0  0.14797  0.24880  0.30175  1.0000
  H   H390      1.0  0.13407  0.25389  0.28654  1.0000
  H   H391      1.0  0.14240  0.22568  0.29476  1.0000
  H   H392      1.0  0.23895  0.28143  0.25719  1.0000
  S   S65       1.0  0.13829  0.28072  0.22827  1.0000
  H   H393      1.0  0.02404  0.07644  0.40627  1.0000
  H   H394      1.0  0.23665  0.15652  0.30823  1.0000
  H   H395      1.0  0.25714  0.17217  0.29680  1.0000
  H   H396      1.0  0.24263  0.18108  0.31321  1.0000
  N   N13       1.0  0.11296  0.18705  0.34805  1.0000
  C   C243      1.0  0.12294  0.20655  0.33886  1.0000
  C   C244      1.0  0.09330  0.18343  0.34196  1.0000
  C   C245      1.0  0.10379  0.19334  0.36254  1.0000
  C   C246      1.0  0.12985  0.16603  0.34968  1.0000
  C   C247      1.0  0.14910  0.16270  0.33702  1.0000
  C   C248      1.0  0.14059  0.21531  0.34501  1.0000
  C   C249      1.0  0.09216  0.17561  0.37365  1.0000
  C   C250      1.0  0.09843  0.17690  0.32699  1.0000
  C   C251      1.0  0.07681  0.17574  0.32175  1.0000
  C   C252      1.0  0.16223  0.13917  0.33909  1.0000
  C   C253      1.0  0.15536  0.22903  0.33347  1.0000
  C   C254      1.0  0.08605  0.18273  0.38826  1.0000
  H   H397      1.0  0.10950  0.22086  0.33680  1.0000
  H   H398      1.0  0.13054  0.20277  0.32817  1.0000
  H   H399      1.0  0.08492  0.16981  0.34878  1.0000
  H   H400      1.0  0.08041  0.19868  0.34169  1.0000
  H   H401      1.0  0.09166  0.20912  0.36159  1.0000
  H   H402      1.0  0.11746  0.19674  0.36746  1.0000
  H   H403      1.0  0.13836  0.16508  0.35897  1.0000
  H   H404      1.0  0.12106  0.15116  0.35220  1.0000
  H   H405      1.0  0.16112  0.17447  0.33611  1.0000
  H   H406      1.0  0.14295  0.16554  0.32678  1.0000
  H   H407      1.0  0.13189  0.22629  0.35281  1.0000
  H   H408      1.0  0.15161  0.20149  0.35053  1.0000
  H   H409      1.0  0.10313  0.15923  0.37474  1.0000
  H   H410      1.0  0.07634  0.17326  0.37071  1.0000
  H   H411      1.0  0.10734  0.18908  0.31911  1.0000
  H   H412      1.0  0.10850  0.16007  0.32733  1.0000
  H   H413      1.0  0.06620  0.19234  0.32070  1.0000
  H   H414      1.0  0.08088  0.17041  0.31119  1.0000
  H   H415      1.0  0.06717  0.16355  0.32920  1.0000
  H   H416      1.0  0.16938  0.13575  0.34909  1.0000
  H   H417      1.0  0.15119  0.12665  0.33944  1.0000
  H   H418      1.0  0.17624  0.13740  0.33012  1.0000
  H   H419      1.0  0.16528  0.21863  0.32567  1.0000
  H   H420      1.0  0.14491  0.24332  0.32791  1.0000
  H   H421      1.0  0.16717  0.23571  0.33832  1.0000
  H   H422      1.0  0.07736  0.16997  0.39585  1.0000
  H   H423      1.0  0.10134  0.18433  0.39226  1.0000
  H   H424      1.0  0.07457  0.19885  0.38778  1.0000
  H   H425      1.0  0.02443  0.26599  0.40214  1.0000
  C   C255      1.0  0.00073  0.09806  0.38407  1.0000
  H   H426      1.0  0.26620  0.27436  0.26258  1.0000
  H   H427      1.0  0.25435  0.24327  0.28007  1.0000
  N   N14       1.0  0.47258  0.09782  0.45415  1.0000
  N   N15       1.0  0.42134  0.12451  0.37386  1.0000
  C   C256      1.0  0.41877  0.14510  0.38058  1.0000
  C   C257      1.0  0.41591  0.10468  0.38504  1.0000
  C   C258      1.0  0.44563  0.11962  0.36722  1.0000
  C   C259      1.0  0.40721  0.12794  0.36231  1.0000
  C   C260      1.0  0.38170  0.13461  0.36667  1.0000
  C   C261      1.0  0.42500  0.16652  0.37056  1.0000
  C   C262      1.0  0.45254  0.09783  0.36073  1.0000
  C   C263      1.0  0.39830  0.10928  0.39829  1.0000
  C   C264      1.0  0.39228  0.08763  0.40755  1.0000
  C   C265      1.0  0.36979  0.13960  0.35372  1.0000
  C   C266      1.0  0.41932  0.18655  0.37832  1.0000
  H   H428      1.0  0.35501  0.27657  0.33821  1.0000
  H   H429      1.0  0.42939  0.14178  0.38906  1.0000
  H   H430      1.0  0.40138  0.14939  0.38599  1.0000
  H   H431      1.0  0.41043  0.09213  0.38019  1.0000
  H   H432      1.0  0.43122  0.09587  0.38945  1.0000
  H   H433      1.0  0.45667  0.11899  0.37517  1.0000
  H   H434      1.0  0.45020  0.13320  0.35846  1.0000
  H   H435      1.0  0.41324  0.14043  0.35324  1.0000
  H   H436      1.0  0.40914  0.11245  0.35774  1.0000
  H   H437      1.0  0.37781  0.14973  0.37173  1.0000
  H   H438      1.0  0.37458  0.12067  0.37401  1.0000
  H   H439      1.0  0.44329  0.16469  0.36661  1.0000
  H   H440      1.0  0.41577  0.17054  0.36143  1.0000
  H   H441      1.0  0.44444  0.09909  0.35129  1.0000
  H   H442      1.0  0.39044  0.00565  0.34186  1.0000
  H   H443      1.0  0.40528  0.11821  0.40492  1.0000
  H   H444      1.0  0.38262  0.11956  0.39539  1.0000
  H   H445      1.0  0.40758  0.07650  0.41053  1.0000
  H   H446      1.0  0.38101  0.09133  0.41744  1.0000
  H   H447      1.0  0.38344  0.07881  0.40191  1.0000
  H   H448      1.0  0.37556  0.15416  0.34624  1.0000
  H   H449      1.0  0.37311  0.12505  0.34809  1.0000
  H   H450      1.0  0.35141  0.14348  0.35710  1.0000
  H   H451      1.0  0.42419  0.20155  0.37092  1.0000
  H   H452      1.0  0.40105  0.18981  0.38227  1.0000
  H   H453      1.0  0.42868  0.18366  0.38738  1.0000
  C   C267      1.0  0.36579  0.23223  0.30973  1.0000
  H   H454      1.0  0.17330  0.25961  0.27923  1.0000
  H   H455      1.0  0.14628  0.02449  0.44302  1.0000
  N   N16       1.0  0.37364  0.03503  0.36292  1.0000
  C   C268      1.0  0.35275  0.05016  0.36814  1.0000
  C   C269      1.0  0.38487  0.04584  0.34868  1.0000
  C   C270      1.0  0.36653  0.01381  0.36093  1.0000
  C   C271      1.0  0.38963  0.02868  0.37353  1.0000
  C   C272      1.0  0.39927  0.04786  0.37714  1.0000
  C   C273      1.0  0.33971  0.04169  0.38284  1.0000
  C   C274      1.0  0.04048  0.27874  0.38085  1.0000
  C   C275      1.0  0.38395  0.07157  0.34609  1.0000
  C   C276      1.0  0.40027  0.07928  0.33291  1.0000
  C   C277      1.0  0.41290  0.03943  0.38920  1.0000
  C   C278      1.0  0.31763  0.05707  0.38616  1.0000
  C   C279      1.0  0.16555  0.99382  0.40203  1.0000
  H   H456      1.0  0.34106  0.05365  0.36025  1.0000
  H   H457      1.0  0.35648  0.06663  0.36902  1.0000
  H   H458      1.0  0.40273  0.03799  0.34657  1.0000
  H   H459      1.0  0.37687  0.04276  0.34001  1.0000
  H   H460      1.0  0.35193  0.01777  0.35515  1.0000
  H   H461      1.0  0.36071  0.00384  0.37134  1.0000
  H   H462      1.0  0.38172  0.01918  0.38358  1.0000
  H   H463      1.0  0.40446  0.01700  0.36964  1.0000
  H   H464      1.0  0.38580  0.06126  0.38043  1.0000
  H   H465      1.0  0.41091  0.05472  0.36783  1.0000
  H   H466      1.0  0.33555  0.02491  0.38339  1.0000
  H   H467      1.0  0.34978  0.04120  0.39125  1.0000
  C   C280      1.0  0.31673  0.26021  0.33500  1.0000
  H   H468      1.0  0.35628  0.09151  0.22640  1.0000
  H   H469      1.0  0.36679  0.07984  0.34440  1.0000
  H   H470      1.0  0.38794  0.07779  0.35508  1.0000
  H   H471      1.0  0.39897  0.09771  0.33121  1.0000
  H   H472      1.0  0.41781  0.07202  0.33422  1.0000
  H   H473      1.0  0.39626  0.07438  0.32339  1.0000
  H   H474      1.0  0.42148  0.05278  0.39086  1.0000
  C   C281      1.0  0.14576  0.02197  0.45467  1.0000
  H   H475      1.0  0.30882  0.05075  0.39683  1.0000
  H   H476      1.0  0.32071  0.07422  0.38608  1.0000
  C   C282      1.0  0.42927  0.10871  0.45629  1.0000
  C   C283      1.0  0.24800  0.27404  0.26623  1.0000
  H   H477      1.0  0.42960  0.12608  0.45074  1.0000
  H   H478      1.0  0.26215  0.28096  0.32815  1.0000
  C   C284      1.0  0.24388  0.25008  0.27169  1.0000
  H   H479      1.0  0.47403  0.12275  0.43519  1.0000
  H   H480      1.0  0.21192  0.12464  0.22411  1.0000
  H   H481      1.0  0.21507  0.25637  0.28772  1.0000
  S   S66       1.0  0.47730  0.01786  0.43607  1.0000
  H   H482      1.0  0.03383  0.11293  0.33241  1.0000
  Fe  Fe35      1.0  0.00415  0.22025  0.37345  1.0000
  H   H483      1.0  0.00929  0.31305  0.33235  1.0000
  H   H484      1.0  0.24226  0.28430  0.27481  1.0000
  H   H485      1.0  0.19755  0.02574  0.41208  1.0000
  H   H486      1.0  0.04673  0.24674  0.39431  1.0000
  H   H487      1.0  0.48537  0.30274  0.42284  1.0000
  H   H488      1.0  0.40144  0.13755  0.22887  1.0000
  S   S67       1.0  0.99419  0.23599  0.35239  1.0000
  H   H489      1.0  0.44755  0.29665  0.41750  1.0000
  H   H490      1.0  0.28174  0.01761  0.32016  1.0000
  C   C285      1.0  0.99522  0.12454  0.36253  1.0000
  H   H491      1.0  0.48233  0.07828  0.35089  1.0000
  H   H492      1.0  0.04671  0.30830  0.34000  1.0000
  H   H493      1.0  0.07041  0.99558  0.36962  1.0000
  H   H494      1.0  0.47945  0.28383  0.45739  1.0000
  H   H495      1.0  0.22202  0.99135  0.42995  1.0000
  H   H496      1.0  0.14464  0.99257  0.43638  1.0000
  C   C286      1.0  0.22556  0.99054  0.44082  1.0000
  C   C287      1.0  0.48827  0.10332  0.39340  1.0000
  C   C288      1.0  0.38635  0.99087  0.41531  1.0000
  H   H497      1.0  0.48343  0.10775  0.34795  1.0000
  H   H498      1.0  0.03613  0.30785  0.39111  1.0000
  C   C289      1.0  0.47009  0.09659  0.47006  1.0000
  C   C290      1.0  0.48701  0.12609  0.39387  1.0000
  H   H499      1.0  0.48777  0.06336  0.45524  1.0000
  H   H500      1.0  0.10388  0.30196  0.36536  1.0000
  H   H501      1.0  0.06603  0.30432  0.35894  1.0000
  H   H502      1.0  0.00471  0.31255  0.36292  1.0000
  H   H503      1.0  0.03855  0.99027  0.47079  1.0000
  H   H504      1.0  0.20953  0.98437  0.46245  1.0000
  H   H505      1.0  0.42720  0.10859  0.46787  1.0000
  C   C291      1.0  0.15555  0.98145  0.45724  1.0000
  H   H506      1.0  0.36118  0.98119  0.34609  1.0000
  H   H507      1.0  0.07375  0.98112  0.40128  1.0000
  H   H508      1.0  0.13811  0.98059  0.46286  1.0000
  C   C292      1.0  0.18286  0.98068  0.39430  1.0000
  C   C293      1.0  0.47818  0.98199  0.57575  1.0000
  Fe  Fe36      1.0  0.07697  0.01838  0.57157  1.0000
  S   S68       1.0  0.06600  0.05184  0.55925  1.0000
  S   S69       1.0  0.09680  0.01404  0.58945  1.0000
  H   H509      1.0  0.99663  0.99221  0.55434  1.0000
  S   S70       1.0  0.02884  0.02805  0.54903  1.0000
  Fe  Fe37      1.0  0.06493  0.03284  0.54182  1.0000
  S   S71       1.0  0.07550  0.04750  0.51889  1.0000
  Fe  Fe38      1.0  0.03108  0.04462  0.56732  1.0000
  S   S72       1.0  0.00349  0.06818  0.57820  1.0000
  S   S73       1.0  0.07950  0.99992  0.55342  1.0000
  S   S74       1.0  0.04193  0.01219  0.58067  1.0000
  Fe  Fe39      1.0  0.19631  0.12436  0.67263  1.0000
  S   S75       1.0  0.15921  0.12340  0.67821  1.0000
  S   S76       1.0  0.22166  0.09695  0.66390  1.0000
  Fe  Fe40      1.0  0.19219  0.17225  0.67778  1.0000
  S   S77       1.0  0.15480  0.17491  0.68321  1.0000
  S   S78       1.0  0.20280  0.20471  0.67938  1.0000
  Fe  Fe41      1.0  0.16132  0.14103  0.69610  1.0000
  C   C294      1.0  0.43087  0.22993  0.70865  1.0000
  Fe  Fe42      1.0  0.15614  0.15734  0.66495  1.0000
  S   S79       1.0  0.13569  0.16917  0.64713  1.0000
  S   S80       1.0  0.19873  0.13913  0.69166  1.0000
  S   S81       1.0  0.19310  0.15748  0.65833  1.0000
  Fe  Fe43      1.0  0.20908  0.99569  0.63402  1.0000
  S   S82       1.0  0.18517  0.01684  0.64851  1.0000
  S   S83       1.0  0.22717  0.00960  0.61273  1.0000
  C   C295      1.0  0.04616  0.18249  0.69215  1.0000
  H   H510      1.0  0.31066  0.06515  0.62881  1.0000
  Fe  Fe44      1.0  0.00658  0.17448  0.60808  1.0000
  S   S84       1.0  0.02588  0.19503  0.61665  1.0000
  S   S85       1.0  0.02504  0.15961  0.58880  1.0000
  Fe  Fe45      1.0  0.01216  0.17718  0.63794  1.0000
  S   S86       1.0  0.03250  0.16105  0.65542  1.0000
  H   H511      1.0  0.04999  0.20092  0.70771  1.0000
  H   H512      1.0  0.09136  0.11771  0.69096  1.0000
  C   C296      1.0  0.46626  0.13731  0.57259  1.0000
  H   H513      1.0  0.03344  0.19638  0.56117  1.0000
  Fe  Fe46      1.0  0.30587  0.26158  0.67609  1.0000
  S   S87       1.0  0.31660  0.28171  0.65487  1.0000
  S   S88       1.0  0.30036  0.22560  0.67896  1.0000
  Fe  Fe47      1.0  0.31310  0.29614  0.69218  1.0000
  H   H514      1.0  0.14521  0.13109  0.59715  1.0000
  S   S89       1.0  0.99448  0.15519  0.62926  1.0000
  Fe  Fe48      1.0  0.34432  0.28868  0.66454  1.0000
  S   S90       1.0  0.37835  0.29293  0.65139  1.0000
  H   H515      1.0  0.03166  0.01292  0.50061  1.0000
  S   S91       1.0  0.33554  0.26624  0.68508  1.0000
  S   S92       1.0  0.28259  0.29032  0.68456  1.0000
  S   S93       1.0  0.44538  0.04795  0.55524  1.0000
  Fe  Fe49      1.0  0.38813  0.05478  0.58065  1.0000
  S   S94       1.0  0.39580  0.07830  0.56027  1.0000
  S   S95       1.0  0.35318  0.06088  0.59344  1.0000
  Fe  Fe50      1.0  0.41087  0.04750  0.55084  1.0000
  S   S96       1.0  0.39871  0.04089  0.53163  1.0000
  Fe  Fe51      1.0  0.42951  0.07695  0.56660  1.0000
  S   S97       1.0  0.44890  0.10625  0.56282  1.0000
  S   S98       1.0  0.42070  0.05593  0.58774  1.0000
  S   S99       1.0  0.46133  0.21584  0.65618  1.0000
  C   C297      1.0  0.45189  0.12110  0.57607  1.0000
  H   H516      1.0  0.47620  0.06980  0.57907  1.0000
  H   H517      1.0  0.48073  0.16138  0.58011  1.0000
  H   H518      1.0  0.04508  0.21941  0.55083  1.0000
  H   H519      1.0  0.36222  0.24443  0.71963  1.0000
  C   C298      1.0  0.11916  0.08619  0.66066  1.0000
  H   H520      1.0  0.10742  0.20321  0.69431  1.0000
  C   C299      1.0  0.44165  0.03741  0.48798  1.0000
  C   C300      1.0  0.41896  0.03532  0.49020  1.0000
  C   C301      1.0  0.40587  0.03695  0.50358  1.0000
  C   C302      1.0  0.41538  0.04068  0.51479  1.0000
  C   C303      1.0  0.43800  0.04315  0.51249  1.0000
  C   C304      1.0  0.45105  0.04159  0.49910  1.0000
  H   H521      1.0  0.13195  0.99859  0.50779  1.0000
  C   C305      1.0  0.27647  0.01968  0.57500  1.0000
  H   H522      1.0  0.44546  0.04601  0.52107  1.0000
  H   H523      1.0  0.46864  0.04318  0.49743  1.0000
  H   H524      1.0  0.09156  0.10219  0.70861  1.0000
  H   H525      1.0  0.03186  0.25017  0.56069  1.0000
  C   C306      1.0  0.45860  0.14453  0.59688  1.0000
  Fe  Fe52      1.0  0.04339  0.99627  0.56169  1.0000
  C   C307      1.0  0.08472  0.00590  0.48342  1.0000
  C   C308      1.0  0.40101  0.27106  0.65267  1.0000
  C   C309      1.0  0.42128  0.27308  0.64341  1.0000
  C   C310      1.0  0.43966  0.25593  0.64418  1.0000
  C   C311      1.0  0.43810  0.23698  0.65452  1.0000
  C   C312      1.0  0.41789  0.23503  0.66387  1.0000
  C   C313      1.0  0.39925  0.25184  0.66276  1.0000
  H   H526      1.0  0.42268  0.28784  0.63550  1.0000
  H   H527      1.0  0.45512  0.25744  0.63688  1.0000
  H   H528      1.0  0.41655  0.22028  0.67180  1.0000
  H   H529      1.0  0.38353  0.25003  0.66970  1.0000
  C   C314      1.0  0.33657  0.03932  0.59895  1.0000
  C   C315      1.0  0.31314  0.04464  0.60229  1.0000
  H   H530      1.0  0.38838  0.03498  0.50532  1.0000
  H   H531      1.0  0.30549  0.06192  0.60140  1.0000
  H   H532      1.0  0.28155  0.03197  0.60919  1.0000
  C   C316      1.0  0.23020  0.20980  0.67917  1.0000
  C   C317      1.0  0.23340  0.23171  0.67907  1.0000
  C   C318      1.0  0.25484  0.23672  0.67893  1.0000
  C   C319      1.0  0.27326  0.21979  0.67901  1.0000
  C   C320      1.0  0.27006  0.19776  0.67939  1.0000
  C   C321      1.0  0.24858  0.19276  0.67941  1.0000
  H   H533      1.0  0.21924  0.24496  0.67892  1.0000
  H   H534      1.0  0.25710  0.25372  0.67866  1.0000
  H   H535      1.0  0.28428  0.18459  0.67948  1.0000
  H   H536      1.0  0.24627  0.17583  0.67949  1.0000
  C   C322      1.0  0.10727  0.16608  0.64936  1.0000
  C   C323      1.0  0.09384  0.17924  0.63981  1.0000
  C   C324      1.0  0.07097  0.17762  0.64146  1.0000
  C   C325      1.0  0.06140  0.16268  0.65263  1.0000
  C   C326      1.0  0.07501  0.14902  0.66194  1.0000
  C   C327      1.0  0.09793  0.15066  0.66027  1.0000
  H   H537      1.0  0.10104  0.19112  0.63129  1.0000
  H   H538      1.0  0.06066  0.18832  0.63430  1.0000
  H   H539      1.0  0.06774  0.13726  0.67050  1.0000
  H   H540      1.0  0.10837  0.14012  0.66745  1.0000
  C   C328      1.0  0.21094  0.07525  0.65935  1.0000
  C   C329      1.0  0.22338  0.06368  0.64865  1.0000
  C   C330      1.0  0.21553  0.04582  0.64516  1.0000
  C   C331      1.0  0.19514  0.03951  0.65234  1.0000
  C   C332      1.0  0.18243  0.05140  0.66279  1.0000
  C   C333      1.0  0.19030  0.06923  0.66629  1.0000
  H   H541      1.0  0.23897  0.06873  0.64294  1.0000
  H   H542      1.0  0.22524  0.03696  0.63693  1.0000
  H   H543      1.0  0.16672  0.04646  0.66842  1.0000
  H   H544      1.0  0.18071  0.07788  0.67465  1.0000
  C   C334      1.0  0.12620  0.00876  0.58723  1.0000
  H   H545      1.0  0.31489  0.01802  0.66486  1.0000
  H   H546      1.0  0.48940  0.29331  0.64062  1.0000
  H   H547      1.0  0.11796  0.12299  0.62083  1.0000
  C   C335      1.0  0.15980  0.00143  0.59818  1.0000
  C   C336      1.0  0.13652  0.00705  0.59912  1.0000
  C   C337      1.0  0.44416  0.12839  0.60033  1.0000
  H   H548      1.0  0.33560  0.04439  0.56835  1.0000
  Fe  Fe53      1.0  0.25598  0.98327  0.61835  1.0000
  H   H549      1.0  0.46192  0.20794  0.70320  1.0000
  C   C338      1.0  0.00967  0.09359  0.58106  1.0000
  H   H550      1.0  0.35363  0.01091  0.57310  1.0000
  H   H551      1.0  0.38453  0.98449  0.56204  1.0000
  C   C339      1.0  0.01879  0.13422  0.58607  1.0000
  C   C340      1.0  0.03302  0.12281  0.57585  1.0000
  C   C341      1.0  0.02860  0.10247  0.57345  1.0000
  H   H552      1.0  0.40283  0.99162  0.49590  1.0000
  H   H553      1.0  0.04751  0.12972  0.56975  1.0000
  H   H554      1.0  0.03956  0.09396  0.56546  1.0000
  C   C342      1.0  0.08653  0.99539  0.49735  1.0000
  C   C343      1.0  0.08338  0.00796  0.50836  1.0000
  C   C344      1.0  0.07877  0.03118  0.50543  1.0000
  H   H555      1.0  0.16028  0.98496  0.50345  1.0000
  C   C345      1.0  0.10197  0.21940  0.66660  1.0000
  H   H556      1.0  0.08487  0.99975  0.51906  1.0000
  H   H557      1.0  0.32573  0.00495  0.68988  1.0000
  H   H558      1.0  0.11910  0.08769  0.63837  1.0000
  C   C346      1.0  0.48643  0.99118  0.56188  1.0000
  H   H559      1.0  0.25531  0.17593  0.71024  1.0000
  H   H560      1.0  0.41268  0.24616  0.69134  1.0000
  C   C347      1.0  0.24915  0.11310  0.71028  1.0000
  H   H561      1.0  0.21908  0.01989  0.67763  1.0000
  H   H562      1.0  0.20710  0.14099  0.63046  1.0000
  H   H563      1.0  0.16917  0.20454  0.70681  1.0000
  C   C348      1.0  0.22772  0.14956  0.71705  1.0000
  H   H564      1.0  0.01966  0.04479  0.62465  1.0000
  C   C349      1.0  0.45060  0.22168  0.69783  1.0000
  H   H565      1.0  0.47733  0.06350  0.61706  1.0000
  H   H566      1.0  0.25605  0.00198  0.68436  1.0000
  H   H567      1.0  0.11685  0.22432  0.66944  1.0000
  H   H568      1.0  0.06731  0.13852  0.70924  1.0000
  H   H569      1.0  0.21041  0.19182  0.70839  1.0000
  C   C350      1.0  0.00974  0.26051  0.53930  1.0000
  H   H570      1.0  0.28255  0.02804  0.63625  1.0000
  Fe  Fe54      1.0  0.99385  0.21924  0.61869  1.0000
  H   H571      1.0  0.46109  0.07360  0.60321  1.0000
  H   H572      1.0  0.43991  0.99223  0.55901  1.0000
  H   H573      1.0  0.04808  0.19727  0.68381  1.0000
  N   N17       1.0  0.28668  0.01038  0.65729  1.0000
  H   H574      1.0  0.45861  0.08448  0.47569  1.0000
  C   C351      1.0  0.02739  0.20414  0.53932  1.0000
  N   N18       1.0  0.08244  0.18127  0.70255  1.0000
  C   C352      1.0  0.38008  0.27570  0.70162  1.0000
  H   H575      1.0  0.30048  0.05410  0.65494  1.0000
  C   C353      1.0  0.11688  0.15695  0.59982  1.0000
  C   C354      1.0  0.46630  0.03772  0.60948  1.0000
  H   H576      1.0  0.42538  0.26384  0.69847  1.0000
  H   H577      1.0  0.13150  0.00690  0.56496  1.0000
  H   H578      1.0  0.45187  0.17284  0.65156  1.0000
  C   C355      1.0  0.00795  0.03500  0.51256  1.0000
  H   H579      1.0  0.48248  0.11022  0.49321  1.0000
  H   H580      1.0  0.48454  0.09968  0.61324  1.0000
  C   C356      1.0  0.29955  0.02773  0.60668  1.0000
  H   H581      1.0  0.44457  0.21525  0.68956  1.0000
  H   H582      1.0  0.99624  0.30056  0.59793  1.0000
  H   H583      1.0  0.11522  0.11566  0.69985  1.0000
  C   C357      1.0  0.21242  0.12529  0.62600  1.0000
  H   H584      1.0  0.05335  0.16719  0.68759  1.0000
  H   H585      1.0  0.07379  0.05968  0.48910  1.0000
  C   C358      1.0  0.34634  0.01699  0.60021  1.0000
  H   H586      1.0  0.36437  0.01269  0.59786  1.0000
  H   H587      1.0  0.07944  0.21617  0.69303  1.0000
  H   H588      1.0  0.03979  0.21354  0.57920  1.0000
  C   C359      1.0  0.30941  0.00538  0.60783  1.0000
  C   C360      1.0  0.12196  0.09861  0.64544  1.0000
  H   H589      1.0  0.05722  0.24719  0.57795  1.0000
  C   C361      1.0  0.29225  0.02831  0.64479  1.0000
  H   H590      1.0  0.07630  0.13928  0.62227  1.0000
  H   H591      1.0  0.31826  0.10499  0.56095  1.0000
  C   C362      1.0  0.17253  0.12490  0.62278  1.0000
  C   C363      1.0  0.16472  0.07087  0.62414  1.0000
  H   H592      1.0  0.04437  0.18031  0.52561  1.0000
  H   H593      1.0  0.21816  0.12932  0.61442  1.0000
  C   C364      1.0  0.14537  0.10614  0.64088  1.0000
  H   H594      1.0  0.12115  0.16675  0.58913  1.0000
  H   H595      1.0  0.01842  0.04856  0.50947  1.0000
  C   C365      1.0  0.25142  0.99841  0.67464  1.0000
  C   C366      1.0  0.13323  0.13069  0.62006  1.0000
  H   H596      1.0  0.22005  0.99809  0.66740  1.0000
  H   H597      1.0  0.46017  0.03491  0.60010  1.0000
  C   C367      1.0  0.99997  0.12527  0.59380  1.0000
  S   S100      1.0  0.45912  0.03418  0.47171  1.0000
  H   H598      1.0  0.17850  0.12964  0.61125  1.0000
  H   H599      1.0  0.37920  0.27090  0.69133  1.0000
  H   H600      1.0  0.37362  0.23607  0.69378  1.0000
  H   H601      1.0  0.02894  0.21812  0.53034  1.0000
  H   H602      1.0  0.04810  0.23536  0.59609  1.0000
  H   H603      1.0  0.12832  0.14367  0.62701  1.0000
  Fe  Fe55      1.0  0.43467  0.02701  0.57609  1.0000
  H   H604      1.0  0.31018  0.02520  0.63997  1.0000
  H   H605      1.0  0.12204  0.09666  0.66803  1.0000
  H   H606      1.0  0.16811  0.14075  0.62725  1.0000
  N   N19       1.0  0.15206  0.11348  0.62517  1.0000
  H   H607      1.0  0.43272  0.05051  0.61938  1.0000
  C   C368      1.0  0.48593  0.29256  0.62995  1.0000
  H   H608      1.0  0.03184  0.26002  0.58795  1.0000
  H   H609      1.0  0.29689  0.00690  0.69876  1.0000
  H   H610      1.0  0.15796  0.09251  0.64514  1.0000
  C   C369      1.0  0.09286  0.15929  0.69786  1.0000
  H   H611      1.0  0.19966  0.09643  0.62422  1.0000
  C   C370      1.0  0.31873  0.98274  0.64574  1.0000
  C   C371      1.0  0.02100  0.18202  0.69655  1.0000
  H   H612      1.0  0.33012  0.02524  0.50190  1.0000
  H   H613      1.0  0.10864  0.11339  0.64495  1.0000
  H   H614      1.0  0.08199  0.19311  0.67247  1.0000
  H   H615      1.0  0.26379  0.02785  0.56814  1.0000
  Fe  Fe56      1.0  0.48412  0.20935  0.63572  1.0000
  H   H616      1.0  0.11148  0.15760  0.69648  1.0000
  H   H617      1.0  0.06269  0.18991  0.53480  1.0000
  H   H618      1.0  0.42906  0.17724  0.66599  1.0000
  H   H619      1.0  0.22677  0.11561  0.63103  1.0000
  S   S101      1.0  0.14087  0.13816  0.71812  1.0000
  H   H620      1.0  0.31520  0.98060  0.70038  1.0000
  C   C372      1.0  0.22583  0.00227  0.67657  1.0000
  H   H621      1.0  0.39431  0.21433  0.70035  1.0000
  H   H622      1.0  0.18913  0.10713  0.64071  1.0000
  C   C373      1.0  0.08573  0.13804  0.70769  1.0000
  C   C374      1.0  0.36023  0.20951  0.70846  1.0000
  H   H623      1.0  0.10892  0.16873  0.60728  1.0000
  H   H624      1.0  0.16808  0.09838  0.60674  1.0000
  H   H625      1.0  0.15399  0.01511  0.50080  1.0000
  H   H626      1.0  0.10605  0.21677  0.65537  1.0000
  C   C375      1.0  0.09116  0.20037  0.69198  1.0000
  H   H627      1.0  0.41158  0.03214  0.48168  1.0000
  H   H628      1.0  0.46037  0.23531  0.69263  1.0000
  H   H629      1.0  0.42961  0.10442  0.59282  1.0000
  C   C376      1.0  0.02302  0.01261  0.51172  1.0000
  H   H630      1.0  0.43546  0.12491  0.61107  1.0000
  C   C377      1.0  0.44081  0.11673  0.59001  1.0000
  H   H631      1.0  0.43940  0.14960  0.66193  1.0000
  H   H632      1.0  0.11085  0.18482  0.67423  1.0000
  S   S102      1.0  0.40128  0.02413  0.57091  1.0000
  H   H633      1.0  0.14044  0.09296  0.61308  1.0000
  C   C378      1.0  0.19322  0.11158  0.62905  1.0000
  H   H634      1.0  0.36408  0.19755  0.71807  1.0000
  C   C379      1.0  0.14356  0.99978  0.48523  1.0000
  C   C380      1.0  0.09616  0.19787  0.67608  1.0000
  S   S103      1.0  0.46197  0.15858  0.61043  1.0000
  H   H635      1.0  0.10472  0.14608  0.59921  1.0000
  H   H636      1.0  0.15667  0.05391  0.60840  1.0000
  H   H637      1.0  0.08912  0.15860  0.68734  1.0000
  N   N20       1.0  0.07114  0.08271  0.60729  1.0000
  C   C381      1.0  0.08222  0.07664  0.59304  1.0000
  C   C382      1.0  0.04754  0.07705  0.61086  1.0000
  C   C383      1.0  0.06974  0.10761  0.60617  1.0000
  C   C384      1.0  0.08470  0.07181  0.61887  1.0000
  C   C385      1.0  0.08908  0.04613  0.62164  1.0000
  C   C386      1.0  0.10656  0.08150  0.58784  1.0000
  C   C387      1.0  0.05389  0.11837  0.61832  1.0000
  C   C388      1.0  0.04342  0.05577  0.60607  1.0000
  H   H638      1.0  0.28847  0.02551  0.67516  1.0000
  C   C389      1.0  0.10609  0.03742  0.63178  1.0000
  C   C390      1.0  0.11555  0.07489  0.57324  1.0000
  C   C391      1.0  0.05961  0.14106  0.61903  1.0000
  H   H639      1.0  0.07185  0.08537  0.58479  1.0000
  H   H640      1.0  0.08288  0.05874  0.59286  1.0000
  H   H641      1.0  0.04147  0.07594  0.62247  1.0000
  H   H642      1.0  0.03577  0.09071  0.60570  1.0000
  H   H643      1.0  0.06392  0.11647  0.59611  1.0000
  H   H644      1.0  0.08666  0.11203  0.60563  1.0000
  H   H645      1.0  0.10114  0.07792  0.61683  1.0000
  H   H646      1.0  0.07636  0.07675  0.62920  1.0000
  H   H647      1.0  0.09578  0.03936  0.61173  1.0000
  H   H648      1.0  0.07330  0.03960  0.62670  1.0000
  H   H649      1.0  0.10748  0.09946  0.58688  1.0000
  H   H650      1.0  0.11789  0.07176  0.59520  1.0000
  H   H651      1.0  0.05463  0.10804  0.62888  1.0000
  H   H652      1.0  0.03626  0.12086  0.61643  1.0000
  H   H653      1.0  0.04392  0.05881  0.59440  1.0000
  H   H654      1.0  0.05616  0.04116  0.60858  1.0000
  H   H655      1.0  0.26944  0.02199  0.58609  1.0000
  H   H656      1.0  0.13654  0.98444  0.48535  1.0000
  H   H657      1.0  0.47489  0.14082  0.56183  1.0000
  H   H658      1.0  0.10810  0.01895  0.63411  1.0000
  H   H659      1.0  0.12270  0.04230  0.62690  1.0000
  H   H660      1.0  0.10035  0.04394  0.64193  1.0000
  H   H661      1.0  0.11563  0.05682  0.57363  1.0000
  H   H662      1.0  0.10509  0.08447  0.56531  1.0000
  H   H663      1.0  0.13302  0.07837  0.56973  1.0000
  H   H664      1.0  0.05940  0.15218  0.60863  1.0000
  C   C392      1.0  0.33081  0.03736  0.50881  1.0000
  H   H665      1.0  0.04700  0.14888  0.62707  1.0000
  H   H666      1.0  0.46193  0.11292  0.47317  1.0000
  C   C393      1.0  0.17109  0.05442  0.61363  1.0000
  H   H667      1.0  0.14531  0.11998  0.64674  1.0000
  H   H668      1.0  0.13119  0.07044  0.66153  1.0000
  H   H669      1.0  0.17621  0.03744  0.61932  1.0000
  H   H670      1.0  0.18544  0.05904  0.60543  1.0000
  H   H671      1.0  0.10188  0.08208  0.66388  1.0000
  H   H672      1.0  0.00675  0.28506  0.52032  1.0000
  C   C394      1.0  0.43584  0.16744  0.65727  1.0000
  C   C395      1.0  0.13815  0.14301  0.60461  1.0000
  S   S104      1.0  0.46987  0.21775  0.61555  1.0000
  H   H673      1.0  0.15025  0.15467  0.60385  1.0000
  H   H674      1.0  0.08755  0.23303  0.66759  1.0000
  C   C396      1.0  0.07727  0.04170  0.49145  1.0000
  N   N21       1.0  0.33191  0.03239  0.54942  1.0000
  C   C397      1.0  0.33806  0.04939  0.55667  1.0000
  H   H675      1.0  0.25702  0.98063  0.67373  1.0000
  C   C398      1.0  0.33461  0.04141  0.53370  1.0000
  C   C399      1.0  0.30806  0.02787  0.55454  1.0000
  C   C400      1.0  0.29812  0.02980  0.57025  1.0000
  C   C401      1.0  0.32544  0.07341  0.55322  1.0000
  H   H676      1.0  0.30985  0.02140  0.57758  1.0000
  N   N22       1.0  0.00985  0.22698  0.55982  1.0000
  H   H677      1.0  0.15160  0.06450  0.63264  1.0000
  H   H678      1.0  0.22946  0.15579  0.70542  1.0000
  C   C402      1.0  0.32658  0.08774  0.56411  1.0000
  H   H679      1.0  0.04440  0.17012  0.54422  1.0000
  H   H680      1.0  0.35635  0.05036  0.55371  1.0000
  H   H681      1.0  0.45199  0.03829  0.63174  1.0000
  C   C403      1.0  0.02045  0.04952  0.61299  1.0000
  H   H682      1.0  0.17293  0.99650  0.56331  1.0000
  H   H683      1.0  0.35126  0.04711  0.52997  1.0000
  H   H684      1.0  0.32194  0.05642  0.53153  1.0000
  H   H685      1.0  0.29626  0.03949  0.54814  1.0000
  H   H686      1.0  0.00245  0.99298  0.52808  1.0000
  H   H687      1.0  0.29417  0.04753  0.57166  1.0000
  H   H688      1.0  0.48743  0.04117  0.58304  1.0000
  H   H689      1.0  0.33323  0.08155  0.54270  1.0000
  H   H690      1.0  0.30754  0.07338  0.55281  1.0000
  H   H691      1.0  0.01750  0.03514  0.60868  1.0000
  C   C404      1.0  0.46964  0.14896  0.58293  1.0000
  H   H692      1.0  0.23765  0.21336  0.71200  1.0000
  H   H693      1.0  0.31788  0.08098  0.57471  1.0000
  H   H694      1.0  0.03569  0.01143  0.51867  1.0000
  S   S105      1.0  0.29364  0.98324  0.61378  1.0000
  H   H695      1.0  0.13063  0.01430  0.48278  1.0000
  C   C405      1.0  0.28872  0.05252  0.64795  1.0000
  C   C406      1.0  0.16473  0.19717  0.71813  1.0000
  H   H696      1.0  0.34428  0.08830  0.56481  1.0000
  Fe  Fe57      1.0  0.48504  0.18291  0.61202  1.0000
  H   H697      1.0  0.01496  0.22543  0.59000  1.0000
  C   C407      1.0  0.31082  0.99624  0.69304  1.0000
  H   H698      1.0  0.01258  0.19731  0.70088  1.0000
  H   H699      1.0  0.34428  0.99837  0.54608  1.0000
  N   N23       1.0  0.39639  0.20047  0.63059  1.0000
  C   C408      1.0  0.39012  0.22538  0.62706  1.0000
  C   C409      1.0  0.37531  0.19058  0.63696  1.0000
  C   C410      1.0  0.41296  0.19544  0.64082  1.0000
  C   C411      1.0  0.40719  0.19042  0.61753  1.0000
  C   C412      1.0  0.39423  0.19675  0.60478  1.0000
  C   C413      1.0  0.40926  0.23834  0.61891  1.0000
  C   C414      1.0  0.41914  0.17049  0.64703  1.0000
  C   C415      1.0  0.36348  0.19672  0.65159  1.0000
  C   C416      1.0  0.34275  0.18529  0.65707  1.0000
  C   C417      1.0  0.40684  0.18528  0.59237  1.0000
  C   C418      1.0  0.40030  0.26291  0.61453  1.0000
  H   H700      1.0  0.38384  0.23268  0.63693  1.0000
  H   H701      1.0  0.37588  0.22966  0.62097  1.0000
  H   H702      1.0  0.36262  0.19597  0.62974  1.0000
  H   H703      1.0  0.37868  0.17210  0.63795  1.0000
  H   H704      1.0  0.40684  0.20487  0.64977  1.0000
  H   H705      1.0  0.42902  0.20140  0.63560  1.0000
  H   H706      1.0  0.42442  0.19463  0.61379  1.0000
  H   H707      1.0  0.40964  0.17193  0.62008  1.0000
  H   H708      1.0  0.39212  0.21494  0.60094  1.0000
  H   H709      1.0  0.37741  0.19152  0.60770  1.0000
  H   H710      1.0  0.42199  0.23735  0.62576  1.0000
  H   H711      1.0  0.41771  0.23175  0.60914  1.0000
  H   H712      1.0  0.42706  0.16065  0.63850  1.0000
  H   H713      1.0  0.40417  0.16328  0.65295  1.0000
  H   H714      1.0  0.37471  0.19151  0.65968  1.0000
  H   H715      1.0  0.35783  0.21492  0.65082  1.0000
  H   H716      1.0  0.33014  0.19110  0.64983  1.0000
  H   H717      1.0  0.34732  0.16692  0.65812  1.0000
  H   H718      1.0  0.33494  0.18950  0.66767  1.0000
  H   H719      1.0  0.42393  0.18991  0.58901  1.0000
  H   H720      1.0  0.40832  0.16690  0.59541  1.0000
  H   H721      1.0  0.39762  0.19040  0.58322  1.0000
  H   H722      1.0  0.38881  0.26485  0.60670  1.0000
  H   H723      1.0  0.39114  0.27039  0.62389  1.0000
  H   H724      1.0  0.41451  0.27211  0.60962  1.0000
  C   C419      1.0  0.05716  0.18425  0.70487  1.0000
  C   C420      1.0  0.37806  0.22481  0.70340  1.0000
  Fe  Fe58      1.0  0.21463  0.98261  0.60531  1.0000
  C   C421      1.0  0.01861  0.24140  0.56779  1.0000
  C   C422      1.0  0.02952  0.21162  0.55330  1.0000
  H   H725      1.0  0.01786  0.16714  0.70462  1.0000
  H   H726      1.0  0.36229  0.27900  0.70684  1.0000
  C   C423      1.0  0.02871  0.22929  0.58115  1.0000
  H   H727      1.0  0.17953  0.07052  0.62908  1.0000
  C   C424      1.0  0.29315  0.06905  0.63427  1.0000
  C   C425      1.0  0.04589  0.18496  0.53581  1.0000
  C   C426      1.0  0.15612  0.09459  0.61669  1.0000
  C   C427      1.0  0.04231  0.24393  0.58602  1.0000
  H   H728      1.0  0.08950  0.21745  0.71516  1.0000
  C   C428      1.0  0.33246  0.02518  0.52388  1.0000
  H   H729      1.0  0.14861  0.19074  0.71942  1.0000
  C   C429      1.0  0.30375  0.99080  0.68002  1.0000
  C   C430      1.0  0.29840  0.01229  0.66921  1.0000
  H   H730      1.0  0.37395  0.31009  0.67885  1.0000
  C   C431      1.0  0.44664  0.03686  0.62172  1.0000
  N   N24       1.0  0.39324  0.25694  0.71045  1.0000
  H   H731      1.0  0.01114  0.19858  0.53977  1.0000
  H   H732      1.0  0.29064  0.08618  0.63677  1.0000
  H   H733      1.0  0.31539  0.04990  0.50869  1.0000
  H   H734      1.0  0.40644  0.29632  0.69164  1.0000
  C   C432      1.0  0.38932  0.29819  0.69787  1.0000
  H   H735      1.0  0.27982  0.00152  0.57468  1.0000
  H   H736      1.0  0.01059  0.27375  0.54536  1.0000
  C   C433      1.0  0.41538  0.24992  0.70155  1.0000
  H   H737      1.0  0.25201  0.12060  0.69888  1.0000
  H   H738      1.0  0.25529  0.03103  0.66402  1.0000
  H   H739      1.0  0.28136  0.06859  0.62701  1.0000
  C   C434      1.0  0.13936  0.00551  0.57420  1.0000
  C   C435      1.0  0.99375  0.21374  0.57028  1.0000
  H   H740      1.0  0.35973  0.20000  0.69998  1.0000
  C   C436      1.0  0.08979  0.18128  0.71651  1.0000
  C   C437      1.0  0.16277  0.99964  0.57328  1.0000
  H   H741      1.0  0.34339  0.21943  0.71091  1.0000
  C   C438      1.0  0.33282  0.00013  0.60459  1.0000
  H   H742      1.0  0.27943  0.20530  0.70915  1.0000
  H   H743      1.0  0.25332  0.01287  0.65244  1.0000
  H   H744      1.0  0.00514  0.25484  0.57117  1.0000
  H   H745      1.0  0.34756  0.01223  0.52316  1.0000
  S   S106      1.0  0.45678  0.99733  0.58643  1.0000
  H   H746      1.0  0.05086  0.17220  0.71417  1.0000
  C   C439      1.0  0.34835  0.01114  0.55140  1.0000
  H   H747      1.0  0.00232  0.20310  0.57881  1.0000
  H   H748      1.0  0.48796  0.09769  0.58885  1.0000
  C   C440      1.0  0.17295  0.99719  0.58535  1.0000
  H   H749      1.0  0.27156  0.05794  0.65320  1.0000
  H   H750      1.0  0.00697  0.06364  0.61068  1.0000
  C   C441      1.0  0.08001  0.02910  0.48048  1.0000
  H   H751      1.0  0.38981  0.30496  0.70754  1.0000
  H   H752      1.0  0.32173  0.99171  0.63472  1.0000
  H   H753      1.0  0.36552  0.01435  0.54628  1.0000
  C   C442      1.0  0.47495  0.06048  0.60658  1.0000
  C   C443      1.0  0.26147  0.01404  0.66153  1.0000
  H   H754      1.0  0.30650  0.01099  0.55279  1.0000
  H   H755      1.0  0.47338  0.08322  0.49856  1.0000
  H   H756      1.0  0.21897  0.99146  0.68631  1.0000
  H   H757      1.0  0.31738  0.01692  0.52789  1.0000
  C   C444      1.0  0.09666  0.11718  0.70132  1.0000
  H   H758      1.0  0.44469  0.98425  0.49029  1.0000
  H   H759      1.0  0.47965  0.02371  0.61220  1.0000
  C   C445      1.0  0.00932  0.99298  0.51665  1.0000
  H   H760      1.0  0.34058  0.98287  0.60558  1.0000
  H   H761      1.0  0.02711  0.25349  0.53509  1.0000
  S   S107      1.0  0.20186  0.98770  0.58448  1.0000
  H   H762      1.0  0.34569  0.04582  0.50438  1.0000
  C   C446      1.0  0.34969  0.99951  0.56680  1.0000
  H   H763      1.0  0.44031  0.02074  0.62316  1.0000
  H   H764      1.0  0.42189  0.21569  0.71355  1.0000
  C   C447      1.0  0.48713  0.09225  0.49244  1.0000
  C   C448      1.0  0.14783  0.99958  0.50021  1.0000
  H   H765      1.0  0.01358  0.18117  0.68714  1.0000
  H   H766      1.0  0.26385  0.13709  0.71726  1.0000
  H   H767      1.0  0.47995  0.00802  0.55763  1.0000
  H   H768      1.0  0.40944  0.27656  0.72054  1.0000
  H   H769      1.0  0.10839  0.17706  0.71546  1.0000
  H   H770      1.0  0.99900  0.03566  0.52354  1.0000
  S   S108      1.0  0.99264  0.25670  0.61341  1.0000
  H   H771      1.0  0.33002  0.98788  0.65172  1.0000
  H   H772      1.0  0.42958  0.99489  0.51320  1.0000
  H   H773      1.0  0.46781  0.29824  0.62953  1.0000
  H   H774      1.0  0.99591  0.18377  0.56095  1.0000
  H   H775      1.0  0.09106  0.13599  0.71818  1.0000
  C   C449      1.0  0.29363  0.98817  0.65225  1.0000
  H   H776      1.0  0.45282  0.99766  0.53024  1.0000
  H   H777      1.0  0.31618  0.25867  0.71757  1.0000
  H   H778      1.0  0.43785  0.23503  0.71704  1.0000
  S   S109      1.0  0.31381  0.30671  0.71303  1.0000
  H   H779      1.0  0.41845  0.98560  0.54116  1.0000
  H   H780      1.0  0.26334  0.09965  0.71235  1.0000
  H   H781      1.0  0.00505  0.99288  0.48930  1.0000
  C   C450      1.0  0.99531  0.10514  0.59118  1.0000
  H   H782      1.0  0.99556  0.03785  0.50520  1.0000
  H   H783      1.0  0.99444  0.99722  0.51121  1.0000
  H   H784      1.0  0.16751  0.00006  0.60745  1.0000
  H   H785      1.0  0.18447  0.11207  0.72069  1.0000
  H   H786      1.0  0.23347  0.10559  0.71260  1.0000
  H   H787      1.0  0.18308  0.16509  0.71603  1.0000
  C   C451      1.0  0.20611  0.18588  0.71997  1.0000
  H   H788      1.0  0.12643  0.00957  0.60919  1.0000
  C   C452      1.0  0.37968  0.23803  0.71510  1.0000
  H   H789      1.0  0.28366  0.98714  0.64401  1.0000
  Fe  Fe59      1.0  0.29581  0.31117  0.66395  1.0000
  H   H790      1.0  0.46905  0.99786  0.50508  1.0000
  H   H791      1.0  0.17717  0.98546  0.47763  1.0000
  H   H792      1.0  0.99999  0.98856  0.58357  1.0000
  H   H793      1.0  0.17353  0.01477  0.47576  1.0000
  H   H794      1.0  0.33379  0.99325  0.57181  1.0000
  C   C453      1.0  0.16553  0.00077  0.47434  1.0000
  C   C454      1.0  0.26918  0.21001  0.71912  1.0000
  H   H795      1.0  0.99687  0.25947  0.52005  1.0000
  H   H796      1.0  0.21254  0.14127  0.71992  1.0000
  C   C455      1.0  0.98977  0.98200  0.59365  1.0000
  C   C456      1.0  0.99763  0.27172  0.52686  1.0000
  C   C457      1.0  0.99704  0.24232  0.54904  1.0000
  H   H797      1.0  0.26796  0.22829  0.71842  1.0000
  H   H798      1.0  0.48853  0.07168  0.55317  1.0000
  H   H799      1.0  0.28947  0.98149  0.68373  1.0000
  C   C458      1.0  0.24573  0.20367  0.72105  1.0000
  H   H800      1.0  0.99117  0.23290  0.54223  1.0000
  C   C459      1.0  0.24696  0.17837  0.72118  1.0000
  C   C460      1.0  0.24761  0.13066  0.71966  1.0000
  Fe  Fe60      1.0  0.16285  0.12180  0.82185  1.0000
  S   S110      1.0  0.17489  0.08966  0.81297  1.0000
  S   S111      1.0  0.13154  0.12468  0.83859  1.0000
  Fe  Fe61      1.0  0.20484  0.14171  0.80805  1.0000
  S   S112      1.0  0.22000  0.11101  0.79880  1.0000
  S   S113      1.0  0.22341  0.17144  0.80052  1.0000
  Fe  Fe62      1.0  0.18653  0.11196  0.79265  1.0000
  S   S114      1.0  0.19392  0.10463  0.77010  1.0000
  Fe  Fe63      1.0  0.20756  0.09099  0.81960  1.0000
  S   S115      1.0  0.23232  0.06122  0.82794  1.0000
  S   S116      1.0  0.17167  0.14390  0.80092  1.0000
  S   S117      1.0  0.19521  0.12190  0.82954  1.0000
  H   H801      1.0  0.30602  0.15310  0.84178  1.0000
  H   H802      1.0  0.26846  0.11289  0.78372  1.0000
  H   H803      1.0  0.00876  0.11985  0.84514  1.0000
  Fe  Fe64      1.0  0.45742  0.20864  0.87541  1.0000
  H   H804      1.0  0.39332  0.29463  0.74213  1.0000
  S   S118      1.0  0.42128  0.20887  0.87317  1.0000
  H   H805      1.0  0.14347  0.99380  0.90852  1.0000
  C   C461      1.0  0.43383  0.15689  0.86010  1.0000
  H   H806      1.0  0.42223  0.21134  0.79063  1.0000
  S   S119      1.0  0.46541  0.21862  0.89473  1.0000
  Fe  Fe65      1.0  0.30943  0.27664  0.80927  1.0000
  S   S120      1.0  0.34045  0.26997  0.79331  1.0000
  H   H807      1.0  0.08293  0.16824  0.72489  1.0000
  Fe  Fe66      1.0  0.30800  0.22729  0.81984  1.0000
  S   S121      1.0  0.33922  0.21675  0.80509  1.0000
  S   S122      1.0  0.28766  0.20235  0.83421  1.0000
  Fe  Fe67      1.0  0.35276  0.24440  0.81106  1.0000
  S   S123      1.0  0.38905  0.24281  0.81350  1.0000
  Fe  Fe68      1.0  0.32434  0.24303  0.78867  1.0000
  S   S124      1.0  0.32469  0.23307  0.76735  1.0000
  S   S125      1.0  0.32273  0.25291  0.82738  1.0000
  S   S126      1.0  0.29214  0.25173  0.80312  1.0000
  Fe  Fe69      1.0  0.02563  0.20846  0.86080  1.0000
  S   S127      1.0  0.02601  0.19233  0.88332  1.0000
  S   S128      1.0  0.05627  0.20917  0.84351  1.0000
  H   H808      1.0  0.09443  0.29438  0.89969  1.0000
  H   H809      1.0  0.28606  0.17917  0.75609  1.0000
  H   H810      1.0  0.34877  0.24771  0.85728  1.0000
  H   H811      1.0  0.27208  0.22537  0.77754  1.0000
  H   H812      1.0  0.44078  0.18661  0.78626  1.0000
  H   H813      1.0  0.12183  0.16585  0.81876  1.0000
  C   C462      1.0  0.17703  0.11680  0.73087  1.0000
  C   C463      1.0  0.03836  0.26769  0.91616  1.0000
  C   C464      1.0  0.02791  0.26408  0.90529  1.0000
  C   C465      1.0  0.02479  0.28133  0.89390  1.0000
  H   H814      1.0  0.00379  0.13002  0.86147  1.0000
  H   H815      1.0  0.00916  0.01535  0.93318  1.0000
  C   C466      1.0  0.32196  0.05043  0.83446  1.0000
  H   H816      1.0  0.02484  0.19043  0.82591  1.0000
  C   C467      1.0  0.32162  0.25377  0.75237  1.0000
  H   H817      1.0  0.30919  0.06546  0.81534  1.0000
  C   C468      1.0  0.41391  0.29346  0.93199  1.0000
  H   H818      1.0  0.32176  0.28126  0.76291  1.0000
  C   C469      1.0  0.41214  0.21883  0.85667  1.0000
  C   C470      1.0  0.42516  0.23089  0.84557  1.0000
  C   C471      1.0  0.41798  0.23794  0.83235  1.0000
  C   C472      1.0  0.39741  0.23348  0.83023  1.0000
  C   C473      1.0  0.38408  0.22182  0.84141  1.0000
  C   C474      1.0  0.39145  0.21451  0.85460  1.0000
  H   H819      1.0  0.44090  0.23462  0.84712  1.0000
  H   H820      1.0  0.42835  0.24700  0.82374  1.0000
  H   H821      1.0  0.36818  0.21829  0.83987  1.0000
  H   H822      1.0  0.38118  0.20529  0.86318  1.0000
  H   H823      1.0  0.17768  0.17130  0.73382  1.0000
  H   H824      1.0  0.29809  0.10020  0.80470  1.0000
  C   C475      1.0  0.05366  0.09729  0.85168  1.0000
  H   H825      1.0  0.11071  0.07495  0.84663  1.0000
  H   H826      1.0  0.01657  0.27896  0.88554  1.0000
  H   H827      1.0  0.29880  0.20412  0.75164  1.0000
  H   H828      1.0  0.08972  0.18547  0.90229  1.0000
  C   C476      1.0  0.24194  0.17784  0.81039  1.0000
  C   C477      1.0  0.23791  0.17473  0.82521  1.0000
  C   C478      1.0  0.25235  0.18171  0.83257  1.0000
  C   C479      1.0  0.27054  0.19217  0.82510  1.0000
  C   C480      1.0  0.27481  0.19470  0.81032  1.0000
  C   C481      1.0  0.26065  0.18741  0.80305  1.0000
  H   H829      1.0  0.22334  0.16761  0.83095  1.0000
  H   H830      1.0  0.24899  0.17970  0.84402  1.0000
  H   H831      1.0  0.28904  0.20232  0.80447  1.0000
  H   H832      1.0  0.26419  0.18927  0.79166  1.0000
  C   C482      1.0  0.17880  0.11495  0.75591  1.0000
  C   C483      1.0  0.18842  0.10945  0.74252  1.0000
  N   N25       1.0  0.38666  0.30033  0.84821  1.0000
  H   H833      1.0  0.29402  0.19048  0.76984  1.0000
  C   C484      1.0  0.14613  0.13522  0.74591  1.0000
  C   C485      1.0  0.15770  0.12810  0.75756  1.0000
  H   H834      1.0  0.20468  0.09919  0.74120  1.0000
  H   H835      1.0  0.38597  0.30636  0.86948  1.0000
  H   H836      1.0  0.12965  0.14505  0.74727  1.0000
  H   H837      1.0  0.15016  0.13239  0.76785  1.0000
  C   C486      1.0  0.22354  0.03543  0.83644  1.0000
  C   C487      1.0  0.20172  0.03440  0.84370  1.0000
  C   C488      1.0  0.19576  0.01400  0.85135  1.0000
  H   H838      1.0  0.25743  0.02322  0.86121  1.0000
  H   H839      1.0  0.48611  0.14253  0.82444  1.0000
  C   C489      1.0  0.23909  0.01568  0.83656  1.0000
  H   H840      1.0  0.18956  0.04943  0.84367  1.0000
  H   H841      1.0  0.17893  0.01349  0.85704  1.0000
  C   C490      1.0  0.44109  0.19406  0.80721  1.0000
  H   H842      1.0  0.25593  0.01623  0.83085  1.0000
  C   C491      1.0  0.11258  0.14959  0.84014  1.0000
  C   C492      1.0  0.09801  0.15131  0.85300  1.0000
  C   C493      1.0  0.08097  0.16972  0.85426  1.0000
  C   C494      1.0  0.07842  0.18659  0.84265  1.0000
  C   C495      1.0  0.09366  0.18543  0.82999  1.0000
  C   C496      1.0  0.11066  0.16696  0.82870  1.0000
  H   H843      1.0  0.09973  0.13814  0.86197  1.0000
  H   H844      1.0  0.06964  0.17072  0.86415  1.0000
  H   H845      1.0  0.09193  0.19858  0.82100  1.0000
  H   H846      1.0  0.11584  0.29787  0.88423  1.0000
  H   H847      1.0  0.08847  0.06285  0.85878  1.0000
  H   H848      1.0  0.38771  0.27077  0.86426  1.0000
  H   H849      1.0  0.46869  0.15063  0.85223  1.0000
  C   C497      1.0  0.23300  0.26687  0.73104  1.0000
  H   H850      1.0  0.02925  0.16615  0.81744  1.0000
  H   H851      1.0  0.39150  0.25134  0.89231  1.0000
  H   H852      1.0  0.11097  0.19771  0.73445  1.0000
  C   C498      1.0  0.07938  0.09748  0.84928  1.0000
  C   C499      1.0  0.48235  0.30924  0.91656  1.0000
  C   C500      1.0  0.04428  0.13579  0.84067  1.0000
  H   H853      1.0  0.04971  0.11086  0.90188  1.0000
  H   H854      1.0  0.47795  0.24289  0.82597  1.0000
  H   H855      1.0  0.05393  0.29062  0.92401  1.0000
  H   H856      1.0  0.31240  0.29881  0.83505  1.0000
  H   H857      1.0  0.48776  0.11149  0.95644  1.0000
  C   C501      1.0  0.01437  0.11688  0.85568  1.0000
  H   H858      1.0  0.27783  0.20157  0.72816  1.0000
  H   H859      1.0  0.04282  0.12904  0.83111  1.0000
  H   H860      1.0  0.43077  0.14078  0.85802  1.0000
  H   H861      1.0  0.01262  0.08880  0.87363  1.0000
  H   H862      1.0  0.43873  0.20919  0.81215  1.0000
  H   H863      1.0  0.48563  0.19504  0.83527  1.0000
  H   H864      1.0  0.04927  0.29263  0.83891  1.0000
  C   C502      1.0  0.43900  0.20133  0.79156  1.0000
  H   H865      1.0  0.24666  0.28057  0.74536  1.0000
  H   H866      1.0  0.43577  0.18156  0.83421  1.0000
  H   H867      1.0  0.22587  0.23727  0.75465  1.0000
  C   C503      1.0  0.22029  0.16003  0.74061  1.0000
  C   C504      1.0  0.21443  0.17745  0.75070  1.0000
  C   C505      1.0  0.03445  0.17343  0.82565  1.0000
  H   H868      1.0  0.41727  0.31061  0.83580  1.0000
  H   H869      1.0  0.36621  0.28264  0.82873  1.0000
  C   C506      1.0  0.20755  0.16643  0.76599  1.0000
  H   H870      1.0  0.20099  0.22429  0.80837  1.0000
  H   H871      1.0  0.46301  0.16255  0.80685  1.0000
  C   C507      1.0  0.47483  0.19843  0.82691  1.0000
  C   C508      1.0  0.41139  0.29538  0.84250  1.0000
  C   C509      1.0  0.42725  0.28650  0.85371  1.0000
  H   H872      1.0  0.20652  0.14977  0.74288  1.0000
  H   H873      1.0  0.23496  0.14836  0.74411  1.0000
  H   H874      1.0  0.20027  0.19039  0.74789  1.0000
  H   H875      1.0  0.22930  0.18535  0.75050  1.0000
  C   C510      1.0  0.31632  0.28615  0.72812  1.0000
  H   H876      1.0  0.06021  0.13347  0.86371  1.0000
  H   H877      1.0  0.00249  0.00430  0.95852  1.0000
  H   H878      1.0  0.45196  0.21184  0.78613  1.0000
  H   H879      1.0  0.27880  0.04069  0.85834  1.0000
  H   H880      1.0  0.44329  0.27036  0.93775  1.0000
  C   C511      1.0  0.23120  0.25197  0.75735  1.0000
  H   H881      1.0  0.20341  0.17916  0.77309  1.0000
  H   H882      1.0  0.19251  0.15829  0.76693  1.0000
  H   H883      1.0  0.22139  0.15371  0.76967  1.0000
  H   H884      1.0  0.17145  0.98789  0.89869  1.0000
  H   H885      1.0  0.28310  0.30362  0.77129  1.0000
  H   H886      1.0  0.39193  0.26699  0.75235  1.0000
  C   C512      1.0  0.04579  0.28817  0.91562  1.0000
  H   H887      1.0  0.45545  0.27312  0.83891  1.0000
  H   H888      1.0  0.29573  0.00192  0.85643  1.0000
  H   H889      1.0  0.26180  0.25411  0.74114  1.0000
  C   C513      1.0  0.27624  0.12665  0.78567  1.0000
  H   H890      1.0  0.47697  0.18589  0.80081  1.0000
  C   C514      1.0  0.37649  0.27367  0.73326  1.0000
  C   C515      1.0  0.37874  0.27860  0.85523  1.0000
  H   H891      1.0  0.45581  0.30141  0.84119  1.0000
  H   H892      1.0  0.27464  0.99241  0.88804  1.0000
  C   C516      1.0  0.39821  0.28639  0.90498  1.0000
  H   H893      1.0  0.12830  0.21489  0.83498  1.0000
  H   H894      1.0  0.34936  0.28873  0.87047  1.0000
  H   H895      1.0  0.05254  0.17492  0.82273  1.0000
  H   H896      1.0  0.48348  0.27638  0.92898  1.0000
  H   H897      1.0  0.21544  0.26369  0.75951  1.0000
  C   C517      1.0  0.43181  0.28486  0.94147  1.0000
  C   C518      1.0  0.18286  0.17803  0.72250  1.0000
  H   H898      1.0  0.01455  0.08110  0.85654  1.0000
  H   H899      1.0  0.24232  0.28292  0.84407  1.0000
  C   C519      1.0  0.26455  0.23025  0.76762  1.0000
  C   C520      1.0  0.35349  0.27984  0.86123  1.0000
  C   C521      1.0  0.31783  0.29242  0.74097  1.0000
  H   H900      1.0  0.22325  0.21777  0.77800  1.0000
  H   H901      1.0  0.08439  0.10373  0.85796  1.0000
  H   H902      1.0  0.08734  0.21726  0.74065  1.0000
  C   C522      1.0  0.45114  0.16889  0.83455  1.0000
  H   H903      1.0  0.27168  0.27782  0.75859  1.0000
  H   H904      1.0  0.32921  0.25803  0.87160  1.0000
  C   C523      1.0  0.46392  0.17923  0.80925  1.0000
  H   H905      1.0  0.19375  0.25087  0.77903  1.0000
  Fe  Fe70      1.0  0.00698  0.22477  0.88917  1.0000
  H   H906      1.0  0.27145  0.28617  0.84043  1.0000
  H   H907      1.0  0.21642  0.27748  0.73286  1.0000
  C   C524      1.0  0.42442  0.30104  0.91644  1.0000
  H   H908      1.0  0.23598  0.22516  0.79105  1.0000
  H   H909      1.0  0.24529  0.12209  0.73082  1.0000
  S   S129      1.0  0.48327  0.17784  0.87629  1.0000
  H   H910      1.0  0.28175  0.26361  0.77443  1.0000
  H   H911      1.0  0.12332  0.28360  0.90103  1.0000
  H   H912      1.0  0.05391  0.09583  0.87968  1.0000
  C   C525      1.0  0.34701  0.25662  0.86639  1.0000
  C   C526      1.0  0.48722  0.31041  0.89113  1.0000
  C   C527      1.0  0.28713  0.19482  0.75973  1.0000
  H   H913      1.0  0.04068  0.13844  0.89302  1.0000
  C   C528      1.0  0.37559  0.29681  0.82429  1.0000
  C   C529      1.0  0.45463  0.16422  0.85028  1.0000
  C   C530      1.0  0.09237  0.20136  0.73640  1.0000
  H   H914      1.0  0.48755  0.25709  0.90821  1.0000
  C   C531      1.0  0.31737  0.26364  0.72743  1.0000
  C   C532      1.0  0.24549  0.26551  0.77597  1.0000
  H   H915      1.0  0.03134  0.27848  0.85321  1.0000
  H   H916      1.0  0.25801  0.21295  0.75140  1.0000
  N   N26       1.0  0.03896  0.11910  0.85391  1.0000
  S   S130      1.0  0.99353  0.19684  0.85953  1.0000
  H   H917      1.0  0.08492  0.10801  0.83908  1.0000
  H   H918      1.0  0.12882  0.99047  0.88564  1.0000
  H   H919      1.0  0.40624  0.24982  0.73023  1.0000
  N   N27       1.0  0.28177  0.10605  0.82572  1.0000
  C   C533      1.0  0.28973  0.08260  0.83251  1.0000
  C   C534      1.0  0.25807  0.11308  0.83274  1.0000
  C   C535      1.0  0.28103  0.10553  0.81035  1.0000
  C   C536      1.0  0.29680  0.12254  0.82636  1.0000
  C   C537      1.0  0.30906  0.11831  0.83940  1.0000
  C   C538      1.0  0.31213  0.07107  0.82493  1.0000
  C   C539      1.0  0.27229  0.12793  0.80148  1.0000
  C   C540      1.0  0.25485  0.11520  0.84862  1.0000
  C   C541      1.0  0.23006  0.11904  0.85502  1.0000
  C   C542      1.0  0.31937  0.13866  0.84015  1.0000
  H   H920      1.0  0.27686  0.07174  0.83298  1.0000
  H   H921      1.0  0.29143  0.08190  0.84370  1.0000
  H   H922      1.0  0.25100  0.12964  0.82744  1.0000
  H   H923      1.0  0.24698  0.10141  0.83154  1.0000
  H   H924      1.0  0.31028  0.12344  0.81692  1.0000
  H   H925      1.0  0.28705  0.13968  0.82568  1.0000
  H   H926      1.0  0.32285  0.10407  0.83866  1.0000
  H   H927      1.0  0.29784  0.11442  0.84955  1.0000
  H   H928      1.0  0.32474  0.08256  0.82154  1.0000
  H   H929      1.0  0.28058  0.14168  0.80283  1.0000
  H   H930      1.0  0.25404  0.13220  0.80475  1.0000
  H   H931      1.0  0.26260  0.10002  0.85503  1.0000
  H   H932      1.0  0.26214  0.12979  0.84977  1.0000
  H   H933      1.0  0.22138  0.13460  0.84943  1.0000
  H   H934      1.0  0.22184  0.10477  0.85438  1.0000
  H   H935      1.0  0.22833  0.12065  0.86635  1.0000
  H   H936      1.0  0.32880  0.13501  0.84921  1.0000
  H   H937      1.0  0.33784  0.04253  0.82866  1.0000
  H   H938      1.0  0.42521  0.26869  0.89077  1.0000
  H   H939      1.0  0.38310  0.26641  0.84777  1.0000
  H   H940      1.0  0.06189  0.13896  0.83920  1.0000
  H   H941      1.0  0.27050  0.09302  0.80955  1.0000
  C   C543      1.0  0.15363  0.99448  0.89781  1.0000
  H   H942      1.0  0.00079  0.06717  0.94291  1.0000
  H   H943      1.0  0.23060  0.25060  0.72884  1.0000
  H   H944      1.0  0.05000  0.08395  0.86077  1.0000
  C   C544      1.0  0.48501  0.21502  0.81429  1.0000
  C   C545      1.0  0.15266  0.01903  0.89115  1.0000
  H   H945      1.0  0.36560  0.26072  0.73761  1.0000
  H   H946      1.0  0.18805  0.21562  0.79556  1.0000
  H   H947      1.0  0.47836  0.08014  0.94271  1.0000
  C   C546      1.0  0.03239  0.30172  0.89331  1.0000
  H   H948      1.0  0.43635  0.15481  0.87131  1.0000
  C   C547      1.0  0.48799  0.28728  0.89297  1.0000
  H   H949      1.0  0.45793  0.17949  0.85339  1.0000
  C   C548      1.0  0.27155  0.02679  0.86565  1.0000
  C   C549      1.0  0.20427  0.24517  0.78750  1.0000
  C   C550      1.0  0.04293  0.30531  0.90414  1.0000
  H   H950      1.0  0.44680  0.15352  0.83204  1.0000
  H   H951      1.0  0.26848  0.14254  0.77984  1.0000
  H   H952      1.0  0.35766  0.24676  0.87413  1.0000
  H   H953      1.0  0.31008  0.03813  0.83747  1.0000
  H   H954      1.0  0.27703  0.23911  0.75993  1.0000
  H   H955      1.0  0.29447  0.12398  0.78150  1.0000
  H   H956      1.0  0.01160  0.15816  0.84251  1.0000
  H   H957      1.0  0.99209  0.00781  0.92231  1.0000
  H   H958      1.0  0.42436  0.26965  0.85934  1.0000
  H   H959      1.0  0.16343  0.02084  0.88059  1.0000
  H   H960      1.0  0.13518  0.02675  0.88998  1.0000
  H   H961      1.0  0.15890  0.02814  0.89802  1.0000
  C   C551      1.0  0.26764  0.27523  0.77027  1.0000
  H   H962      1.0  0.45908  0.20792  0.83162  1.0000
  H   H963      1.0  0.39109  0.24224  0.91120  1.0000
  H   H964      1.0  0.03386  0.16787  0.84812  1.0000
  H   H965      1.0  0.39294  0.29015  0.81992  1.0000
  C   C552      1.0  0.08299  0.20334  0.72267  1.0000
  H   H966      1.0  0.25274  0.19791  0.76912  1.0000
  H   H967      1.0  0.42371  0.27956  0.95251  1.0000
  H   H968      1.0  0.32564  0.05499  0.84418  1.0000
  H   H969      1.0  0.13922  0.20921  0.85140  1.0000
  C   C553      1.0  0.25527  0.29025  0.84742  1.0000
  H   H970      1.0  0.32134  0.23012  0.73882  1.0000
  H   H971      1.0  0.41462  0.28263  0.83547  1.0000
  H   H972      1.0  0.30353  0.01082  0.87111  1.0000
  C   C554      1.0  0.11041  0.28639  0.89403  1.0000
  C   C555      1.0  0.41470  0.26536  0.90132  1.0000
  H   H973      1.0  0.48184  0.14043  0.89953  1.0000
  C   C556      1.0  0.32053  0.27628  0.75306  1.0000
  C   C557      1.0  0.38278  0.28120  0.74584  1.0000
  C   C558      1.0  0.40193  0.24656  0.90088  1.0000
  H   H974      1.0  0.06888  0.12461  0.88802  1.0000
  H   H975      1.0  0.38747  0.28099  0.91510  1.0000
  H   H976      1.0  0.31704  0.30984  0.74154  1.0000
  C   C559      1.0  0.14513  0.98123  0.88847  1.0000
  H   H977      1.0  0.36729  0.28777  0.75266  1.0000
  H   H978      1.0  0.04079  0.25453  0.92505  1.0000
  H   H979      1.0  0.14028  0.23608  0.84011  1.0000
  H   H980      1.0  0.04980  0.09156  0.84235  1.0000
  H   H981      1.0  0.40401  0.27984  0.93295  1.0000
  H   H982      1.0  0.23598  0.20895  0.73092  1.0000
  H   H983      1.0  0.33108  0.14322  0.83025  1.0000
  H   H984      1.0  0.42585  0.25916  0.90941  1.0000
  C   C560      1.0  0.32015  0.24750  0.73951  1.0000
  C   C561      1.0  0.05109  0.12214  0.89152  1.0000
  H   H985      1.0  0.03151  0.14313  0.86830  1.0000
  C   C562      1.0  0.02979  0.15912  0.84022  1.0000
  H   H986      1.0  0.25348  0.31011  0.77076  1.0000
  H   H987      1.0  0.36657  0.28818  0.72751  1.0000
  H   H988      1.0  0.22462  0.31036  0.86510  1.0000
  S   S131      1.0  0.01960  0.23763  0.90629  1.0000
  C   C563      1.0  0.47623  0.06470  0.95049  1.0000
  H   H989      1.0  0.41403  0.23147  0.89872  1.0000
  H   H990      1.0  0.26496  0.03220  0.87609  1.0000
  C   C564      1.0  0.28948  0.00620  0.86717  1.0000
  H   H991      1.0  0.45825  0.06275  0.95254  1.0000
  H   H992      1.0  0.24508  0.26159  0.78769  1.0000
  H   H993      1.0  0.47234  0.22274  0.80736  1.0000
  H   H994      1.0  0.38668  0.29108  0.89697  1.0000
  C   C565      1.0  0.21135  0.99432  0.85162  1.0000
  H   H995      1.0  0.20631  0.25986  0.79183  1.0000
  H   H996      1.0  0.17500  0.23978  0.80349  1.0000
  H   H997      1.0  0.08846  0.06721  0.83981  1.0000
  C   C566      1.0  0.48423  0.28594  0.91842  1.0000
  H   H998      1.0  0.46276  0.27858  0.85485  1.0000
  N   N28       1.0  0.24240  0.24525  0.77036  1.0000
  H   H999      1.0  0.43882  0.28827  0.91334  1.0000
  H   H1000     1.0  0.43738  0.30022  0.88933  1.0000
  H   H1001     1.0  0.41881  0.16958  0.85864  1.0000
  H   H1002     1.0  0.02559  0.10902  0.88497  1.0000
  H   H1003     1.0  0.23128  0.27920  0.77424  1.0000
  H   H1004     1.0  0.05174  0.26273  0.84136  1.0000
  N   N29       1.0  0.47039  0.17684  0.82373  1.0000
  C   C567      1.0  0.24494  0.26369  0.74386  1.0000
  C   C568      1.0  0.45178  0.28482  0.84667  1.0000
  C   C569      1.0  0.19133  0.23028  0.79945  1.0000
  H   H1005     1.0  0.42707  0.18464  0.81226  1.0000
  H   H1006     1.0  0.08577  0.18788  0.74452  1.0000
  S   S132      1.0  0.00836  0.24137  0.86661  1.0000
  C   C570      1.0  0.22726  0.23221  0.78177  1.0000
  H   H1007     1.0  0.26359  0.29553  0.78689  1.0000
  C   C571      1.0  0.09244  0.07412  0.84861  1.0000
  C   C572      1.0  0.04297  0.11196  0.88063  1.0000
  H   H1008     1.0  0.26379  0.98471  0.87446  1.0000
  H   H1009     1.0  0.25902  0.16919  0.72828  1.0000
  C   C573      1.0  0.26678  0.29747  0.77513  1.0000
  C   C574      1.0  0.04362  0.12791  0.86629  1.0000
  H   H1010     1.0  0.34308  0.28823  0.85308  1.0000
  C   C575      1.0  0.15577  0.12954  0.73254  1.0000
  H   H1011     1.0  0.20372  0.20097  0.72495  1.0000
  N   N30       1.0  0.22513  0.16884  0.72496  1.0000
  C   C576      1.0  0.27978  0.98667  0.87759  1.0000
  H   H1012     1.0  0.44159  0.29821  0.94155  1.0000
  N   N31       1.0  0.40865  0.30635  0.90571  1.0000
  C   C577      1.0  0.26388  0.20874  0.76180  1.0000
  H   H1013     1.0  0.06019  0.19493  0.90181  1.0000
  N   N32       1.0  0.08740  0.24754  0.87455  1.0000
  C   C578      1.0  0.06688  0.25343  0.86736  1.0000
  C   C579      1.0  0.08407  0.22833  0.88650  1.0000
  C   C580      1.0  0.08901  0.26736  0.88110  1.0000
  C   C581      1.0  0.10880  0.24225  0.86439  1.0000
  C   C582      1.0  0.10706  0.23105  0.85170  1.0000
  C   C583      1.0  0.06576  0.27556  0.85665  1.0000
  C   C584      1.0  0.10743  0.26415  0.89054  1.0000
  C   C585      1.0  0.08230  0.20592  0.88234  1.0000
  C   C586      1.0  0.07645  0.18882  0.89552  1.0000
  C   C587      1.0  0.13020  0.22234  0.84412  1.0000
  C   C588      1.0  0.04847  0.27732  0.84696  1.0000
  H   H1014     1.0  0.40306  0.30783  0.93628  1.0000
  H   H1015     1.0  0.05141  0.25477  0.87541  1.0000
  H   H1016     1.0  0.06505  0.23994  0.86185  1.0000
  H   H1017     1.0  0.09830  0.22439  0.89254  1.0000
  H   H1018     1.0  0.06881  0.23303  0.89422  1.0000
  H   H1019     1.0  0.07276  0.27266  0.88772  1.0000
  H   H1020     1.0  0.09217  0.28192  0.87272  1.0000
  H   H1021     1.0  0.11616  0.25767  0.85955  1.0000
  H   H1022     1.0  0.12175  0.23149  0.87029  1.0000
  H   H1023     1.0  0.09835  0.24317  0.84379  1.0000
  H   H1024     1.0  0.09755  0.21691  0.85498  1.0000
  H   H1025     1.0  0.06080  0.28994  0.86248  1.0000
  H   H1026     1.0  0.08227  0.27728  0.84993  1.0000
  H   H1027     1.0  0.12381  0.25647  0.88523  1.0000
  H   H1028     1.0  0.10260  0.25344  0.90082  1.0000
  H   H1029     1.0  0.06926  0.20781  0.87559  1.0000
  H   H1030     1.0  0.09867  0.19889  0.87665  1.0000
  H   H1031     1.0  0.07497  0.17298  0.89227  1.0000
  S   S133      1.0  0.99109  0.14621  0.89172  1.0000
  H   H1032     1.0  0.25726  0.28266  0.85849  1.0000
  C   C589      1.0  0.00719  0.09419  0.86316  1.0000
  S   S134      1.0  0.48017  0.22928  0.85985  1.0000
  H   H1033     1.0  0.48357  0.09993  0.90042  1.0000
  H   H1034     1.0  0.38615  0.22586  0.72394  1.0000
  H   H1035     1.0  0.37131  0.30907  0.92849  1.0000
  C   C590      1.0  0.23290  0.99515  0.84389  1.0000
  H   H1036     1.0  0.41204  0.31322  0.88288  1.0000
  C   C591      1.0  0.48663  0.27498  0.90667  1.0000
  H   H1037     1.0  0.15735  0.98232  0.87843  1.0000
  H   H1038     1.0  0.42498  0.29756  0.86171  1.0000
  Fe  Fe71      1.0  0.99256  0.18289  0.88275  1.0000
  H   H1039     1.0  0.47332  0.08030  0.96880  1.0000
  H   H1040     1.0  0.36570  0.29964  0.80374  1.0000
  Fe  Fe72      1.0  0.48963  0.23786  0.87917  1.0000
  H   H1041     1.0  0.48605  0.05022  0.94580  1.0000
  C   C592      1.0  0.48384  0.06596  0.96433  1.0000
  H   H1042     1.0  0.48082  0.14290  0.97013  1.0000
  H   H1043     1.0  0.06450  0.20747  0.72521  1.0000
  C   C593      1.0  0.36484  0.31038  0.81179  1.0000
  C   C594      1.0  0.37485  0.31128  0.83579  1.0000
  H   H1044     1.0  0.35882  0.31248  0.91286  1.0000
  H   H1045     1.0  0.16250  0.21027  0.72483  1.0000
  S   S135      1.0  0.29120  0.31187  0.80987  1.0000
  C   C595      1.0  0.42215  0.31281  0.89127  1.0000
  C   C596      1.0  0.39762  0.26417  0.72348  1.0000
  C   C597      1.0  0.99213  0.01196  0.93290  1.0000
  H   H1046     1.0  0.24328  0.27519  0.72153  1.0000
  H   H1047     1.0  0.46885  0.47199  0.97268  1.0000
  Fe  Fe73      1.0  0.18865  0.60467  0.17466  1.0000
  H   H1048     1.0  0.01593  0.39060  0.98526  1.0000
  S   S136      1.0  0.18848  0.56746  0.17579  1.0000
  H   H1049     1.0  0.00295  0.55145  0.10476  1.0000
  H   H1050     1.0  0.41672  0.52517  0.09524  1.0000
  H   H1051     1.0  0.13268  0.37271  0.21741  1.0000
  H   H1052     1.0  0.12291  0.32921  0.14353  1.0000
  C   C598      1.0  0.06012  0.36001  0.99670  1.0000
  C   C599      1.0  0.12557  0.34516  0.14603  1.0000
  C   C600      1.0  0.10732  0.36853  0.12614  1.0000
  S   S137      1.0  0.15484  0.62473  0.18063  1.0000
  S   S138      1.0  0.20480  0.61768  0.18973  1.0000
  H   H1053     1.0  0.47962  0.32400  0.02347  1.0000
  Fe  Fe74      1.0  0.42972  0.35560  0.07763  1.0000
  S   S139      1.0  0.40707  0.36638  0.06106  1.0000
  H   H1054     1.0  0.14143  0.34115  0.15059  1.0000
  Fe  Fe75      1.0  0.45253  0.39727  0.06859  1.0000
  S   S140      1.0  0.43197  0.41142  0.05133  1.0000
  H   H1055     1.0  0.46673  0.44297  0.99610  1.0000
  Fe  Fe76      1.0  0.40274  0.40020  0.06746  1.0000
  S   S141      1.0  0.37044  0.42493  0.06994  1.0000
  Fe  Fe77      1.0  0.43778  0.37666  0.04641  1.0000
  S   S142      1.0  0.45366  0.36606  0.02532  1.0000
  S   S143      1.0  0.42315  0.38869  0.08510  1.0000
  S   S144      1.0  0.46045  0.36335  0.06261  1.0000
  Fe  Fe78      1.0  0.09590  0.36984  0.03915  1.0000
  S   S145      1.0  0.05916  0.37824  0.04705  1.0000
  S   S146      1.0  0.11139  0.36312  0.01697  1.0000
  Fe  Fe79      1.0  0.10927  0.37565  0.06705  1.0000
  S   S147      1.0  0.07344  0.38514  0.07680  1.0000
  S   S148      1.0  0.13812  0.37010  0.07961  1.0000
  Fe  Fe80      1.0  0.06677  0.35674  0.06756  1.0000
  Fe  Fe81      1.0  0.06911  0.40569  0.05553  1.0000
  S   S149      1.0  0.05335  0.44169  0.05014  1.0000
  S   S150      1.0  0.10280  0.34599  0.05899  1.0000
  S   S151      1.0  0.10569  0.39847  0.04647  1.0000
  Fe  Fe82      1.0  0.22058  0.47053  0.12656  1.0000
  S   S152      1.0  0.23344  0.46005  0.10504  1.0000
  S   S153      1.0  0.22397  0.50641  0.12764  1.0000
  Fe  Fe83      1.0  0.20552  0.42514  0.13901  1.0000
  S   S154      1.0  0.21736  0.41189  0.11862  1.0000
  S   S155      1.0  0.18822  0.40451  0.15854  1.0000
  Fe  Fe84      1.0  0.24819  0.42764  0.11706  1.0000
  S   S156      1.0  0.28112  0.40435  0.11238  1.0000
  Fe  Fe85      1.0  0.20166  0.44514  0.10853  1.0000
  S   S157      1.0  0.17845  0.45042  0.09224  1.0000
  S   S158      1.0  0.23740  0.43876  0.13838  1.0000
  S   S159      1.0  0.18781  0.45778  0.12904  1.0000
  Fe  Fe86      1.0  0.21247  0.64552  0.17187  1.0000
  C   C601      1.0  0.02620  0.45183  0.05822  1.0000
  H   H1056     1.0  0.99540  0.56224  0.06655  1.0000
  H   H1057     1.0  0.06343  0.50444  0.07897  1.0000
  C   C602      1.0  0.03042  0.56996  0.09994  1.0000
  H   H1058     1.0  0.00885  0.58177  0.04303  1.0000
  C   C603      1.0  0.43287  0.44228  0.00691  1.0000
  H   H1059     1.0  0.02340  0.42383  0.07505  1.0000
  C   C604      1.0  0.14911  0.39271  0.08291  1.0000
  C   C605      1.0  0.13894  0.41471  0.07945  1.0000
  C   C606      1.0  0.14789  0.43225  0.08257  1.0000
  C   C607      1.0  0.16688  0.42792  0.08931  1.0000
  C   C608      1.0  0.17712  0.40593  0.09268  1.0000
  C   C609      1.0  0.16839  0.38844  0.08937  1.0000
  H   H1060     1.0  0.12416  0.41820  0.07439  1.0000
  H   H1061     1.0  0.14004  0.44925  0.07976  1.0000
  H   H1062     1.0  0.19204  0.40242  0.09757  1.0000
  H   H1063     1.0  0.17667  0.37153  0.09178  1.0000
  C   C610      1.0  0.07209  0.36303  0.00698  1.0000
  C   C611      1.0  0.09544  0.36142  0.00398  1.0000
  C   C612      1.0  0.25394  0.35340  0.16089  1.0000
  H   H1064     1.0  0.06335  0.36617  0.01730  1.0000
  C   C613      1.0  0.16973  0.57850  0.21790  1.0000
  C   C614      1.0  0.17912  0.36258  0.17052  1.0000
  C   C615      1.0  0.18608  0.37666  0.15796  1.0000
  C   C616      1.0  0.19156  0.36819  0.14525  1.0000
  C   C617      1.0  0.19146  0.34559  0.14520  1.0000
  H   H1065     1.0  0.19618  0.37892  0.13545  1.0000
  H   H1066     1.0  0.19652  0.33902  0.13536  1.0000
  C   C618      1.0  0.34569  0.41901  0.08174  1.0000
  C   C619      1.0  0.34381  0.39767  0.08929  1.0000
  C   C620      1.0  0.32383  0.39352  0.09847  1.0000
  C   C621      1.0  0.30562  0.41064  0.10039  1.0000
  C   C622      1.0  0.30748  0.43204  0.09285  1.0000
  C   C623      1.0  0.32742  0.43616  0.08354  1.0000
  H   H1067     1.0  0.35767  0.38429  0.08795  1.0000
  H   H1068     1.0  0.32247  0.37686  0.10402  1.0000
  H   H1069     1.0  0.29361  0.44538  0.09420  1.0000
  H   H1070     1.0  0.32870  0.45273  0.07772  1.0000
  C   C624      1.0  0.24469  0.35483  0.11104  1.0000
  C   C625      1.0  0.42042  0.38614  0.98554  1.0000
  C   C626      1.0  0.40933  0.39300  0.99833  1.0000
  C   C627      1.0  0.41921  0.38676  0.01067  1.0000
  C   C628      1.0  0.44031  0.37369  0.01025  1.0000
  C   C629      1.0  0.45135  0.36665  0.99751  1.0000
  C   C630      1.0  0.44137  0.37273  0.98520  1.0000
  H   H1071     1.0  0.39307  0.40332  0.99865  1.0000
  H   H1072     1.0  0.41058  0.39221  0.02046  1.0000
  H   H1073     1.0  0.46768  0.35648  0.99714  1.0000
  H   H1074     1.0  0.16543  0.33197  0.09915  1.0000
  H   H1075     1.0  0.28760  0.37067  0.14187  1.0000
  H   H1076     1.0  0.26093  0.60905  0.20175  1.0000
  H   H1077     1.0  0.47919  0.32853  0.04753  1.0000
  C   C631      1.0  0.19884  0.55070  0.16234  1.0000
  C   C632      1.0  0.19494  0.52845  0.16494  1.0000
  C   C633      1.0  0.20260  0.51459  0.15452  1.0000
  C   C634      1.0  0.21432  0.52285  0.14135  1.0000
  C   C635      1.0  0.21829  0.54508  0.13878  1.0000
  C   C636      1.0  0.21060  0.55894  0.14919  1.0000
  H   H1078     1.0  0.18588  0.52190  0.17508  1.0000
  H   H1079     1.0  0.19940  0.49757  0.15666  1.0000
  H   H1080     1.0  0.22742  0.55161  0.12865  1.0000
  H   H1081     1.0  0.21391  0.57593  0.14708  1.0000
  C   C637      1.0  0.43123  0.51156  0.09483  1.0000
  H   H1082     1.0  0.27320  0.33511  0.11931  1.0000
  C   C638      1.0  0.44532  0.44128  0.98055  1.0000
  C   C639      1.0  0.48724  0.43651  0.06925  1.0000
  H   H1083     1.0  0.00160  0.36464  0.97325  1.0000
  C   C640      1.0  0.06285  0.46916  0.08210  1.0000
  H   H1084     1.0  0.44995  0.36721  0.97542  1.0000
  C   C641      1.0  0.24136  0.59040  0.21949  1.0000
  C   C642      1.0  0.17184  0.32450  0.10921  1.0000
  C   C643      1.0  0.47152  0.45321  0.06335  1.0000
  H   H1085     1.0  0.45673  0.41670  0.99821  1.0000
  H   H1086     1.0  0.44418  0.45162  0.10447  1.0000
  H   H1087     1.0  0.05409  0.49460  0.06507  1.0000
  H   H1088     1.0  0.45726  0.44876  0.06015  1.0000
  H   H1089     1.0  0.46165  0.48865  0.05768  1.0000
  H   H1090     1.0  0.29990  0.35221  0.12169  1.0000
  C   C644      1.0  0.10620  0.35119  0.15804  1.0000
  H   H1091     1.0  0.26307  0.41261  0.05804  1.0000
  C   C645      1.0  0.02949  0.53521  0.08975  1.0000
  H   H1092     1.0  0.03568  0.33994  0.04160  1.0000
  N   N33       1.0  0.40077  0.46115  0.09434  1.0000
  C   C646      1.0  0.40815  0.45872  0.07896  1.0000
  C   C647      1.0  0.41223  0.44144  0.10348  1.0000
  C   C648      1.0  0.37586  0.46021  0.09775  1.0000
  C   C649      1.0  0.40513  0.48284  0.09750  1.0000
  H   H1093     1.0  0.15692  0.59227  0.21401  1.0000
  C   C650      1.0  0.39494  0.47549  0.06830  1.0000
  C   C651      1.0  0.36498  0.45986  0.11351  1.0000
  C   C652      1.0  0.43817  0.43790  0.10116  1.0000
  H   H1094     1.0  0.17099  0.38936  0.03774  1.0000
  H   H1095     1.0  0.00067  0.43321  0.99710  1.0000
  C   C653      1.0  0.40725  0.47601  0.05309  1.0000
  C   C654      1.0  0.33943  0.46234  0.11518  1.0000
  H   H1096     1.0  0.40684  0.44166  0.07741  1.0000
  H   H1097     1.0  0.42608  0.46012  0.07562  1.0000
  C   C655      1.0  0.04538  0.41756  0.97175  1.0000
  H   H1098     1.0  0.40687  0.42584  0.10208  1.0000
  H   H1099     1.0  0.37211  0.44520  0.09442  1.0000
  H   H1100     1.0  0.36645  0.47477  0.09162  1.0000
  H   H1101     1.0  0.39061  0.49623  0.09586  1.0000
  H   H1102     1.0  0.17907  0.38774  0.20706  1.0000
  C   C656      1.0  0.06174  0.43394  0.97167  1.0000
  C   C657      1.0  0.47415  0.47567  0.06186  1.0000
  H   H1103     1.0  0.37831  0.47057  0.06866  1.0000
  H   H1104     1.0  0.39198  0.49258  0.07084  1.0000
  H   H1105     1.0  0.36930  0.47357  0.11784  1.0000
  H   H1106     1.0  0.37060  0.44374  0.12002  1.0000
  H   H1107     1.0  0.44539  0.43669  0.08999  1.0000
  H   H1108     1.0  0.11675  0.39164  0.14319  1.0000
  H   H1109     1.0  0.20399  0.35898  0.20103  1.0000
  H   H1110     1.0  0.12179  0.32945  0.17499  1.0000
  H   H1111     1.0  0.18047  0.49382  0.04195  1.0000
  C   C658      1.0  0.02813  0.49865  0.08369  1.0000
  H   H1112     1.0  0.19933  0.37716  0.03995  1.0000
  C   C659      1.0  0.01862  0.43061  0.99224  1.0000
  H   H1113     1.0  0.42385  0.48144  0.05196  1.0000
  H   H1114     1.0  0.40958  0.45927  0.05002  1.0000
  H   H1115     1.0  0.39720  0.48790  0.04576  1.0000
  H   H1116     1.0  0.33251  0.47846  0.10918  1.0000
  H   H1117     1.0  0.33440  0.44851  0.11130  1.0000
  H   H1118     1.0  0.33201  0.46181  0.12654  1.0000
  C   C660      1.0  0.07124  0.35584  0.98328  1.0000
  H   H1119     1.0  0.02431  0.44687  0.99169  1.0000
  H   H1120     1.0  0.99081  0.40965  0.98391  1.0000
  S   S160      1.0  0.48317  0.40844  0.07301  1.0000
  H   H1121     1.0  0.01585  0.33692  0.99410  1.0000
  H   H1122     1.0  0.10956  0.38173  0.11670  1.0000
  H   H1123     1.0  0.44239  0.32261  0.99528  1.0000
  H   H1124     1.0  0.40641  0.48113  0.10893  1.0000
  H   H1125     1.0  0.18727  0.33128  0.10947  1.0000
  H   H1126     1.0  0.06429  0.32390  0.02355  1.0000
  C   C661      1.0  0.14827  0.35471  0.12236  1.0000
  C   C662      1.0  0.23699  0.38533  0.17434  1.0000
  C   C663      1.0  0.02772  0.42165  0.01726  1.0000
  H   H1127     1.0  0.25328  0.36951  0.10645  1.0000
  H   H1128     1.0  0.41039  0.31746  0.06717  1.0000
  H   H1129     1.0  0.10266  0.31737  0.02944  1.0000
  H   H1130     1.0  0.44595  0.51837  0.08804  1.0000
  C   C664      1.0  0.25791  0.40908  0.08058  1.0000
  H   H1131     1.0  0.16074  0.32054  0.13165  1.0000
  H   H1132     1.0  0.18139  0.57322  0.20852  1.0000
  C   C665      1.0  0.14146  0.40146  0.12526  1.0000
  H   H1133     1.0  0.16386  0.35912  0.12456  1.0000
  H   H1134     1.0  0.23369  0.40375  0.17346  1.0000
  C   C666      1.0  0.25555  0.34105  0.12344  1.0000
  H   H1135     1.0  0.19034  0.50782  0.05366  1.0000
  Fe  Fe87      1.0  0.17193  0.63964  0.19428  1.0000
  C   C667      1.0  0.01551  0.55628  0.09539  1.0000
  H   H1136     1.0  0.27660  0.42849  0.02342  1.0000
  C   C668      1.0  0.09447  0.35518  0.98006  1.0000
  H   H1137     1.0  0.43316  0.43015  0.98011  1.0000
  H   H1138     1.0  0.17782  0.38014  0.05530  1.0000
  C   C669      1.0  0.42608  0.49256  0.08862  1.0000
  H   H1139     1.0  0.07282  0.34345  0.11124  1.0000
  H   H1140     1.0  0.32796  0.36850  0.13017  1.0000
  H   H1141     1.0  0.18515  0.34065  0.19972  1.0000
  C   C670      1.0  0.03060  0.41319  0.00317  1.0000
  H   H1142     1.0  0.17445  0.36924  0.18029  1.0000
  H   H1143     1.0  0.00007  0.32818  0.07174  1.0000
  H   H1144     1.0  0.02378  0.56720  0.06532  1.0000
  H   H1145     1.0  0.43760  0.43607  0.01759  1.0000
  C   C671      1.0  0.18512  0.33137  0.15778  1.0000
  C   C672      1.0  0.99429  0.48175  0.05883  1.0000
  H   H1146     1.0  0.04248  0.57639  0.09070  1.0000
  C   C673      1.0  0.00221  0.33193  0.04883  1.0000
  H   H1147     1.0  0.09139  0.61701  0.11025  1.0000
  H   H1148     1.0  0.05273  0.45728  0.08009  1.0000
  N   N34       1.0  0.26636  0.34489  0.14753  1.0000
  C   C674      1.0  0.01688  0.31855  0.99680  1.0000
  H   H1149     1.0  0.26392  0.42491  0.08070  1.0000
  H   H1150     1.0  0.48032  0.36065  0.10506  1.0000
  C   C675      1.0  0.25328  0.35477  0.13556  1.0000
  H   H1151     1.0  0.47739  0.32807  0.12460  1.0000
  C   C676      1.0  0.48817  0.41426  0.02980  1.0000
  C   C677      1.0  0.48814  0.31567  0.11831  1.0000
  H   H1152     1.0  0.41767  0.43531  0.00640  1.0000
  C   C678      1.0  0.21647  0.32414  0.20548  1.0000
  C   C679      1.0  0.99417  0.44915  0.07706  1.0000
  C   C680      1.0  0.14143  0.42296  0.13077  1.0000
  C   C681      1.0  0.15400  0.32935  0.12192  1.0000
  S   S161      1.0  0.42850  0.32383  0.09364  1.0000
  C   C682      1.0  0.19712  0.34348  0.20609  1.0000
  H   H1153     1.0  0.24466  0.40605  0.08989  1.0000
  C   C683      1.0  0.12444  0.33808  0.20659  1.0000
  H   H1154     1.0  0.30798  0.32568  0.13244  1.0000
  H   H1155     1.0  0.23512  0.35772  0.13968  1.0000
  H   H1156     1.0  0.13236  0.34235  0.19538  1.0000
  H   H1157     1.0  0.03533  0.43706  0.01582  1.0000
  H   H1158     1.0  0.42886  0.46071  0.00551  1.0000
  H   H1159     1.0  0.15198  0.44156  0.21863  1.0000
  H   H1160     1.0  0.99277  0.31792  0.04976  1.0000
  C   C684      1.0  0.01496  0.56371  0.04578  1.0000
  C   C685      1.0  0.99606  0.34134  0.06269  1.0000
  H   H1161     1.0  0.02723  0.49152  0.09514  1.0000
  C   C686      1.0  0.28918  0.35221  0.14443  1.0000
  C   C687      1.0  0.02786  0.32448  0.04520  1.0000
  C   C688      1.0  0.00840  0.40570  0.97855  1.0000
  C   C689      1.0  0.26915  0.31977  0.15062  1.0000
  H   H1162     1.0  0.16829  0.62612  0.13693  1.0000
  H   H1163     1.0  0.04512  0.54008  0.08293  1.0000
  H   H1164     1.0  0.26681  0.38518  0.15912  1.0000
  H   H1165     1.0  0.11212  0.34475  0.11158  1.0000
  H   H1166     1.0  0.48859  0.52563  0.01638  1.0000
  C   C690      1.0  0.45220  0.43504  0.99553  1.0000
  H   H1167     1.0  0.05168  0.40095  0.97748  1.0000
  H   H1168     1.0  0.13143  0.40559  0.11652  1.0000
  C   C691      1.0  0.13242  0.38338  0.13734  1.0000
  H   H1169     1.0  0.15415  0.36645  0.20332  1.0000
  H   H1170     1.0  0.29749  0.34714  0.15403  1.0000
  H   H1171     1.0  0.22663  0.36058  0.11458  1.0000
  H   H1172     1.0  0.25390  0.40194  0.04000  1.0000
  H   H1173     1.0  0.10912  0.35027  0.20889  1.0000
  H   H1174     1.0  0.26253  0.34532  0.17009  1.0000
  H   H1175     1.0  0.22061  0.37914  0.17662  1.0000
  H   H1176     1.0  0.13921  0.32207  0.12127  1.0000
  H   H1177     1.0  0.33616  0.34190  0.14084  1.0000
  H   H1178     1.0  0.44237  0.40174  0.10739  1.0000
  C   C692      1.0  0.09986  0.34949  0.12084  1.0000
  H   H1179     1.0  0.00614  0.56745  0.08750  1.0000
  H   H1180     1.0  0.44166  0.41696  0.12164  1.0000
  H   H1181     1.0  0.17330  0.32907  0.18017  1.0000
  C   C693      1.0  0.48711  0.34809  0.09797  1.0000
  H   H1182     1.0  0.03423  0.31683  0.05522  1.0000
  N   N35       1.0  0.02114  0.42472  0.97759  1.0000
  H   H1183     1.0  0.03527  0.52402  0.09919  1.0000
  H   H1184     1.0  0.42322  0.49935  0.07760  1.0000
  C   C694      1.0  0.01534  0.43994  0.07050  1.0000
  H   H1185     1.0  0.40704  0.44280  0.11489  1.0000
  H   H1186     1.0  0.20802  0.61117  0.12782  1.0000
  C   C695      1.0  0.17322  0.38510  0.21872  1.0000
  H   H1187     1.0  0.43540  0.50546  0.10566  1.0000
  H   H1188     1.0  0.24155  0.38779  0.15165  1.0000
  H   H1189     1.0  0.09828  0.33476  0.12923  1.0000
  H   H1190     1.0  0.48435  0.41336  0.98011  1.0000
  H   H1191     1.0  0.00970  0.42508  0.02185  1.0000
  H   H1192     1.0  0.24613  0.34457  0.10264  1.0000
  H   H1193     1.0  0.12459  0.35658  0.98800  1.0000
  C   C696      1.0  0.32898  0.35017  0.13117  1.0000
  H   H1194     1.0  0.44248  0.32323  0.04514  1.0000
  H   H1195     1.0  0.23672  0.34890  0.16350  1.0000
  H   H1196     1.0  0.99762  0.51522  0.10995  1.0000
  H   H1197     1.0  0.09186  0.33695  0.17928  1.0000
  C   C697      1.0  0.10578  0.33239  0.17075  1.0000
  H   H1198     1.0  0.14085  0.40644  0.21622  1.0000
  C   C698      1.0  0.44752  0.41640  0.11018  1.0000
  S   S162      1.0  0.19945  0.63049  0.15626  1.0000
  H   H1199     1.0  0.06341  0.46677  0.09363  1.0000
  H   H1200     1.0  0.21941  0.47708  0.04610  1.0000
  H   H1201     1.0  0.08974  0.35388  0.15437  1.0000
  C   C699      1.0  0.01306  0.55728  0.06188  1.0000
  H   H1202     1.0  0.27222  0.39534  0.08157  1.0000
  H   H1203     1.0  0.19015  0.60088  0.22115  1.0000
  H   H1204     1.0  0.09301  0.37607  0.13343  1.0000
  H   H1205     1.0  0.34047  0.34466  0.12180  1.0000
  C   C700      1.0  0.05295  0.49312  0.07673  1.0000
  H   H1206     1.0  0.24634  0.37830  0.18329  1.0000
  H   H1207     1.0  0.01987  0.58445  0.10429  1.0000
  H   H1208     1.0  0.47265  0.31749  0.07606  1.0000
  H   H1209     1.0  0.01288  0.52259  0.06056  1.0000
  C   C701      1.0  0.25060  0.37897  0.16046  1.0000
  H   H1210     1.0  0.06379  0.36066  0.12487  1.0000
  H   H1211     1.0  0.27229  0.40638  0.01509  1.0000
  N   N36       1.0  0.14419  0.59355  0.13321  1.0000
  C   C702      1.0  0.14175  0.57096  0.13049  1.0000
  C   C703      1.0  0.12753  0.61105  0.12607  1.0000
  C   C704      1.0  0.16740  0.59815  0.12616  1.0000
  C   C705      1.0  0.14162  0.59482  0.14882  1.0000
  C   C706      1.0  0.12477  0.58097  0.15910  1.0000
  C   C707      1.0  0.16047  0.55166  0.13465  1.0000
  C   C708      1.0  0.17261  0.62175  0.12613  1.0000
  C   C709      1.0  0.10234  0.60915  0.13093  1.0000
  C   C710      1.0  0.08812  0.62376  0.12034  1.0000
  C   C711      1.0  0.12122  0.58647  0.17407  1.0000
  C   C712      1.0  0.15379  0.52896  0.13494  1.0000
  H   H1212     1.0  0.22437  0.32362  0.19428  1.0000
  H   H1213     1.0  0.14139  0.57161  0.11901  1.0000
  H   H1214     1.0  0.12555  0.56590  0.13602  1.0000
  H   H1215     1.0  0.12898  0.62793  0.12782  1.0000
  H   H1216     1.0  0.13142  0.61141  0.11437  1.0000
  H   H1217     1.0  0.17062  0.59533  0.11493  1.0000
  H   H1218     1.0  0.18036  0.58629  0.13147  1.0000
  H   H1219     1.0  0.15798  0.58917  0.15273  1.0000
  H   H1220     1.0  0.13684  0.61248  0.15051  1.0000
  H   H1221     1.0  0.13125  0.56292  0.15981  1.0000
  H   H1222     1.0  0.10821  0.58391  0.15567  1.0000
  H   H1223     1.0  0.17602  0.55292  0.12676  1.0000
  H   H1224     1.0  0.16439  0.55221  0.14521  1.0000
  C   C713      1.0  0.99308  0.62660  0.06837  1.0000
  C   C714      1.0  0.01563  0.47275  0.05243  1.0000
  H   H1225     1.0  0.09870  0.59203  0.13196  1.0000
  H   H1226     1.0  0.09658  0.61500  0.14130  1.0000
  H   H1227     1.0  0.03975  0.55974  0.10826  1.0000
  C   C715      1.0  0.17854  0.33995  0.17046  1.0000
  C   C716      1.0  0.30579  0.34398  0.13177  1.0000
  H   H1228     1.0  0.10917  0.57630  0.18119  1.0000
  H   H1229     1.0  0.13731  0.58258  0.17830  1.0000
  H   H1230     1.0  0.11432  0.60434  0.17411  1.0000
  H   H1231     1.0  0.14966  0.52781  0.12451  1.0000
  H   H1232     1.0  0.16799  0.51562  0.13723  1.0000
  H   H1233     1.0  0.13917  0.52609  0.14336  1.0000
  N   N37       1.0  0.12826  0.36256  0.13289  1.0000
  H   H1234     1.0  0.25627  0.43368  0.01145  1.0000
  H   H1235     1.0  0.22936  0.32615  0.21154  1.0000
  H   H1236     1.0  0.47723  0.62775  0.10597  1.0000
  H   H1237     1.0  0.03917  0.52984  0.06152  1.0000
  H   H1238     1.0  0.08020  0.46533  0.07641  1.0000
  H   H1239     1.0  0.09186  0.64107  0.11805  1.0000
  C   C717      1.0  0.99315  0.52402  0.08738  1.0000
  H   H1240     1.0  0.11942  0.32132  0.20808  1.0000
  H   H1241     1.0  0.04886  0.40945  0.99943  1.0000
  H   H1242     1.0  0.00551  0.32041  0.02403  1.0000
  H   H1243     1.0  0.07004  0.62419  0.12481  1.0000
  C   C718      1.0  0.02113  0.53210  0.06620  1.0000
  H   H1244     1.0  0.29230  0.63852  0.20509  1.0000
  H   H1245     1.0  0.24378  0.39361  0.06723  1.0000
  H   H1246     1.0  0.99005  0.63194  0.10276  1.0000
  C   C719      1.0  0.10653  0.35778  0.99042  1.0000
  C   C720      1.0  0.07714  0.35690  0.11586  1.0000
  N   N38       1.0  0.01793  0.52300  0.08188  1.0000
  H   H1247     1.0  0.20233  0.61964  0.10984  1.0000
  H   H1248     1.0  0.12411  0.43017  0.13498  1.0000
  H   H1249     1.0  0.44133  0.48000  0.08790  1.0000
  H   H1250     1.0  0.01827  0.48884  0.07937  1.0000
  H   H1251     1.0  0.17073  0.48859  0.06090  1.0000
  H   H1252     1.0  0.00462  0.55435  0.04156  1.0000
  H   H1253     1.0  0.10821  0.36634  0.16188  1.0000
  H   H1254     1.0  0.15537  0.32476  0.21411  1.0000
  S   S163      1.0  0.04297  0.33404  0.08105  1.0000
  H   H1255     1.0  0.04214  0.36100  0.99909  1.0000
  H   H1256     1.0  0.43557  0.45834  0.97997  1.0000
  H   H1257     1.0  0.47291  0.34244  0.09481  1.0000
  H   H1258     1.0  0.19575  0.41854  0.03337  1.0000
  H   H1259     1.0  0.20939  0.47268  0.06497  1.0000
  H   H1260     1.0  0.23165  0.58564  0.21235  1.0000
  H   H1261     1.0  0.14626  0.36349  0.11150  1.0000
  H   H1262     1.0  0.03628  0.40887  0.02491  1.0000
  H   H1263     1.0  0.17352  0.42147  0.04817  1.0000
  H   H1264     1.0  0.03268  0.56026  0.04061  1.0000
  H   H1265     1.0  0.02345  0.39746  0.00533  1.0000
  H   H1266     1.0  0.14468  0.37905  0.14491  1.0000
  H   H1267     1.0  0.14844  0.43532  0.12197  1.0000
  H   H1268     1.0  0.02394  0.48199  0.04292  1.0000
  H   H1269     1.0  0.07765  0.37194  0.10757  1.0000
  H   H1270     1.0  0.15907  0.39575  0.12078  1.0000
  C   C721      1.0  0.16508  0.42718  0.21641  1.0000
  H   H1271     1.0  0.15199  0.41980  0.13924  1.0000
  H   H1272     1.0  0.48938  0.48904  0.03255  1.0000
  H   H1273     1.0  0.02644  0.33794  0.01851  1.0000
  H   H1274     1.0  0.11306  0.32378  0.09359  1.0000
  H   H1275     1.0  0.25742  0.37164  0.13077  1.0000
  H   H1276     1.0  0.10322  0.31674  0.16770  1.0000
  H   H1277     1.0  0.00539  0.35532  0.06222  1.0000
  N   N39       1.0  0.21724  0.43099  0.05269  1.0000
  C   C722      1.0  0.20679  0.41018  0.05435  1.0000
  C   C723      1.0  0.22932  0.42933  0.06509  1.0000
  C   C724      1.0  0.19839  0.45042  0.05342  1.0000
  C   C725      1.0  0.23283  0.43534  0.03876  1.0000
  C   C726      1.0  0.24570  0.41471  0.03223  1.0000
  C   C727      1.0  0.18954  0.41113  0.04441  1.0000
  C   C728      1.0  0.20497  0.47306  0.05437  1.0000
  C   C729      1.0  0.24895  0.40997  0.06684  1.0000
  C   C730      1.0  0.19744  0.62319  0.12085  1.0000
  C   C731      1.0  0.26379  0.42132  0.01979  1.0000
  C   C732      1.0  0.18419  0.38799  0.04437  1.0000
  C   C733      1.0  0.18537  0.49193  0.05257  1.0000
  H   H1278     1.0  0.19782  0.40632  0.06535  1.0000
  H   H1279     1.0  0.21967  0.39536  0.05306  1.0000
  H   H1280     1.0  0.23683  0.44461  0.06440  1.0000
  H   H1281     1.0  0.21712  0.42816  0.07517  1.0000
  H   H1282     1.0  0.18523  0.44660  0.06268  1.0000
  H   H1283     1.0  0.18985  0.45330  0.04398  1.0000
  H   H1284     1.0  0.22349  0.44564  0.03041  1.0000
  H   H1285     1.0  0.24535  0.44562  0.03984  1.0000
  H   H1286     1.0  0.23401  0.40672  0.02816  1.0000
  H   H1287     1.0  0.46614  0.41432  0.10816  1.0000
  C   C734      1.0  0.02399  0.32017  0.02145  1.0000
  H   H1288     1.0  0.46895  0.61639  0.05564  1.0000
  H   H1289     1.0  0.23610  0.62530  0.20966  1.0000
  H   H1290     1.0  0.26024  0.61727  0.21866  1.0000
  H   H1291     1.0  0.00149  0.63249  0.05787  1.0000
  H   H1292     1.0  0.17096  0.42913  0.20478  1.0000
  H   H1293     1.0  0.16305  0.63448  0.11894  1.0000
  H   H1294     1.0  0.25619  0.57754  0.22099  1.0000
  C   C735      1.0  0.14829  0.36100  0.21477  1.0000
  H   H1295     1.0  0.44277  0.32048  0.02107  1.0000
  H   H1296     1.0  0.99978  0.31421  0.00070  1.0000
  H   H1297     1.0  0.09007  0.40835  0.97619  1.0000
  C   C736      1.0  0.14095  0.33780  0.21657  1.0000
  H   H1298     1.0  0.44870  0.64037  0.11090  1.0000
  H   H1299     1.0  0.47995  0.41913  0.04017  1.0000
  H   H1300     1.0  0.24697  0.32622  0.12726  1.0000
  C   C737      1.0  0.25017  0.61185  0.21199  1.0000
  H   H1301     1.0  0.99650  0.34525  0.04030  1.0000
  S   S164      1.0  0.15744  0.64290  0.21714  1.0000
  H   H1302     1.0  0.47657  0.42013  0.02195  1.0000
  H   H1303     1.0  0.48877  0.52754  0.03458  1.0000
  H   H1304     1.0  0.23335  0.31843  0.15099  1.0000
  H   H1305     1.0  0.06007  0.43930  0.98208  1.0000
  H   H1306     1.0  0.20066  0.64022  0.12100  1.0000
  C   C738      1.0  0.99722  0.63453  0.08010  1.0000
  C   C739      1.0  0.48724  0.61675  0.05257  1.0000
  H   H1307     1.0  0.45905  0.64387  0.08495  1.0000
  C   C740      1.0  0.46569  0.64382  0.10569  1.0000
  S   S165      1.0  0.19392  0.59893  0.32100  1.0000
  Fe  Fe88      1.0  0.04210  0.52366  0.45052  1.0000
  S   S166      1.0  0.04079  0.49318  0.44173  1.0000
  Fe  Fe89      1.0  0.05117  0.55123  0.42103  1.0000
  S   S167      1.0  0.05029  0.52282  0.40981  1.0000
  H   H1308     1.0  0.02145  0.62559  0.35706  1.0000
  Fe  Fe90      1.0  0.02045  0.51580  0.42651  1.0000
  Fe  Fe91      1.0  0.07064  0.50239  0.42598  1.0000
  S   S168      1.0  0.09917  0.47468  0.42174  1.0000
  S   S169      1.0  0.07381  0.53106  0.43612  1.0000
  Fe  Fe92      1.0  0.25453  0.48830  0.35375  1.0000
  S   S170      1.0  0.27551  0.45545  0.36060  1.0000
  S   S171      1.0  0.26441  0.51204  0.33370  1.0000
  Fe  Fe93      1.0  0.22001  0.48423  0.38026  1.0000
  S   S172      1.0  0.23796  0.45115  0.38933  1.0000
  S   S173      1.0  0.18992  0.50716  0.38939  1.0000
  Fe  Fe94      1.0  0.26986  0.46650  0.38200  1.0000
  S   S174      1.0  0.29630  0.46130  0.39677  1.0000
  Fe  Fe95      1.0  0.24228  0.44255  0.36722  1.0000
  S   S175      1.0  0.23578  0.40771  0.36529  1.0000
  S   S176      1.0  0.25133  0.49997  0.37453  1.0000
  S   S177      1.0  0.22193  0.47482  0.35886  1.0000
  Fe  Fe96      1.0  0.38997  0.52431  0.42137  1.0000
  S   S178      1.0  0.42365  0.53037  0.40865  1.0000
  S   S179      1.0  0.36297  0.52273  0.40808  1.0000
  Fe  Fe97      1.0  0.40518  0.53104  0.44882  1.0000
  S   S180      1.0  0.43953  0.53734  0.43777  1.0000
  Fe  Fe98      1.0  0.42215  0.55853  0.42041  1.0000
  S   S181      1.0  0.42686  0.59372  0.40917  1.0000
  Fe  Fe99      1.0  0.43836  0.50855  0.42694  1.0000
  S   S182      1.0  0.47019  0.48493  0.42111  1.0000
  S   S183      1.0  0.38758  0.55409  0.43205  1.0000
  S   S184      1.0  0.40498  0.50061  0.43911  1.0000
  H   H1309     1.0  0.00065  0.50040  0.46245  1.0000
  Fe  Fe100     1.0  0.19430  0.33035  0.31704  1.0000
  C   C741      1.0  0.99290  0.37181  0.38162  1.0000
  S   S185      1.0  0.20264  0.36430  0.31935  1.0000
  H   H1310     1.0  0.12938  0.64197  0.29484  1.0000
  N   N40       1.0  0.42368  0.46162  0.39664  1.0000
  S   S186      1.0  0.16427  0.33079  0.30652  1.0000
  C   C742      1.0  0.26649  0.61692  0.34766  1.0000
  C   C743      1.0  0.42094  0.45715  0.41262  1.0000
  H   H1311     1.0  0.19174  0.57484  0.28517  1.0000
  H   H1312     1.0  0.42072  0.63310  0.44073  1.0000
  H   H1313     1.0  0.05233  0.56262  0.46038  1.0000
  H   H1314     1.0  0.00561  0.62532  0.44149  1.0000
  C   C744      1.0  0.47541  0.45658  0.42875  1.0000
  C   C745      1.0  0.48885  0.56037  0.44731  1.0000
  H   H1315     1.0  0.22685  0.52745  0.23665  1.0000
  H   H1316     1.0  0.15686  0.63493  0.24726  1.0000
  C   C746      1.0  0.46321  0.42287  0.44300  1.0000
  C   C747      1.0  0.45875  0.44582  0.43784  1.0000
  H   H1317     1.0  0.13853  0.37045  0.24052  1.0000
  H   H1318     1.0  0.13751  0.47204  0.36381  1.0000
  H   H1319     1.0  0.45024  0.41461  0.45000  1.0000
  H   H1320     1.0  0.44248  0.45519  0.44088  1.0000
  C   C748      1.0  0.42752  0.36187  0.43083  1.0000
  C   C749      1.0  0.45096  0.60689  0.40658  1.0000
  C   C750      1.0  0.47067  0.59634  0.41166  1.0000
  C   C751      1.0  0.15015  0.47646  0.46747  1.0000
  C   C752      1.0  0.44980  0.62909  0.39972  1.0000
  H   H1321     1.0  0.47205  0.57902  0.41652  1.0000
  H   H1322     1.0  0.02055  0.47159  0.41394  1.0000
  H   H1323     1.0  0.43235  0.37425  0.42148  1.0000
  C   C753      1.0  0.22780  0.39566  0.35201  1.0000
  C   C754      1.0  0.22523  0.40748  0.33849  1.0000
  C   C755      1.0  0.21776  0.39752  0.32867  1.0000
  C   C756      1.0  0.21289  0.37553  0.33210  1.0000
  C   C757      1.0  0.21563  0.36365  0.34558  1.0000
  C   C758      1.0  0.22300  0.37365  0.35543  1.0000
  H   H1324     1.0  0.22889  0.42435  0.33560  1.0000
  H   H1325     1.0  0.21574  0.40692  0.31830  1.0000
  H   H1326     1.0  0.21193  0.34679  0.34845  1.0000
  H   H1327     1.0  0.22490  0.36428  0.36582  1.0000
  C   C759      1.0  0.31407  0.47913  0.39996  1.0000
  C   C760      1.0  0.31684  0.49969  0.39140  1.0000
  C   C761      1.0  0.33167  0.51279  0.39414  1.0000
  C   C762      1.0  0.34388  0.50568  0.40552  1.0000
  C   C763      1.0  0.34074  0.48533  0.41423  1.0000
  C   C764      1.0  0.32615  0.47211  0.41138  1.0000
  H   H1328     1.0  0.30772  0.50533  0.38260  1.0000
  H   H1329     1.0  0.33382  0.52849  0.38733  1.0000
  H   H1330     1.0  0.34922  0.47988  0.42331  1.0000
  H   H1331     1.0  0.32401  0.45639  0.41817  1.0000
  C   C765      1.0  0.12424  0.48363  0.41239  1.0000
  C   C766      1.0  0.14383  0.46810  0.41058  1.0000
  C   C767      1.0  0.16414  0.47507  0.40345  1.0000
  C   C768      1.0  0.16483  0.49757  0.39804  1.0000
  C   C769      1.0  0.14524  0.51306  0.39990  1.0000
  C   C770      1.0  0.12496  0.50612  0.40700  1.0000
  H   H1332     1.0  0.14333  0.45070  0.41477  1.0000
  H   H1333     1.0  0.17934  0.46319  0.40229  1.0000
  H   H1334     1.0  0.14575  0.53050  0.39579  1.0000
  H   H1335     1.0  0.10991  0.51819  0.40831  1.0000
  C   C771      1.0  0.04173  0.60557  0.40232  1.0000
  C   C772      1.0  0.01980  0.60221  0.40245  1.0000
  H   H1336     1.0  0.29820  0.56030  0.39348  1.0000
  H   H1337     1.0  0.16740  0.36318  0.27202  1.0000
  H   H1338     1.0  0.11729  0.51151  0.45711  1.0000
  C   C773      1.0  0.21356  0.57461  0.32386  1.0000
  C   C774      1.0  0.20673  0.55612  0.33339  1.0000
  C   C775      1.0  0.22217  0.53681  0.33640  1.0000
  C   C776      1.0  0.24446  0.53569  0.32967  1.0000
  C   C777      1.0  0.25117  0.55396  0.31984  1.0000
  C   C778      1.0  0.23582  0.57346  0.31705  1.0000
  H   H1339     1.0  0.18952  0.55684  0.33866  1.0000
  H   H1340     1.0  0.21682  0.52285  0.34400  1.0000
  H   H1341     1.0  0.26838  0.55315  0.31457  1.0000
  H   H1342     1.0  0.24124  0.58756  0.30965  1.0000
  C   C779      1.0  0.24243  0.57855  0.35705  1.0000
  H   H1343     1.0  0.46611  0.38291  0.41865  1.0000
  H   H1344     1.0  0.07898  0.63995  0.34311  1.0000
  H   H1345     1.0  0.40450  0.40425  0.38722  1.0000
  H   H1346     1.0  0.03336  0.34556  0.38194  1.0000
  H   H1347     1.0  0.06504  0.62912  0.39622  1.0000
  C   C780      1.0  0.41866  0.44274  0.39050  1.0000
  S   S187      1.0  0.01960  0.54609  0.43637  1.0000
  H   H1348     1.0  0.13571  0.38580  0.34404  1.0000
  C   C781      1.0  0.02532  0.34315  0.37315  1.0000
  C   C782      1.0  0.05860  0.32011  0.36289  1.0000
  C   C783      1.0  0.18748  0.64413  0.25062  1.0000
  C   C784      1.0  0.05773  0.57926  0.45752  1.0000
  H   H1349     1.0  0.27648  0.58983  0.33577  1.0000
  C   C785      1.0  0.17222  0.64128  0.24225  1.0000
  C   C786      1.0  0.15286  0.42076  0.44387  1.0000
  H   H1350     1.0  0.00259  0.36092  0.46152  1.0000
  C   C787      1.0  0.29239  0.62968  0.27259  1.0000
  C   C788      1.0  0.17327  0.41229  0.37730  1.0000
  H   H1351     1.0  0.18140  0.39722  0.40502  1.0000
  H   H1352     1.0  0.14514  0.63034  0.27959  1.0000
  H   H1353     1.0  0.23145  0.54576  0.36150  1.0000
  H   H1354     1.0  0.42424  0.38448  0.39650  1.0000
  H   H1355     1.0  0.24747  0.56024  0.24871  1.0000
  C   C789      1.0  0.30227  0.54449  0.35419  1.0000
  H   H1356     1.0  0.16344  0.37005  0.34471  1.0000
  H   H1357     1.0  0.15336  0.54036  0.42636  1.0000
  N   N41       1.0  0.13235  0.47679  0.45865  1.0000
  H   H1358     1.0  0.18813  0.38585  0.22346  1.0000
  H   H1359     1.0  0.28141  0.58669  0.39659  1.0000
  H   H1360     1.0  0.37811  0.44289  0.44059  1.0000
  C   C790      1.0  0.04823  0.62630  0.39613  1.0000
  H   H1361     1.0  0.40941  0.49609  0.39782  1.0000
  C   C791      1.0  0.20081  0.58148  0.25512  1.0000
  H   H1362     1.0  0.99725  0.38425  0.37208  1.0000
  H   H1363     1.0  0.38715  0.44788  0.41462  1.0000
  H   H1364     1.0  0.10171  0.33027  0.35594  1.0000
  C   C792      1.0  0.21324  0.58782  0.26595  1.0000
  H   H1365     1.0  0.12946  0.46190  0.44088  1.0000
  H   H1366     1.0  0.07193  0.57871  0.44857  1.0000
  C   C793      1.0  0.44797  0.34542  0.43568  1.0000
  C   C794      1.0  0.46655  0.44733  0.39364  1.0000
  H   H1367     1.0  0.30745  0.57588  0.36788  1.0000
  C   C795      1.0  0.41496  0.37460  0.44267  1.0000
  H   H1368     1.0  0.23389  0.55574  0.37720  1.0000
  C   C796      1.0  0.38928  0.50864  0.37285  1.0000
  H   H1369     1.0  0.13911  0.42219  0.43765  1.0000
  H   H1370     1.0  0.17723  0.48175  0.32559  1.0000
  S   S188      1.0  0.06133  0.58455  0.41010  1.0000
  C   C797      1.0  0.27051  0.57572  0.37253  1.0000
  C   C798      1.0  0.27707  0.55242  0.35352  1.0000
  C   C799      1.0  0.02113  0.31769  0.35781  1.0000
  N   N42       1.0  0.46453  0.33478  0.42437  1.0000
  H   H1371     1.0  0.42781  0.44293  0.37945  1.0000
  C   C800      1.0  0.48304  0.34861  0.41830  1.0000
  C   C801      1.0  0.29227  0.58371  0.37425  1.0000
  C   C802      1.0  0.31029  0.52239  0.34869  1.0000
  H   H1372     1.0  0.07463  0.64239  0.36119  1.0000
  H   H1373     1.0  0.47699  0.59518  0.44225  1.0000
  H   H1374     1.0  0.16276  0.39997  0.38374  1.0000
  H   H1375     1.0  0.29113  0.60198  0.37082  1.0000
  H   H1376     1.0  0.26844  0.53918  0.36052  1.0000
  H   H1377     1.0  0.41554  0.35269  0.42800  1.0000
  C   C803      1.0  0.48451  0.41067  0.43938  1.0000
  C   C804      1.0  0.38575  0.64452  0.41422  1.0000
  C   C805      1.0  0.01188  0.63659  0.43181  1.0000
  H   H1378     1.0  0.00440  0.33428  0.44581  1.0000
  C   C806      1.0  0.99481  0.35118  0.44333  1.0000
  C   C807      1.0  0.26019  0.52000  0.24162  1.0000
  H   H1379     1.0  0.19458  0.43438  0.35488  1.0000
  C   C808      1.0  0.27752  0.59253  0.34662  1.0000
  N   N43       1.0  0.21543  0.57433  0.24193  1.0000
  H   H1380     1.0  0.98993  0.34663  0.37009  1.0000
  H   H1381     1.0  0.17932  0.42744  0.22188  1.0000
  Fe  Fe101     1.0  0.20559  0.63017  0.30781  1.0000
  H   H1382     1.0  0.13255  0.33280  0.22757  1.0000
  H   H1383     1.0  0.24622  0.54441  0.22557  1.0000
  H   H1384     1.0  0.48238  0.32391  0.44959  1.0000
  H   H1385     1.0  0.06978  0.60260  0.46666  1.0000
  H   H1386     1.0  0.38738  0.52284  0.37865  1.0000
  H   H1387     1.0  0.16973  0.59263  0.23628  1.0000
  H   H1388     1.0  0.42458  0.50020  0.37273  1.0000
  H   H1389     1.0  0.30519  0.54154  0.36534  1.0000
  H   H1390     1.0  0.20068  0.46904  0.33445  1.0000
  H   H1391     1.0  0.16809  0.42552  0.43657  1.0000
  C   C809      1.0  0.48685  0.63089  0.40429  1.0000
  H   H1392     1.0  0.43177  0.44168  0.41648  1.0000
  H   H1393     1.0  0.19976  0.58313  0.37502  1.0000
  H   H1394     1.0  0.19434  0.55571  0.37440  1.0000
  H   H1395     1.0  0.04363  0.59161  0.45386  1.0000
  C   C810      1.0  0.44717  0.46657  0.39084  1.0000
  H   H1396     1.0  0.12762  0.43687  0.36202  1.0000
  H   H1397     1.0  0.45680  0.35425  0.44139  1.0000
  H   H1398     1.0  0.36290  0.60938  0.45430  1.0000
  C   C811      1.0  0.11173  0.46614  0.38166  1.0000
  C   C812      1.0  0.12849  0.63862  0.28418  1.0000
  C   C813      1.0  0.16942  0.36341  0.24949  1.0000
  H   H1399     1.0  0.44066  0.41506  0.40173  1.0000
  H   H1400     1.0  0.15714  0.46452  0.44185  1.0000
  C   C814      1.0  0.42371  0.31530  0.40464  1.0000
  C   C815      1.0  0.15643  0.36131  0.26460  1.0000
  H   H1401     1.0  0.15236  0.41763  0.34649  1.0000
  H   H1402     1.0  0.15116  0.34230  0.24248  1.0000
  H   H1403     1.0  0.22546  0.54489  0.25692  1.0000
  H   H1404     1.0  0.16111  0.56438  0.22375  1.0000
  H   H1405     1.0  0.45010  0.48119  0.39503  1.0000
  H   H1406     1.0  0.26972  0.55899  0.37919  1.0000
  C   C816      1.0  0.19094  0.41064  0.39907  1.0000
  H   H1407     1.0  0.27483  0.52840  0.24130  1.0000
  C   C817      1.0  0.00056  0.40220  0.46855  1.0000
  C   C818      1.0  0.17676  0.44230  0.35674  1.0000
  H   H1408     1.0  0.46722  0.32570  0.40367  1.0000
  H   H1409     1.0  0.13096  0.42489  0.37960  1.0000
  C   C819      1.0  0.42152  0.40138  0.39016  1.0000
  H   H1410     1.0  0.15100  0.34468  0.26797  1.0000
  C   C820      1.0  0.37974  0.59944  0.45204  1.0000
  H   H1411     1.0  0.14149  0.37440  0.26536  1.0000
  C   C821      1.0  0.17794  0.42568  0.38800  1.0000
  H   H1412     1.0  0.13378  0.39306  0.36871  1.0000
  C   C822      1.0  0.15037  0.38834  0.36234  1.0000
  H   H1413     1.0  0.23849  0.59759  0.24044  1.0000
  C   C823      1.0  0.45394  0.33125  0.41235  1.0000
  H   H1414     1.0  0.99713  0.35618  0.43163  1.0000
  C   C824      1.0  0.19755  0.59080  0.27987  1.0000
  C   C825      1.0  0.01943  0.41295  0.44436  1.0000
  H   H1415     1.0  0.13535  0.60272  0.37316  1.0000
  C   C826      1.0  0.02969  0.43283  0.44674  1.0000
  C   C827      1.0  0.05230  0.43442  0.43708  1.0000
  H   H1416     1.0  0.01808  0.41550  0.43288  1.0000
  H   H1417     1.0  0.03232  0.39808  0.44617  1.0000
  C   C828      1.0  0.13898  0.53368  0.43360  1.0000
  H   H1418     1.0  0.18124  0.32836  0.22660  1.0000
  H   H1419     1.0  0.15961  0.43282  0.46161  1.0000
  H   H1420     1.0  0.03268  0.43079  0.45782  1.0000
  H   H1421     1.0  0.01860  0.44889  0.44433  1.0000
  H   H1422     1.0  0.06026  0.44764  0.43951  1.0000
  H   H1423     1.0  0.06394  0.41851  0.43868  1.0000
  H   H1424     1.0  0.04997  0.43859  0.42578  1.0000
  H   H1425     1.0  0.31125  0.58488  0.39071  1.0000
  H   H1426     1.0  0.47126  0.58697  0.46761  1.0000
  C   C829      1.0  0.13856  0.43581  0.37011  1.0000
  C   C830      1.0  0.17681  0.64651  0.22742  1.0000
  H   H1427     1.0  0.38656  0.60400  0.44064  1.0000
  H   H1428     1.0  0.19895  0.34734  0.22730  1.0000
  N   N44       1.0  0.26728  0.57491  0.35763  1.0000
  H   H1429     1.0  0.13960  0.36030  0.35645  1.0000
  C   C831      1.0  0.44114  0.62217  0.45783  1.0000
  C   C832      1.0  0.09857  0.31974  0.36651  1.0000
  H   H1430     1.0  0.29572  0.59119  0.34671  1.0000
  H   H1431     1.0  0.37378  0.50084  0.37578  1.0000
  H   H1432     1.0  0.29728  0.63150  0.34399  1.0000
  N   N45       1.0  0.16227  0.42539  0.36501  1.0000
  C   C833      1.0  0.14113  0.46044  0.44852  1.0000
  H   H1433     1.0  0.17878  0.40308  0.35027  1.0000
  C   C834      1.0  0.24065  0.53685  0.23664  1.0000
  H   H1434     1.0  0.13073  0.43002  0.46229  1.0000
  H   H1435     1.0  0.32816  0.51662  0.34978  1.0000
  H   H1436     1.0  0.21464  0.60901  0.23251  1.0000
  S   S189      1.0  0.23824  0.63339  0.29330  1.0000
  H   H1437     1.0  0.08548  0.61329  0.32943  1.0000
  H   H1438     1.0  0.10899  0.32387  0.37351  1.0000
  H   H1439     1.0  0.19786  0.57558  0.35829  1.0000
  H   H1440     1.0  0.10904  0.45508  0.39207  1.0000
  H   H1441     1.0  0.15669  0.40312  0.44890  1.0000
  H   H1442     1.0  0.41117  0.47808  0.37001  1.0000
  C   C835      1.0  0.14708  0.37542  0.35117  1.0000
  N   N46       1.0  0.43684  0.59879  0.46432  1.0000
  H   H1443     1.0  0.11503  0.49885  0.44278  1.0000
  H   H1444     1.0  0.19383  0.42064  0.40670  1.0000
  H   H1445     1.0  0.37781  0.58156  0.45435  1.0000
  H   H1446     1.0  0.37774  0.62948  0.41515  1.0000
  C   C836      1.0  0.17053  0.45363  0.34205  1.0000
  H   H1447     1.0  0.09880  0.46508  0.37535  1.0000
  C   C837      1.0  0.40964  0.49160  0.37629  1.0000
  C   C838      1.0  0.13527  0.45974  0.37369  1.0000
  H   H1448     1.0  0.15217  0.45886  0.34270  1.0000
  H   H1449     1.0  0.31277  0.55669  0.34769  1.0000
  H   H1450     1.0  0.45822  0.62434  0.45908  1.0000
  N   N47       1.0  0.10042  0.61527  0.35551  1.0000
  C   C839      1.0  0.01088  0.64042  0.39045  1.0000
  C   C840      1.0  0.10468  0.59690  0.34671  1.0000
  C   C841      1.0  0.07826  0.62991  0.35391  1.0000
  C   C842      1.0  0.09988  0.60488  0.37088  1.0000
  C   C843      1.0  0.12238  0.59170  0.37498  1.0000
  H   H1451     1.0  0.03798  0.64063  0.34224  1.0000
  C   C844      1.0  0.05739  0.61784  0.35708  1.0000
  C   C845      1.0  0.10247  0.60432  0.33080  1.0000
  C   C846      1.0  0.10674  0.58426  0.32312  1.0000
  C   C847      1.0  0.11948  0.58130  0.39065  1.0000
  H   H1452     1.0  0.11940  0.64131  0.37042  1.0000
  H   H1453     1.0  0.40943  0.36287  0.45233  1.0000
  H   H1454     1.0  0.18278  0.60361  0.27798  1.0000
  H   H1455     1.0  0.42369  0.59237  0.44643  1.0000
  H   H1456     1.0  0.12198  0.58769  0.34690  1.0000
  H   H1457     1.0  0.09348  0.58420  0.35137  1.0000
  H   H1458     1.0  0.44947  0.47131  0.37912  1.0000
  H   H1459     1.0  0.43423  0.40202  0.38037  1.0000
  H   H1460     1.0  0.09384  0.61773  0.37785  1.0000
  H   H1461     1.0  0.08740  0.59312  0.37407  1.0000
  N   N48       1.0  0.03405  0.32045  0.36898  1.0000
  H   H1462     1.0  0.12876  0.57796  0.36877  1.0000
  C   C848      1.0  0.00170  0.44725  0.41059  1.0000
  H   H1463     1.0  0.39145  0.51517  0.36131  1.0000
  H   H1464     1.0  0.05421  0.61037  0.36844  1.0000
  H   H1465     1.0  0.05940  0.60448  0.35063  1.0000
  H   H1466     1.0  0.17448  0.38019  0.24680  1.0000
  H   H1467     1.0  0.11493  0.61533  0.32538  1.0000
  H   H1468     1.0  0.09431  0.57284  0.32786  1.0000
  H   H1469     1.0  0.10515  0.59001  0.31178  1.0000
  H   H1470     1.0  0.12394  0.57508  0.32371  1.0000
  H   H1471     1.0  0.10777  0.56887  0.39286  1.0000
  H   H1472     1.0  0.13592  0.57269  0.39346  1.0000
  H   H1473     1.0  0.11283  0.59428  0.39746  1.0000
  H   H1474     1.0  0.19086  0.56810  0.26076  1.0000
  N   N49       1.0  0.16557  0.36266  0.22351  1.0000
  H   H1475     1.0  0.44482  0.34702  0.40737  1.0000
  H   H1476     1.0  0.41287  0.33175  0.40326  1.0000
  H   H1477     1.0  0.11611  0.62710  0.28541  1.0000
  C   C849      1.0  0.48841  0.60842  0.41073  1.0000
  H   H1478     1.0  0.23952  0.57950  0.34597  1.0000
  C   C850      1.0  0.47597  0.37259  0.41079  1.0000
  C   C851      1.0  0.20366  0.56942  0.36866  1.0000
  C   C852      1.0  0.40757  0.48239  0.39242  1.0000
  H   H1479     1.0  0.40393  0.45160  0.44186  1.0000
  C   C853      1.0  0.42368  0.41879  0.39883  1.0000
  C   C854      1.0  0.39658  0.45594  0.42035  1.0000
  H   H1480     1.0  0.25520  0.51142  0.25260  1.0000
  C   C855      1.0  0.22882  0.56081  0.36657  1.0000
  H   H1481     1.0  0.42693  0.47047  0.41652  1.0000
  H   H1482     1.0  0.16186  0.43290  0.39384  1.0000
  C   C856      1.0  0.39583  0.44328  0.43549  1.0000
  H   H1483     1.0  0.14254  0.51136  0.47124  1.0000
  H   H1484     1.0  0.39990  0.38551  0.43917  1.0000
  H   H1485     1.0  0.03048  0.63427  0.43043  1.0000
  C   C857      1.0  0.18218  0.47400  0.33603  1.0000
  H   H1486     1.0  0.16669  0.47791  0.46062  1.0000
  H   H1487     1.0  0.17697  0.45557  0.36287  1.0000
  H   H1488     1.0  0.17736  0.48657  0.34325  1.0000
  H   H1489     1.0  0.27423  0.55202  0.34263  1.0000
  H   H1490     1.0  0.41153  0.41656  0.40880  1.0000
  H   H1491     1.0  0.22760  0.57495  0.26854  1.0000
  H   H1492     1.0  0.38773  0.47314  0.42091  1.0000
  H   H1493     1.0  0.18944  0.40241  0.37327  1.0000
  H   H1494     1.0  0.30564  0.63773  0.24491  1.0000
  H   H1495     1.0  0.30869  0.52439  0.33732  1.0000
  H   H1496     1.0  0.23438  0.59485  0.36021  1.0000
  H   H1497     1.0  0.02117  0.36784  0.44519  1.0000
  H   H1498     1.0  0.11821  0.63783  0.33943  1.0000
  H   H1499     1.0  0.27890  0.62097  0.27113  1.0000
  H   H1500     1.0  0.25641  0.58694  0.37777  1.0000
  C   C858      1.0  0.43867  0.62992  0.44195  1.0000
  H   H1501     1.0  0.06055  0.33314  0.35327  1.0000
  C   C859      1.0  0.29591  0.57857  0.38972  1.0000
  C   C860      1.0  0.15504  0.35958  0.23893  1.0000
  H   H1502     1.0  0.40449  0.42592  0.43549  1.0000
  H   H1503     1.0  0.12567  0.53401  0.42725  1.0000
  H   H1504     1.0  0.25069  0.62066  0.34309  1.0000
  H   H1505     1.0  0.19157  0.55408  0.23963  1.0000
  C   C861      1.0  0.16151  0.40919  0.35535  1.0000
  H   H1506     1.0  0.17601  0.44180  0.33435  1.0000
  C   C862      1.0  0.03298  0.64357  0.39005  1.0000
  H   H1507     1.0  0.14738  0.46174  0.38024  1.0000
  H   H1508     1.0  0.10970  0.48352  0.38369  1.0000
  H   H1509     1.0  0.20753  0.40304  0.39392  1.0000
  H   H1510     1.0  0.30033  0.50941  0.35485  1.0000
  H   H1511     1.0  0.16126  0.37676  0.36932  1.0000
  H   H1512     1.0  0.18802  0.43898  0.38274  1.0000
  H   H1513     1.0  0.15983  0.51073  0.44676  1.0000
  H   H1514     1.0  0.30894  0.61964  0.26959  1.0000
  C   C863      1.0  0.09218  0.46715  0.46126  1.0000
  C   C864      1.0  0.00437  0.61968  0.39665  1.0000
  H   H1515     1.0  0.14906  0.40481  0.23323  1.0000
  H   H1516     1.0  0.29040  0.63111  0.28398  1.0000
  H   H1517     1.0  0.39332  0.64688  0.39165  1.0000
  H   H1518     1.0  0.20659  0.59626  0.28715  1.0000
  C   C865      1.0  0.46967  0.57994  0.44740  1.0000
  C   C866      1.0  0.20038  0.56786  0.23327  1.0000
  H   H1519     1.0  0.46606  0.43387  0.38771  1.0000
  H   H1520     1.0  0.45779  0.57691  0.44103  1.0000
  H   H1521     1.0  0.38991  0.47941  0.39608  1.0000
  H   H1522     1.0  0.21967  0.60381  0.26163  1.0000
  C   C867      1.0  0.22702  0.59361  0.23403  1.0000
  H   H1523     1.0  0.13244  0.54462  0.44173  1.0000
  H   H1524     1.0  0.18480  0.35088  0.24956  1.0000
  H   H1525     1.0  0.46614  0.37284  0.40233  1.0000
  C   C868      1.0  0.00340  0.36763  0.45004  1.0000
  C   C869      1.0  0.14667  0.50992  0.44061  1.0000
  H   H1526     1.0  0.28628  0.63106  0.32806  1.0000
  H   H1527     1.0  0.43481  0.63717  0.39559  1.0000
  C   C870      1.0  0.39512  0.60392  0.46144  1.0000
  H   H1528     1.0  0.40058  0.44514  0.38945  1.0000
  H   H1529     1.0  0.99449  0.33666  0.38810  1.0000
  H   H1530     1.0  0.01461  0.58630  0.40720  1.0000
  H   H1531     1.0  0.18835  0.59632  0.25234  1.0000
  C   C871      1.0  0.23242  0.55451  0.24661  1.0000
  H   H1532     1.0  0.13567  0.61876  0.35001  1.0000
  H   H1533     1.0  0.46575  0.44048  0.40506  1.0000
  C   C872      1.0  0.14580  0.43562  0.45530  1.0000
  C   C873      1.0  0.12666  0.49952  0.45010  1.0000
  H   H1534     1.0  0.07959  0.52881  0.46819  1.0000
  H   H1535     1.0  0.01648  0.43616  0.40689  1.0000
  C   C874      1.0  0.11891  0.62935  0.35049  1.0000
  H   H1536     1.0  0.26229  0.61981  0.35882  1.0000
  C   C875      1.0  0.03645  0.63414  0.35379  1.0000
  H   H1537     1.0  0.08633  0.48250  0.45416  1.0000
  H   H1538     1.0  0.01705  0.33395  0.35087  1.0000
  C   C876      1.0  0.07383  0.32372  0.37302  1.0000
  C   C877      1.0  0.46770  0.64102  0.39845  1.0000
  H   H1539     1.0  0.01482  0.38833  0.46945  1.0000
  H   H1540     1.0  0.39502  0.62213  0.46002  1.0000
  H   H1541     1.0  0.02976  0.35646  0.36408  1.0000
  H   H1542     1.0  0.09759  0.45345  0.45493  1.0000
  H   H1543     1.0  0.15431  0.50010  0.43201  1.0000
  C   C878      1.0  0.00406  0.46729  0.41456  1.0000
  C   C879      1.0  0.41928  0.59131  0.45810  1.0000
  H   H1544     1.0  0.06999  0.34109  0.37516  1.0000
  H   H1545     1.0  0.26531  0.50727  0.23453  1.0000
  H   H1546     1.0  0.42590  0.38516  0.44531  1.0000
  H   H1547     1.0  0.44717  0.61740  0.43526  1.0000
  C   C880      1.0  0.48934  0.45516  0.38843  1.0000
  H   H1548     1.0  0.42954  0.63465  0.46366  1.0000
  C   C881      1.0  0.45822  0.58239  0.46267  1.0000
  H   H1549     1.0  0.00125  0.37405  0.39031  1.0000
  N   N50       1.0  0.99708  0.40910  0.45331  1.0000
  H   H1550     1.0  0.21022  0.56112  0.22383  1.0000
  H   H1551     1.0  0.44074  0.33253  0.44406  1.0000
  H   H1552     1.0  0.45506  0.56566  0.46838  1.0000
  H   H1553     1.0  0.40320  0.63890  0.41632  1.0000
  C   C882      1.0  0.28175  0.63350  0.33932  1.0000
  C   C883      1.0  0.99966  0.34815  0.37827  1.0000
  H   H1554     1.0  0.44731  0.64474  0.35319  1.0000
  H   H1555     1.0  0.00680  0.63178  0.42262  1.0000
  C   C884      1.0  0.06502  0.58576  0.47015  1.0000
  H   H1556     1.0  0.18408  0.63970  0.26200  1.0000
  H   H1557     1.0  0.48238  0.54449  0.45200  1.0000
  H   H1558     1.0  0.41847  0.57330  0.46205  1.0000
  C   C885      1.0  0.18235  0.58664  0.22754  1.0000
  C   C886      1.0  0.11142  0.47074  0.46847  1.0000
  H   H1559     1.0  0.05852  0.45865  0.46689  1.0000
  H   H1560     1.0  0.27644  0.64616  0.24688  1.0000
  H   H1561     1.0  0.42632  0.31560  0.42639  1.0000
  S   S190      1.0  0.48956  0.38185  0.44589  1.0000
  C   C887      1.0  0.43776  0.31368  0.41627  1.0000
  C   C888      1.0  0.15532  0.40551  0.22172  1.0000
  C   C889      1.0  0.18574  0.34491  0.22160  1.0000
  C   C890      1.0  0.07202  0.46115  0.47230  1.0000
  Fe  Fe102     1.0  0.08663  0.52050  0.53789  1.0000
  S   S191      1.0  0.05118  0.53694  0.54281  1.0000
  S   S192      1.0  0.10243  0.52046  0.51483  1.0000
  Fe  Fe103     1.0  0.09164  0.50844  0.56912  1.0000
  S   S193      1.0  0.05587  0.52352  0.57625  1.0000
  S   S194      1.0  0.11265  0.49194  0.58635  1.0000
  Fe  Fe104     1.0  0.04702  0.50712  0.55966  1.0000
  S   S195      1.0  0.01440  0.49294  0.56255  1.0000
  Fe  Fe105     1.0  0.06303  0.55190  0.55874  1.0000
  S   S196      1.0  0.05185  0.58902  0.55850  1.0000
  S   S197      1.0  0.08205  0.48961  0.55396  1.0000
  S   S198      1.0  0.09923  0.53785  0.55250  1.0000
  H   H1562     1.0  0.03420  0.38594  0.56907  1.0000
  H   H1563     1.0  0.02977  0.59134  0.47967  1.0000
  H   H1564     1.0  0.40941  0.58842  0.62674  1.0000
  S   S199      1.0  0.27747  0.33671  0.64827  1.0000
  C   C891      1.0  0.31406  0.61123  0.61982  1.0000
  Fe  Fe106     1.0  0.44658  0.54983  0.53980  1.0000
  S   S200      1.0  0.45124  0.51874  0.55597  1.0000
  S   S201      1.0  0.45224  0.54538  0.51645  1.0000
  Fe  Fe107     1.0  0.45022  0.57997  0.56140  1.0000
  S   S202      1.0  0.45626  0.55048  0.57825  1.0000
  Fe  Fe108     1.0  0.42818  0.53855  0.57145  1.0000
  S   S203      1.0  0.40310  0.52688  0.59042  1.0000
  S   S204      1.0  0.42111  0.56873  0.55502  1.0000
  H   H1565     1.0  0.10413  0.48405  0.47495  1.0000
  S   S205      1.0  0.35157  0.61802  0.67899  1.0000
  H   H1566     1.0  0.16047  0.50561  0.49244  1.0000
  S   S206      1.0  0.30190  0.61183  0.69703  1.0000
  Fe  Fe109     1.0  0.33289  0.62296  0.70058  1.0000
  Fe  Fe110     1.0  0.31960  0.60971  0.67477  1.0000
  S   S207      1.0  0.32519  0.58001  0.66325  1.0000
  H   H1567     1.0  0.29031  0.63623  0.62996  1.0000
  Fe  Fe111     1.0  0.28537  0.49210  0.60412  1.0000
  S   S208      1.0  0.28494  0.49147  0.62726  1.0000
  S   S209      1.0  0.31522  0.48986  0.58656  1.0000
  Fe  Fe112     1.0  0.23396  0.49882  0.60669  1.0000
  S   S210      1.0  0.22942  0.49867  0.63025  1.0000
  S   S211      1.0  0.21009  0.51019  0.59035  1.0000
  Fe  Fe113     1.0  0.25675  0.52007  0.62557  1.0000
  S   S212      1.0  0.25176  0.55230  0.63457  1.0000
  Fe  Fe114     1.0  0.25800  0.46980  0.63040  1.0000
  S   S213      1.0  0.25927  0.44120  0.64896  1.0000
  S   S214      1.0  0.25932  0.52229  0.60210  1.0000
  S   S215      1.0  0.26049  0.46835  0.60721  1.0000
  S   S216      1.0  0.39228  0.53492  0.47198  1.0000
  H   H1568     1.0  0.35720  0.31863  0.69485  1.0000
  H   H1569     1.0  0.48460  0.40548  0.62789  1.0000
  H   H1570     1.0  0.07679  0.44555  0.47956  1.0000
  H   H1571     1.0  0.37192  0.61558  0.56874  1.0000
  C   C892      1.0  0.43375  0.60535  0.50391  1.0000
  C   C893      1.0  0.30387  0.57187  0.65630  1.0000
  C   C894      1.0  0.30838  0.55184  0.65081  1.0000
  C   C895      1.0  0.29247  0.54548  0.64430  1.0000
  C   C896      1.0  0.27191  0.55918  0.64317  1.0000
  C   C897      1.0  0.26733  0.57914  0.64876  1.0000
  C   C898      1.0  0.28317  0.58542  0.65538  1.0000
  H   H1572     1.0  0.32424  0.54115  0.65161  1.0000
  H   H1573     1.0  0.29615  0.53002  0.64012  1.0000
  H   H1574     1.0  0.25143  0.58978  0.64798  1.0000
  H   H1575     1.0  0.27946  0.60084  0.65961  1.0000
  C   C899      1.0  0.37885  0.51661  0.58900  1.0000
  C   C900      1.0  0.37393  0.51470  0.57589  1.0000
  C   C901      1.0  0.35434  0.50643  0.57527  1.0000
  C   C902      1.0  0.33940  0.50051  0.58769  1.0000
  C   C903      1.0  0.34424  0.50263  0.60077  1.0000
  C   C904      1.0  0.36406  0.51039  0.60142  1.0000
  H   H1576     1.0  0.38530  0.51938  0.56628  1.0000
  H   H1577     1.0  0.35072  0.50470  0.56512  1.0000
  H   H1578     1.0  0.33292  0.49793  0.61040  1.0000
  H   H1579     1.0  0.36786  0.51166  0.61161  1.0000
  C   C905      1.0  0.40910  0.53612  0.48472  1.0000
  H   H1580     1.0  0.33998  0.34757  0.64682  1.0000
  C   C906      1.0  0.44533  0.53421  0.49189  1.0000
  C   C907      1.0  0.43497  0.54063  0.50497  1.0000
  C   C908      1.0  0.41156  0.54431  0.50802  1.0000
  C   C909      1.0  0.39871  0.54210  0.49792  1.0000
  H   H1581     1.0  0.33726  0.41770  0.64096  1.0000
  H   H1582     1.0  0.40335  0.54930  0.51802  1.0000
  H   H1583     1.0  0.38061  0.54531  0.50028  1.0000
  C   C910      1.0  0.27230  0.36572  0.64859  1.0000
  C   C911      1.0  0.26989  0.38068  0.63594  1.0000
  C   C912      1.0  0.26607  0.40387  0.63580  1.0000
  C   C913      1.0  0.26425  0.41227  0.64839  1.0000
  C   C914      1.0  0.26655  0.39729  0.66102  1.0000
  C   C915      1.0  0.27061  0.37414  0.66113  1.0000
  H   H1584     1.0  0.27100  0.37429  0.62621  1.0000
  H   H1585     1.0  0.26421  0.41523  0.62602  1.0000
  H   H1586     1.0  0.26508  0.40364  0.67082  1.0000
  H   H1587     1.0  0.27218  0.36280  0.67096  1.0000
  C   C916      1.0  0.01208  0.46917  0.55561  1.0000
  C   C917      1.0  0.48404  0.48066  0.53425  1.0000
  H   H1588     1.0  0.12307  0.59690  0.56862  1.0000
  C   C918      1.0  0.00758  0.42974  0.54647  1.0000
  C   C919      1.0  0.02838  0.43741  0.54378  1.0000
  C   C920      1.0  0.03063  0.45706  0.54829  1.0000
  C   C921      1.0  0.38692  0.36315  0.63890  1.0000
  C   C922      1.0  0.00395  0.40266  0.61920  1.0000
  H   H1589     1.0  0.04292  0.42791  0.53838  1.0000
  H   H1590     1.0  0.04681  0.46260  0.54636  1.0000
  C   C923      1.0  0.13980  0.49704  0.58728  1.0000
  C   C924      1.0  0.15063  0.51246  0.57713  1.0000
  C   C925      1.0  0.17193  0.51647  0.57842  1.0000
  C   C926      1.0  0.18290  0.50484  0.58970  1.0000
  C   C927      1.0  0.17204  0.48946  0.59990  1.0000
  C   C928      1.0  0.15055  0.48569  0.59872  1.0000
  H   H1591     1.0  0.14258  0.52133  0.56828  1.0000
  H   H1592     1.0  0.18001  0.52862  0.57056  1.0000
  H   H1593     1.0  0.18023  0.48040  0.60865  1.0000
  H   H1594     1.0  0.14230  0.47375  0.60666  1.0000
  C   C929      1.0  0.04549  0.60038  0.57439  1.0000
  C   C930      1.0  0.03847  0.62340  0.57384  1.0000
  C   C931      1.0  0.03330  0.63294  0.58632  1.0000
  C   C932      1.0  0.03516  0.61947  0.59945  1.0000
  C   C933      1.0  0.04180  0.59640  0.59999  1.0000
  C   C934      1.0  0.04702  0.58689  0.58754  1.0000
  H   H1595     1.0  0.03714  0.63393  0.56371  1.0000
  H   H1596     1.0  0.04763  0.44992  0.57547  1.0000
  H   H1597     1.0  0.04274  0.58579  0.61011  1.0000
  H   H1598     1.0  0.05216  0.56912  0.58811  1.0000
  C   C935      1.0  0.05286  0.52073  0.48515  1.0000
  C   C936      1.0  0.07464  0.52500  0.47954  1.0000
  C   C937      1.0  0.08979  0.52499  0.48871  1.0000
  C   C938      1.0  0.08341  0.52012  0.50346  1.0000
  C   C939      1.0  0.06175  0.51552  0.50899  1.0000
  C   C940      1.0  0.04647  0.51613  0.49986  1.0000
  H   H1599     1.0  0.45740  0.46351  0.55878  1.0000
  H   H1600     1.0  0.10636  0.52907  0.48441  1.0000
  H   H1601     1.0  0.05674  0.51141  0.52031  1.0000
  H   H1602     1.0  0.02963  0.51307  0.50425  1.0000
  N   N51       1.0  0.04874  0.59638  0.49505  1.0000
  C   C941      1.0  0.02821  0.59447  0.50628  1.0000
  C   C942      1.0  0.99062  0.58095  0.58218  1.0000
  C   C943      1.0  0.04620  0.58465  0.48332  1.0000
  C   C944      1.0  0.07002  0.58536  0.50068  1.0000
  C   C945      1.0  0.07490  0.59414  0.51347  1.0000
  C   C946      1.0  0.02382  0.57053  0.51302  1.0000
  H   H1603     1.0  0.02825  0.44859  0.51198  1.0000
  C   C947      1.0  0.42390  0.59461  0.62919  1.0000
  C   C948      1.0  0.29944  0.55640  0.60076  1.0000
  C   C949      1.0  0.09528  0.58007  0.51927  1.0000
  C   C950      1.0  0.39358  0.58543  0.65717  1.0000
  C   C951      1.0  0.31647  0.43492  0.61894  1.0000
  H   H1604     1.0  0.01964  0.40991  0.61765  1.0000
  C   C952      1.0  0.32875  0.33885  0.62238  1.0000
  H   H1605     1.0  0.06779  0.62284  0.48439  1.0000
  H   H1606     1.0  0.30088  0.60028  0.62240  1.0000
  H   H1607     1.0  0.02874  0.60318  0.51512  1.0000
  H   H1608     1.0  0.04577  0.56663  0.48726  1.0000
  H   H1609     1.0  0.07049  0.56703  0.50346  1.0000
  H   H1610     1.0  0.08484  0.58736  0.49224  1.0000
  H   H1611     1.0  0.06069  0.59375  0.52238  1.0000
  H   H1612     1.0  0.07876  0.61136  0.51013  1.0000
  H   H1613     1.0  0.44645  0.60623  0.51045  1.0000
  H   H1614     1.0  0.03914  0.55990  0.51614  1.0000
  H   H1615     1.0  0.01767  0.56263  0.50547  1.0000
  H   H1616     1.0  0.48274  0.36750  0.57044  1.0000
  H   H1617     1.0  0.03745  0.34683  0.56643  1.0000
  H   H1618     1.0  0.36064  0.34728  0.62310  1.0000
  H   H1619     1.0  0.39698  0.57337  0.64968  1.0000
  S   S217      1.0  0.02971  0.63053  0.61543  1.0000
  H   H1620     1.0  0.99309  0.59823  0.64671  1.0000
  H   H1621     1.0  0.09171  0.56298  0.52366  1.0000
  H   H1622     1.0  0.11025  0.57931  0.51085  1.0000
  H   H1623     1.0  0.09899  0.58734  0.52799  1.0000
  H   H1624     1.0  0.47736  0.63276  0.62514  1.0000
  H   H1625     1.0  0.02564  0.40899  0.51067  1.0000
  H   H1626     1.0  0.32940  0.32429  0.63105  1.0000
  C   C953      1.0  0.35277  0.59750  0.59621  1.0000
  H   H1627     1.0  0.02191  0.63982  0.50099  1.0000
  N   N52       1.0  0.00138  0.40444  0.59261  1.0000
  H   H1628     1.0  0.39164  0.58307  0.68006  1.0000
  C   C954      1.0  0.02077  0.41732  0.58679  1.0000
  H   H1629     1.0  0.40458  0.35783  0.61791  1.0000
  H   H1630     1.0  0.00369  0.58706  0.57351  1.0000
  S   S218      1.0  0.30690  0.64510  0.66606  1.0000
  C   C955      1.0  0.01906  0.44050  0.59118  1.0000
  C   C956      1.0  0.04151  0.44925  0.58701  1.0000
  C   C957      1.0  0.99127  0.48223  0.51585  1.0000
  H   H1631     1.0  0.46891  0.37290  0.62418  1.0000
  H   H1632     1.0  0.46059  0.41393  0.61889  1.0000
  H   H1633     1.0  0.44072  0.52702  0.47182  1.0000
  H   H1634     1.0  0.03676  0.40704  0.58941  1.0000
  H   H1635     1.0  0.02293  0.42091  0.57498  1.0000
  H   H1636     1.0  0.99150  0.37890  0.61008  1.0000
  H   H1637     1.0  0.01134  0.57869  0.53425  1.0000
  H   H1638     1.0  0.08546  0.60671  0.63610  1.0000
  H   H1639     1.0  0.31103  0.34681  0.62234  1.0000
  H   H1640     1.0  0.39166  0.36560  0.64890  1.0000
  H   H1641     1.0  0.00656  0.45267  0.58570  1.0000
  H   H1642     1.0  0.01365  0.44040  0.60265  1.0000
  H   H1643     1.0  0.35525  0.39243  0.65946  1.0000
  H   H1644     1.0  0.48913  0.48055  0.54466  1.0000
  H   H1645     1.0  0.03944  0.46640  0.58944  1.0000
  H   H1646     1.0  0.48266  0.45545  0.50817  1.0000
  H   H1647     1.0  0.31363  0.62086  0.60904  1.0000
  H   H1648     1.0  0.00560  0.41599  0.47243  1.0000
  C   C958      1.0  0.32652  0.37436  0.68298  1.0000
  H   H1649     1.0  0.18018  0.49614  0.47778  1.0000
  H   H1650     1.0  0.47307  0.49693  0.53213  1.0000
  H   H1651     1.0  0.38005  0.56182  0.67478  1.0000
  H   H1652     1.0  0.39361  0.52756  0.62283  1.0000
  H   H1653     1.0  0.01159  0.36202  0.56134  1.0000
  H   H1654     1.0  0.29967  0.43694  0.62561  1.0000
  C   C959      1.0  0.36674  0.58553  0.58402  1.0000
  C   C960      1.0  0.11512  0.58199  0.56906  1.0000
  H   H1655     1.0  0.30380  0.58966  0.60141  1.0000
  C   C961      1.0  0.43225  0.62837  0.63694  1.0000
  H   H1656     1.0  0.37636  0.59450  0.65680  1.0000
  H   H1657     1.0  0.42453  0.64254  0.64268  1.0000
  N   N53       1.0  0.34550  0.38206  0.64173  1.0000
  H   H1658     1.0  0.36987  0.38396  0.62237  1.0000
  H   H1659     1.0  0.05029  0.41886  0.50004  1.0000
  H   H1660     1.0  0.32291  0.57649  0.58814  1.0000
  H   H1661     1.0  0.33609  0.38601  0.68579  1.0000
  H   H1662     1.0  0.46039  0.60098  0.64032  1.0000
  H   H1663     1.0  0.36470  0.56523  0.63750  1.0000
  H   H1664     1.0  0.38890  0.52953  0.64140  1.0000
  H   H1665     1.0  0.01389  0.59062  0.63193  1.0000
  H   H1666     1.0  0.42663  0.59223  0.65702  1.0000
  H   H1667     1.0  0.41005  0.56052  0.67254  1.0000
  N   N54       1.0  0.11631  0.55915  0.60942  1.0000
  C   C962      1.0  0.10796  0.57246  0.62138  1.0000
  C   C963      1.0  0.14155  0.55238  0.60792  1.0000
  C   C964      1.0  0.11089  0.57410  0.59591  1.0000
  C   C965      1.0  0.10478  0.53899  0.61136  1.0000
  C   C966      1.0  0.10710  0.52198  0.62507  1.0000
  C   C967      1.0  0.08263  0.58196  0.62358  1.0000
  C   C968      1.0  0.12009  0.56457  0.58194  1.0000
  C   C969      1.0  0.15226  0.54832  0.62162  1.0000
  C   C970      1.0  0.17687  0.53783  0.61908  1.0000
  C   C971      1.0  0.09303  0.50352  0.62630  1.0000
  H   H1668     1.0  0.38136  0.33160  0.68639  1.0000
  C   C972      1.0  0.40827  0.36137  0.62793  1.0000
  H   H1669     1.0  0.11727  0.58687  0.61965  1.0000
  H   H1670     1.0  0.11152  0.56254  0.63167  1.0000
  H   H1671     1.0  0.14682  0.53719  0.60283  1.0000
  H   H1672     1.0  0.15032  0.56546  0.60064  1.0000
  H   H1673     1.0  0.11719  0.59023  0.59485  1.0000
  H   H1674     1.0  0.09244  0.57829  0.59617  1.0000
  H   H1675     1.0  0.08668  0.54402  0.61058  1.0000
  H   H1676     1.0  0.11159  0.52939  0.60255  1.0000
  H   H1677     1.0  0.10140  0.52987  0.63468  1.0000
  H   H1678     1.0  0.12479  0.51387  0.62484  1.0000
  H   H1679     1.0  0.07859  0.59507  0.61454  1.0000
  H   H1680     1.0  0.07218  0.56869  0.62477  1.0000
  H   H1681     1.0  0.11202  0.55007  0.58164  1.0000
  H   H1682     1.0  0.13849  0.55933  0.58067  1.0000
  H   H1683     1.0  0.15163  0.56445  0.62521  1.0000
  H   H1684     1.0  0.14351  0.53729  0.63041  1.0000
  H   H1685     1.0  0.18460  0.53721  0.62860  1.0000
  H   H1686     1.0  0.17830  0.52052  0.61711  1.0000
  H   H1687     1.0  0.18643  0.54761  0.60989  1.0000
  H   H1688     1.0  0.07499  0.51051  0.62671  1.0000
  H   H1689     1.0  0.09858  0.49444  0.61715  1.0000
  H   H1690     1.0  0.09511  0.49141  0.63615  1.0000
  H   H1691     1.0  0.34156  0.36974  0.61553  1.0000
  H   H1692     1.0  0.48169  0.35070  0.59677  1.0000
  H   H1693     1.0  0.15274  0.46010  0.47450  1.0000
  H   H1694     1.0  0.02801  0.45574  0.49321  1.0000
  H   H1695     1.0  0.20409  0.64129  0.66782  1.0000
  H   H1696     1.0  0.03365  0.36804  0.58590  1.0000
  H   H1697     1.0  0.35453  0.54443  0.63074  1.0000
  H   H1698     1.0  0.36130  0.56938  0.58406  1.0000
  H   H1699     1.0  0.31763  0.40016  0.61911  1.0000
  H   H1700     1.0  0.45620  0.58478  0.59682  1.0000
  H   H1701     1.0  0.31424  0.43938  0.60765  1.0000
  H   H1702     1.0  0.37714  0.55852  0.60639  1.0000
  H   H1703     1.0  0.40420  0.54896  0.62874  1.0000
  C   C973      1.0  0.36497  0.59995  0.56954  1.0000
  C   C974      1.0  0.45022  0.46450  0.54898  1.0000
  C   C975      1.0  0.34637  0.37948  0.65740  1.0000
  H   H1704     1.0  0.38062  0.61537  0.63603  1.0000
  H   H1705     1.0  0.34225  0.55074  0.60620  1.0000
  C   C976      1.0  0.34295  0.35556  0.62430  1.0000
  C   C977      1.0  0.43250  0.53185  0.48185  1.0000
  H   H1706     1.0  0.33731  0.60707  0.59251  1.0000
  H   H1707     1.0  0.00704  0.48860  0.48891  1.0000
  H   H1708     1.0  0.38146  0.58134  0.61358  1.0000
  H   H1709     1.0  0.38474  0.58200  0.58524  1.0000
  H   H1710     1.0  0.31352  0.40387  0.64340  1.0000
  C   C978      1.0  0.32826  0.41090  0.62185  1.0000
  H   H1711     1.0  0.46343  0.53134  0.48942  1.0000
  C   C979      1.0  0.36797  0.55488  0.62898  1.0000
  H   H1712     1.0  0.37483  0.39850  0.63504  1.0000
  H   H1713     1.0  0.47695  0.33686  0.62059  1.0000
  C   C980      1.0  0.33097  0.40399  0.63766  1.0000
  C   C981      1.0  0.44348  0.58142  0.60635  1.0000
  H   H1714     1.0  0.99935  0.36936  0.49267  1.0000
  C   C982      1.0  0.46402  0.62267  0.57663  1.0000
  S   S219      1.0  0.35023  0.60768  0.71951  1.0000
  C   C983      1.0  0.04050  0.63818  0.49875  1.0000
  C   C984      1.0  0.44544  0.60134  0.48910  1.0000
  C   C985      1.0  0.39006  0.53934  0.63054  1.0000
  H   H1715     1.0  0.44978  0.56530  0.61263  1.0000
  H   H1716     1.0  0.13014  0.49172  0.48539  1.0000
  H   H1717     1.0  0.30935  0.61947  0.64112  1.0000
  H   H1718     1.0  0.33515  0.33283  0.61212  1.0000
  H   H1719     1.0  0.00453  0.56941  0.64607  1.0000
  S   S220      1.0  0.47489  0.56424  0.54465  1.0000
  C   C986      1.0  0.43968  0.60032  0.61499  1.0000
  C   C987      1.0  0.41096  0.60192  0.65356  1.0000
  C   C988      1.0  0.05010  0.62061  0.48884  1.0000
  H   H1720     1.0  0.02728  0.41665  0.49163  1.0000
  H   H1721     1.0  0.00205  0.46057  0.47609  1.0000
  C   C989      1.0  0.99116  0.46178  0.55798  1.0000
  H   H1722     1.0  0.33418  0.58638  0.63199  1.0000
  H   H1723     1.0  0.33540  0.35708  0.68518  1.0000
  C   C990      1.0  0.45731  0.64179  0.58313  1.0000
  H   H1724     1.0  0.45631  0.60249  0.61693  1.0000
  H   H1725     1.0  0.43336  0.57987  0.63520  1.0000
  H   H1726     1.0  0.40518  0.61489  0.66054  1.0000
  H   H1727     1.0  0.07870  0.58047  0.64649  1.0000
  H   H1728     1.0  0.38040  0.34705  0.64102  1.0000
  H   H1729     1.0  0.06531  0.47480  0.47858  1.0000
  N   N55       1.0  0.41556  0.61270  0.63820  1.0000
  H   H1730     1.0  0.48521  0.48262  0.57538  1.0000
  H   H1731     1.0  0.01751  0.37311  0.63297  1.0000
  N   N56       1.0  0.34733  0.58259  0.61020  1.0000
  H   H1732     1.0  0.31394  0.39772  0.66611  1.0000
  H   H1733     1.0  0.35615  0.36309  0.66110  1.0000
  C   C991      1.0  0.00292  0.38666  0.63330  1.0000
  S   S221      1.0  0.03273  0.52199  0.47428  1.0000
  H   H1734     1.0  0.02059  0.37896  0.60597  1.0000
  C   C992      1.0  0.32349  0.38061  0.66742  1.0000
  H   H1735     1.0  0.30981  0.37530  0.68981  1.0000
  H   H1736     1.0  0.36241  0.61040  0.59749  1.0000
  H   H1737     1.0  0.99435  0.39832  0.57277  1.0000
  H   H1738     1.0  0.34725  0.60400  0.56778  1.0000
  C   C993      1.0  0.33566  0.36282  0.63911  1.0000
  H   H1739     1.0  0.43297  0.61579  0.60839  1.0000
  H   H1740     1.0  0.42269  0.58168  0.48474  1.0000
  C   C994      1.0  0.42848  0.59795  0.48004  1.0000
  H   H1741     1.0  0.43690  0.63624  0.62579  1.0000
  C   C995      1.0  0.47964  0.38182  0.61520  1.0000
  H   H1742     1.0  0.44029  0.45069  0.55054  1.0000
  H   H1743     1.0  0.32308  0.56075  0.62030  1.0000
  H   H1744     1.0  0.29061  0.55294  0.61181  1.0000
  C   C996      1.0  0.31461  0.57392  0.59935  1.0000
  C   C997      1.0  0.03174  0.42082  0.50122  1.0000
  C   C998      1.0  0.33219  0.56622  0.60953  1.0000
  C   C999      1.0  0.48211  0.47628  0.48792  1.0000
  H   H1745     1.0  0.01148  0.34391  0.57832  1.0000
  H   H1746     1.0  0.04673  0.63365  0.50903  1.0000
  H   H1747     1.0  0.38776  0.59820  0.47260  1.0000
  H   H1748     1.0  0.45811  0.58613  0.49053  1.0000
  H   H1749     1.0  0.43869  0.48045  0.54719  1.0000
  C   C1000     1.0  0.39376  0.62616  0.63449  1.0000
  C   C1001     1.0  0.45426  0.61800  0.64282  1.0000
  H   H1750     1.0  0.05427  0.43850  0.59301  1.0000
  H   H1751     1.0  0.05772  0.59984  0.63798  1.0000
  C   C1002     1.0  0.36927  0.56978  0.61416  1.0000
  C   C1003     1.0  0.16468  0.49290  0.48531  1.0000
  H   H1752     1.0  0.41354  0.61084  0.48188  1.0000
  N   N57       1.0  0.26533  0.49339  0.55524  1.0000
  C   C1004     1.0  0.26030  0.51662  0.55887  1.0000
  C   C1005     1.0  0.24385  0.48367  0.55728  1.0000
  C   C1006     1.0  0.27981  0.47924  0.56556  1.0000
  C   C1007     1.0  0.27839  0.49266  0.54050  1.0000
  C   C1008     1.0  0.26800  0.50780  0.52807  1.0000
  C   C1009     1.0  0.28084  0.52858  0.55765  1.0000
  C   C1010     1.0  0.28313  0.45364  0.56591  1.0000
  C   C1011     1.0  0.22282  0.49942  0.55272  1.0000
  C   C1012     1.0  0.20362  0.48643  0.55343  1.0000
  C   C1013     1.0  0.28521  0.50946  0.51447  1.0000
  C   C1014     1.0  0.27351  0.55206  0.56124  1.0000
  C   C1015     1.0  0.30006  0.44154  0.57553  1.0000
  H   H1753     1.0  0.25111  0.51617  0.56994  1.0000
  H   H1754     1.0  0.24876  0.52778  0.55219  1.0000
  H   H1755     1.0  0.24667  0.46892  0.55183  1.0000
  H   H1756     1.0  0.23857  0.47747  0.56878  1.0000
  H   H1757     1.0  0.27285  0.48229  0.57657  1.0000
  H   H1758     1.0  0.29689  0.48400  0.56325  1.0000
  H   H1759     1.0  0.29559  0.49650  0.53995  1.0000
  H   H1760     1.0  0.28110  0.47552  0.53800  1.0000
  H   H1761     1.0  0.26177  0.52496  0.53020  1.0000
  H   H1762     1.0  0.25410  0.50046  0.52587  1.0000
  H   H1763     1.0  0.29217  0.51953  0.56515  1.0000
  H   H1764     1.0  0.29044  0.53006  0.54674  1.0000
  H   H1765     1.0  0.28945  0.44919  0.55524  1.0000
  H   H1766     1.0  0.26712  0.44703  0.57011  1.0000
  H   H1767     1.0  0.21686  0.51178  0.55999  1.0000
  H   H1768     1.0  0.22605  0.50882  0.54191  1.0000
  H   H1769     1.0  0.19911  0.47745  0.56436  1.0000
  H   H1770     1.0  0.18858  0.49812  0.55053  1.0000
  H   H1771     1.0  0.20836  0.47428  0.54595  1.0000
  H   H1772     1.0  0.27717  0.51977  0.50559  1.0000
  H   H1773     1.0  0.29934  0.51744  0.51576  1.0000
  H   H1774     1.0  0.29189  0.49269  0.51164  1.0000
  H   H1775     1.0  0.26290  0.56240  0.55363  1.0000
  H   H1776     1.0  0.26396  0.55146  0.57217  1.0000
  H   H1777     1.0  0.28854  0.56002  0.56064  1.0000
  H   H1778     1.0  0.30197  0.42331  0.57573  1.0000
  H   H1779     1.0  0.31670  0.44702  0.57161  1.0000
  H   H1780     1.0  0.29426  0.44492  0.58652  1.0000
  H   H1781     1.0  0.04078  0.62598  0.47967  1.0000
  H   H1782     1.0  0.47835  0.44559  0.53800  1.0000
  S   S222      1.0  0.44569  0.61497  0.56695  1.0000
  H   H1783     1.0  0.31706  0.36643  0.64113  1.0000
  H   H1784     1.0  0.00409  0.55342  0.53135  1.0000
  C   C1016     1.0  0.00098  0.38888  0.58244  1.0000
  H   H1785     1.0  0.30934  0.54067  0.59774  1.0000
  C   C1017     1.0  0.07584  0.59286  0.63688  1.0000
  S   S223      1.0  0.00585  0.40424  0.54140  1.0000
  C   C1018     1.0  0.47827  0.40557  0.61792  1.0000
  H   H1786     1.0  0.12193  0.57488  0.55920  1.0000
  C   C1019     1.0  0.02390  0.37515  0.57720  1.0000
  C   C1020     1.0  0.30790  0.62796  0.63014  1.0000
  H   H1787     1.0  0.42077  0.34748  0.63204  1.0000
  C   C1021     1.0  0.36910  0.38293  0.63393  1.0000
  C   C1022     1.0  0.39393  0.57194  0.67205  1.0000
  C   C1023     1.0  0.02170  0.44476  0.50298  1.0000
  C   C1024     1.0  0.47278  0.63225  0.63678  1.0000
  H   H1788     1.0  0.28668  0.56249  0.59367  1.0000
  H   H1789     1.0  0.08024  0.57401  0.47268  1.0000
  H   H1790     1.0  0.34455  0.40992  0.61467  1.0000
  H   H1791     1.0  0.45129  0.61693  0.65454  1.0000
  H   H1792     1.0  0.09675  0.58708  0.56946  1.0000
  C   C1025     1.0  0.33712  0.59686  0.62142  1.0000
  H   H1793     1.0  0.32655  0.44668  0.62113  1.0000
  H   H1794     1.0  0.31338  0.36897  0.66524  1.0000
  H   H1795     1.0  0.34907  0.60791  0.62226  1.0000
  H   H1796     1.0  0.37464  0.59076  0.56106  1.0000
  H   H1797     1.0  0.45419  0.61572  0.48403  1.0000
  H   H1798     1.0  0.01294  0.60309  0.50177  1.0000
  H   H1799     1.0  0.16775  0.47624  0.49192  1.0000
  H   H1800     1.0  0.41559  0.37705  0.62574  1.0000
  C   C1026     1.0  0.02081  0.35583  0.57043  1.0000
  H   H1801     1.0  0.42194  0.62124  0.50332  1.0000
  H   H1802     1.0  0.00963  0.48256  0.51342  1.0000
  H   H1803     1.0  0.42771  0.58000  0.60282  1.0000
  H   H1804     1.0  0.42442  0.59146  0.50927  1.0000
  C   C1027     1.0  0.37451  0.31565  0.68894  1.0000
  H   H1805     1.0  0.00292  0.51277  0.52975  1.0000
  H   H1806     1.0  0.48186  0.49846  0.50855  1.0000
  H   H1807     1.0  0.31902  0.64091  0.62714  1.0000
  H   H1808     1.0  0.46044  0.46472  0.52681  1.0000
  C   C1028     1.0  0.00608  0.57075  0.52635  1.0000
  C   C1029     1.0  0.14522  0.49429  0.47732  1.0000
  H   H1809     1.0  0.46509  0.48542  0.49103  1.0000
  C   C1030     1.0  0.39426  0.63881  0.61911  1.0000
  Fe  Fe115     1.0  0.47856  0.53365  0.56116  1.0000
  H   H1810     1.0  0.11546  0.45561  0.47633  1.0000
  H   H1811     1.0  0.38729  0.63843  0.64188  1.0000
  H   H1812     1.0  0.47245  0.38295  0.60543  1.0000
  H   H1813     1.0  0.48794  0.62509  0.64170  1.0000
  H   H1814     1.0  0.48038  0.46248  0.48260  1.0000
  H   H1815     1.0  0.39601  0.62677  0.61172  1.0000
  C   C1031     1.0  0.46880  0.46260  0.53620  1.0000
  S   S224      1.0  0.32429  0.31919  0.67235  1.0000
  H   H1816     1.0  0.00332  0.39584  0.64197  1.0000
  C   C1032     1.0  0.99914  0.58563  0.63957  1.0000
  C   C1033     1.0  0.48515  0.61025  0.57788  1.0000
  H   H1817     1.0  0.99815  0.56504  0.58810  1.0000
  H   H1818     1.0  0.35782  0.64584  0.62089  1.0000
  H   H1819     1.0  0.99639  0.59994  0.59700  1.0000
  C   C1034     1.0  0.00432  0.39027  0.60678  1.0000
  C   C1035     1.0  0.99568  0.44777  0.50606  1.0000
  H   H1820     1.0  0.99370  0.39639  0.49833  1.0000
  H   H1821     1.0  0.99119  0.43823  0.51683  1.0000
  H   H1822     1.0  0.48834  0.41534  0.60898  1.0000
  Fe  Fe116     1.0  0.41710  0.38568  0.91904  1.0000
  S   S225      1.0  0.42106  0.35962  0.93827  1.0000
  S   S226      1.0  0.39430  0.38408  0.90364  1.0000
  Fe  Fe117     1.0  0.45579  0.40787  0.92275  1.0000
  S   S227      1.0  0.46319  0.38338  0.94214  1.0000
  Fe  Fe118     1.0  0.45800  0.35748  0.93006  1.0000
  C   C1036     1.0  0.08602  0.42306  0.96803  1.0000
  Fe  Fe119     1.0  0.42590  0.38739  0.94876  1.0000
  S   S228      1.0  0.45385  0.38172  0.91006  1.0000
  S   S229      1.0  0.41861  0.41363  0.93014  1.0000
  Fe  Fe120     1.0  0.28248  0.42931  0.88119  1.0000
  S   S230      1.0  0.30468  0.42912  0.86007  1.0000
  S   S231      1.0  0.29606  0.43525  0.89994  1.0000
  Fe  Fe121     1.0  0.24126  0.42241  0.87000  1.0000
  S   S232      1.0  0.26063  0.42180  0.84798  1.0000
  S   S233      1.0  0.20402  0.42050  0.87262  1.0000
  Fe  Fe122     1.0  0.28789  0.40014  0.85884  1.0000
  S   S234      1.0  0.30734  0.36649  0.85497  1.0000
  Fe  Fe123     1.0  0.27534  0.45098  0.85127  1.0000
  S   S235      1.0  0.27510  0.48313  0.83511  1.0000
  S   S236      1.0  0.26763  0.39898  0.88070  1.0000
  S   S237      1.0  0.25406  0.45296  0.87258  1.0000
  Fe  Fe124     1.0  0.33630  0.58920  0.82138  1.0000
  S   S238      1.0  0.36104  0.61021  0.80718  1.0000
  S   S239      1.0  0.34369  0.55168  0.82833  1.0000
  Fe  Fe125     1.0  0.33031  0.62954  0.79838  1.0000
  H   H1823     1.0  0.08878  0.41762  0.95755  1.0000
  Fe  Fe126     1.0  0.35219  0.63258  0.82394  1.0000
  S   S240      1.0  0.47806  0.32278  0.93147  1.0000
  S   S241      1.0  0.30650  0.60693  0.81141  1.0000
  S   S242      1.0  0.32970  0.61016  0.83856  1.0000
  H   H1824     1.0  0.27100  0.34732  0.88146  1.0000
  Fe  Fe127     1.0  0.06445  0.39502  0.92349  1.0000
  S   S243      1.0  0.04333  0.36829  0.93292  1.0000
  S   S244      1.0  0.05229  0.43224  0.92003  1.0000
  Fe  Fe128     1.0  0.10836  0.36210  0.92327  1.0000
  S   S245      1.0  0.09026  0.33279  0.93316  1.0000
  S   S246      1.0  0.14659  0.35785  0.91957  1.0000
  Fe  Fe129     1.0  0.06616  0.34750  0.91775  1.0000
  H   H1825     1.0  0.04717  0.41511  0.96053  1.0000
  Fe  Fe130     1.0  0.06901  0.35604  0.94747  1.0000
  H   H1826     1.0  0.30157  0.57215  0.84582  1.0000
  S   S247      1.0  0.08568  0.37561  0.90710  1.0000
  S   S248      1.0  0.08882  0.38384  0.93879  1.0000
  H   H1827     1.0  0.33031  0.55161  0.72328  1.0000
  C   C1037     1.0  0.02331  0.44193  0.92398  1.0000
  C   C1038     1.0  0.00778  0.42711  0.92843  1.0000
  H   H1828     1.0  0.31676  0.32042  0.85305  1.0000
  H   H1829     1.0  0.34688  0.32455  0.86236  1.0000
  H   H1830     1.0  0.12231  0.38810  0.95720  1.0000
  C   C1039     1.0  0.01572  0.46491  0.92298  1.0000
  H   H1831     1.0  0.01332  0.40945  0.92902  1.0000
  H   H1832     1.0  0.27159  0.59511  0.85862  1.0000
  H   H1833     1.0  0.45604  0.32628  0.87060  1.0000
  H   H1834     1.0  0.02761  0.47650  0.91941  1.0000
  C   C1040     1.0  0.14732  0.40941  0.94665  1.0000
  H   H1835     1.0  0.35682  0.31689  0.83929  1.0000
  H   H1836     1.0  0.99855  0.55917  0.93098  1.0000
  H   H1837     1.0  0.26149  0.59915  0.83601  1.0000
  H   H1838     1.0  0.11063  0.49567  0.93845  1.0000
  C   C1041     1.0  0.13598  0.45676  0.93024  1.0000
  H   H1839     1.0  0.26829  0.64406  0.80956  1.0000
  C   C1042     1.0  0.00770  0.39846  0.96428  1.0000
  H   H1840     1.0  0.46662  0.44400  0.94521  1.0000
  H   H1841     1.0  0.48325  0.33927  0.90128  1.0000
  C   C1043     1.0  0.34900  0.61919  0.75931  1.0000
  C   C1044     1.0  0.35484  0.61063  0.74649  1.0000
  C   C1045     1.0  0.34323  0.61970  0.73509  1.0000
  H   H1842     1.0  0.44799  0.47686  0.93060  1.0000
  C   C1046     1.0  0.48404  0.32140  0.90286  1.0000
  H   H1843     1.0  0.35788  0.61198  0.76810  1.0000
  C   C1047     1.0  0.26909  0.62283  0.77793  1.0000
  C   C1048     1.0  0.99396  0.37952  0.96646  1.0000
  C   C1049     1.0  0.45373  0.44385  0.95487  1.0000
  C   C1050     1.0  0.18897  0.40189  0.88534  1.0000
  C   C1051     1.0  0.19851  0.38795  0.89644  1.0000
  C   C1052     1.0  0.18541  0.37429  0.90675  1.0000
  C   C1053     1.0  0.16268  0.37460  0.90611  1.0000
  C   C1054     1.0  0.15330  0.38829  0.89489  1.0000
  C   C1055     1.0  0.16647  0.40166  0.88447  1.0000
  H   H1844     1.0  0.21581  0.38801  0.89722  1.0000
  H   H1845     1.0  0.19281  0.36368  0.91539  1.0000
  H   H1846     1.0  0.13592  0.38844  0.89417  1.0000
  H   H1847     1.0  0.15901  0.41228  0.87585  1.0000
  C   C1056     1.0  0.29421  0.50211  0.83329  1.0000
  C   C1057     1.0  0.29062  0.52306  0.82470  1.0000
  C   C1058     1.0  0.30550  0.53853  0.82314  1.0000
  C   C1059     1.0  0.32423  0.53307  0.83005  1.0000
  C   C1060     1.0  0.32796  0.51202  0.83842  1.0000
  C   C1061     1.0  0.31294  0.49667  0.84014  1.0000
  H   H1848     1.0  0.27619  0.52733  0.81930  1.0000
  H   H1849     1.0  0.30270  0.55452  0.81645  1.0000
  H   H1850     1.0  0.34260  0.50759  0.84353  1.0000
  H   H1851     1.0  0.31597  0.48044  0.84653  1.0000
  H   H1852     1.0  0.46602  0.40460  0.97086  1.0000
  C   C1062     1.0  0.28720  0.34987  0.82137  1.0000
  C   C1063     1.0  0.29021  0.36223  0.83142  1.0000
  C   C1064     1.0  0.30142  0.35169  0.84269  1.0000
  C   C1065     1.0  0.22570  0.32215  0.85499  1.0000
  C   C1066     1.0  0.29553  0.32701  0.82248  1.0000
  H   H1853     1.0  0.27867  0.35810  0.81259  1.0000
  H   H1854     1.0  0.28432  0.37994  0.83027  1.0000
  H   H1855     1.0  0.33031  0.54334  0.79411  1.0000
  C   C1067     1.0  0.16228  0.33870  0.88090  1.0000
  C   C1068     1.0  0.36637  0.39727  0.90398  1.0000
  C   C1069     1.0  0.35626  0.41238  0.91313  1.0000
  C   C1070     1.0  0.33437  0.42365  0.91212  1.0000
  C   C1071     1.0  0.32265  0.41981  0.90197  1.0000
  C   C1072     1.0  0.33262  0.40424  0.89313  1.0000
  C   C1073     1.0  0.35435  0.39302  0.89417  1.0000
  H   H1856     1.0  0.36540  0.41567  0.92078  1.0000
  H   H1857     1.0  0.32665  0.43559  0.91905  1.0000
  H   H1858     1.0  0.32365  0.40094  0.88540  1.0000
  H   H1859     1.0  0.36211  0.38130  0.88715  1.0000
  H   H1860     1.0  0.14743  0.38305  0.96496  1.0000
  H   H1861     1.0  0.18990  0.61355  0.85866  1.0000
  H   H1862     1.0  0.34860  0.35283  0.91291  1.0000
  C   C1074     1.0  0.38392  0.31603  0.85881  1.0000
  H   H1863     1.0  0.46914  0.62655  0.88355  1.0000
  H   H1864     1.0  0.36290  0.40554  0.86321  1.0000
  H   H1865     1.0  0.44136  0.47942  0.95624  1.0000
  C   C1075     1.0  0.33808  0.55757  0.78761  1.0000
  C   C1076     1.0  0.36187  0.33279  0.86048  1.0000
  C   C1077     1.0  0.36038  0.34502  0.87292  1.0000
  H   H1866     1.0  0.24856  0.32228  0.83474  1.0000
  H   H1867     1.0  0.10249  0.46891  0.92472  1.0000
  C   C1078     1.0  0.47738  0.41704  0.97005  1.0000
  H   H1868     1.0  0.37045  0.53675  0.78301  1.0000
  H   H1869     1.0  0.18547  0.34922  0.85588  1.0000
  H   H1870     1.0  0.02540  0.63285  0.85320  1.0000
  C   C1079     1.0  0.01214  0.44508  0.96787  1.0000
  H   H1871     1.0  0.25415  0.31870  0.87412  1.0000
  H   H1872     1.0  0.44502  0.42954  0.95483  1.0000
  C   C1080     1.0  0.25582  0.34101  0.88795  1.0000
  H   H1873     1.0  0.41985  0.46211  0.95946  1.0000
  C   C1081     1.0  0.37418  0.41518  0.85501  1.0000
  C   C1082     1.0  0.18783  0.33704  0.87812  1.0000
  H   H1874     1.0  0.41674  0.34947  0.88962  1.0000
  H   H1875     1.0  0.19458  0.31913  0.87889  1.0000
  H   H1876     1.0  0.39736  0.32679  0.85590  1.0000
  C   C1083     1.0  0.43619  0.46524  0.95288  1.0000
  C   C1084     1.0  0.43066  0.33561  0.88838  1.0000
  H   H1877     1.0  0.47648  0.63961  0.85221  1.0000
  C   C1085     1.0  0.35353  0.34165  0.92254  1.0000
  H   H1878     1.0  0.39755  0.33757  0.91361  1.0000
  H   H1879     1.0  0.15412  0.35628  0.87907  1.0000
  H   H1880     1.0  0.34515  0.35784  0.87332  1.0000
  N   N58       1.0  0.22050  0.34603  0.85747  1.0000
  H   H1881     1.0  0.48909  0.31994  0.88056  1.0000
  C   C1086     1.0  0.43240  0.47222  0.93751  1.0000
  H   H1882     1.0  0.03007  0.31485  0.88438  1.0000
  H   H1883     1.0  0.14021  0.42227  0.95346  1.0000
  H   H1884     1.0  0.27133  0.51418  0.78634  1.0000
  C   C1087     1.0  0.10495  0.43815  0.89512  1.0000
  H   H1885     1.0  0.27955  0.63438  0.77058  1.0000
  C   C1088     1.0  0.28968  0.50941  0.78620  1.0000
  H   H1886     1.0  0.01682  0.44273  0.95655  1.0000
  H   H1887     1.0  0.10057  0.45652  0.89268  1.0000
  S   S249      1.0  0.05335  0.33091  0.90230  1.0000
  C   C1089     1.0  0.33158  0.63699  0.76073  1.0000
  H   H1888     1.0  0.17472  0.46917  0.91081  1.0000
  C   C1090     1.0  0.14079  0.38722  0.95478  1.0000
  H   H1889     1.0  0.32715  0.55959  0.86296  1.0000
  H   H1890     1.0  0.14473  0.40136  0.92645  1.0000
  H   H1891     1.0  0.45606  0.60014  0.84865  1.0000
  H   H1892     1.0  0.14755  0.43117  0.90130  1.0000
  H   H1893     1.0  0.42304  0.64699  0.89633  1.0000
  H   H1894     1.0  0.34696  0.31677  0.81527  1.0000
  N   N59       1.0  0.30849  0.56746  0.77054  1.0000
  C   C1091     1.0  0.30974  0.56719  0.86675  1.0000
  Fe  Fe131     1.0  0.30193  0.62957  0.82742  1.0000
  H   H1895     1.0  0.09753  0.43510  0.96770  1.0000
  C   C1092     1.0  0.45566  0.62298  0.87850  1.0000
  S   S250      1.0  0.26860  0.64268  0.83938  1.0000
  C   C1093     1.0  0.29436  0.56485  0.85667  1.0000
  H   H1896     1.0  0.21474  0.35608  0.83568  1.0000
  H   H1897     1.0  0.39190  0.40836  0.85609  1.0000
  C   C1094     1.0  0.25031  0.53500  0.87013  1.0000
  H   H1898     1.0  0.14123  0.47201  0.92332  1.0000
  H   H1899     1.0  0.99999  0.41241  0.95702  1.0000
  H   H1900     1.0  0.26683  0.53966  0.84825  1.0000
  H   H1901     1.0  0.16587  0.40745  0.94508  1.0000
  H   H1902     1.0  0.30423  0.55850  0.87760  1.0000
  C   C1095     1.0  0.22407  0.36075  0.84317  1.0000
  N   N60       1.0  0.46423  0.44022  0.96812  1.0000
  C   C1096     1.0  0.13842  0.41559  0.93230  1.0000
  C   C1097     1.0  0.44845  0.60965  0.85741  1.0000
  H   H1903     1.0  0.19894  0.39079  0.84538  1.0000
  C   C1098     1.0  0.19599  0.35097  0.86365  1.0000
  N   N61       1.0  0.14436  0.43681  0.92290  1.0000
  C   C1099     1.0  0.29495  0.54993  0.77897  1.0000
  H   H1904     1.0  0.30118  0.55341  0.73126  1.0000
  H   H1905     1.0  0.29912  0.52535  0.76491  1.0000
  H   H1906     1.0  0.10271  0.44758  0.94017  1.0000
  H   H1907     1.0  0.11800  0.43218  0.88655  1.0000
  H   H1908     1.0  0.23492  0.50824  0.86600  1.0000
  H   H1909     1.0  0.43076  0.34331  0.86557  1.0000
  H   H1910     1.0  0.23481  0.54165  0.87685  1.0000
  C   C1100     1.0  0.33291  0.56171  0.77225  1.0000
  H   H1911     1.0  0.08973  0.43065  0.89542  1.0000
  H   H1912     1.0  0.33207  0.57250  0.79277  1.0000
  H   H1913     1.0  0.26492  0.53594  0.87502  1.0000
  H   H1914     1.0  0.42035  0.60512  0.87525  1.0000
  H   H1915     1.0  0.30975  0.58501  0.86710  1.0000
  C   C1101     1.0  0.17974  0.45239  0.90781  1.0000
  H   H1916     1.0  0.27480  0.57250  0.83309  1.0000
  H   H1917     1.0  0.44567  0.61252  0.88709  1.0000
  H   H1918     1.0  0.15659  0.33139  0.89207  1.0000
  C   C1102     1.0  0.20536  0.44765  0.90536  1.0000
  H   H1919     1.0  0.10323  0.35195  0.96975  1.0000
  H   H1920     1.0  0.29476  0.49258  0.78320  1.0000
  H   H1921     1.0  0.22692  0.36614  0.87176  1.0000
  H   H1922     1.0  0.99113  0.54632  0.94911  1.0000
  H   H1923     1.0  0.22703  0.57858  0.87107  1.0000
  N   N62       1.0  0.46577  0.61060  0.86629  1.0000
  H   H1924     1.0  0.26517  0.50286  0.86389  1.0000
  N   N63       1.0  0.25272  0.57259  0.85312  1.0000
  H   H1925     1.0  0.22496  0.39158  0.85111  1.0000
  H   H1926     1.0  0.20012  0.61346  0.87498  1.0000
  C   C1103     1.0  0.23006  0.58377  0.85937  1.0000
  C   C1104     1.0  0.27022  0.57704  0.86076  1.0000
  H   H1927     1.0  0.47893  0.47901  0.94710  1.0000
  H   H1928     1.0  0.17437  0.45282  0.89749  1.0000
  H   H1929     1.0  0.46208  0.57931  0.88017  1.0000
  C   C1105     1.0  0.22631  0.60961  0.85666  1.0000
  H   H1930     1.0  0.32613  0.53963  0.74937  1.0000
  H   H1931     1.0  0.32063  0.52037  0.77600  1.0000
  H   H1932     1.0  0.23841  0.61609  0.86134  1.0000
  H   H1933     1.0  0.25110  0.35648  0.86024  1.0000
  H   H1934     1.0  0.36120  0.34555  0.85077  1.0000
  H   H1935     1.0  0.24876  0.50132  0.88137  1.0000
  H   H1936     1.0  0.21215  0.46064  0.89694  1.0000
  H   H1937     1.0  0.21199  0.44771  0.91519  1.0000
  H   H1938     1.0  0.21137  0.43126  0.90182  1.0000
  N   N64       1.0  0.36662  0.46642  0.87456  1.0000
  C   C1106     1.0  0.37220  0.46594  0.88908  1.0000
  C   C1107     1.0  0.34145  0.47112  0.87494  1.0000
  C   C1108     1.0  0.37489  0.44358  0.87058  1.0000
  C   C1109     1.0  0.37810  0.48303  0.86343  1.0000
  C   C1110     1.0  0.37257  0.50760  0.86572  1.0000
  C   C1111     1.0  0.39718  0.45862  0.89086  1.0000
  C   C1112     1.0  0.36908  0.43982  0.85643  1.0000
  C   C1113     1.0  0.32741  0.48636  0.88541  1.0000
  C   C1114     1.0  0.30381  0.49450  0.88184  1.0000
  C   C1115     1.0  0.38608  0.52240  0.85407  1.0000
  C   C1116     1.0  0.40112  0.46240  0.90519  1.0000
  H   H1939     1.0  0.37127  0.41313  0.84444  1.0000
  H   H1940     1.0  0.36247  0.45436  0.89703  1.0000
  H   H1941     1.0  0.36684  0.48235  0.89257  1.0000
  H   H1942     1.0  0.33753  0.47826  0.86418  1.0000
  H   H1943     1.0  0.33407  0.45535  0.87792  1.0000
  H   H1944     1.0  0.36823  0.43079  0.87922  1.0000
  H   H1945     1.0  0.39347  0.43959  0.86955  1.0000
  H   H1946     1.0  0.39660  0.47808  0.86201  1.0000
  H   H1947     1.0  0.37358  0.48296  0.85291  1.0000
  H   H1948     1.0  0.37653  0.50958  0.87601  1.0000
  H   H1949     1.0  0.35463  0.51397  0.86521  1.0000
  H   H1950     1.0  0.40222  0.44054  0.89049  1.0000
  H   H1951     1.0  0.40840  0.46805  0.88253  1.0000
  H   H1952     1.0  0.37927  0.44898  0.84727  1.0000
  H   H1953     1.0  0.35114  0.44546  0.85557  1.0000
  H   H1954     1.0  0.32580  0.47679  0.89637  1.0000
  H   H1955     1.0  0.33505  0.50120  0.88541  1.0000
  H   H1956     1.0  0.30455  0.50547  0.87135  1.0000
  H   H1957     1.0  0.29538  0.48018  0.88160  1.0000
  H   H1958     1.0  0.29365  0.50407  0.89000  1.0000
  H   H1959     1.0  0.38248  0.52136  0.84347  1.0000
  H   H1960     1.0  0.38135  0.54002  0.85572  1.0000
  H   H1961     1.0  0.40433  0.51741  0.85427  1.0000
  H   H1962     1.0  0.39748  0.48040  0.90599  1.0000
  H   H1963     1.0  0.39033  0.45313  0.91397  1.0000
  H   H1964     1.0  0.41894  0.45634  0.90639  1.0000
  H   H1965     1.0  0.29347  0.50848  0.79703  1.0000
  H   H1966     1.0  0.19149  0.36854  0.86547  1.0000
  H   H1967     1.0  0.47963  0.57647  0.86383  1.0000
  C   C1117     1.0  0.24144  0.58000  0.82813  1.0000
  C   C1118     1.0  0.24872  0.59044  0.81279  1.0000
  H   H1968     1.0  0.22457  0.58881  0.83178  1.0000
  H   H1969     1.0  0.24014  0.56236  0.82813  1.0000
  H   H1970     1.0  0.44237  0.62661  0.85197  1.0000
  C   C1119     1.0  0.20277  0.61898  0.86332  1.0000
  H   H1971     1.0  0.23635  0.58895  0.80619  1.0000
  H   H1972     1.0  0.24953  0.60838  0.81215  1.0000
  H   H1973     1.0  0.26539  0.58186  0.80847  1.0000
  H   H1974     1.0  0.34216  0.57518  0.76606  1.0000
  C   C1120     1.0  0.30623  0.57141  0.75498  1.0000
  C   C1121     1.0  0.29926  0.58898  0.77618  1.0000
  H   H1975     1.0  0.31420  0.57832  0.72567  1.0000
  C   C1122     1.0  0.27499  0.59955  0.77387  1.0000
  H   H1976     1.0  0.17664  0.41792  0.91619  1.0000
  H   H1977     1.0  0.34023  0.56354  0.74346  1.0000
  H   H1978     1.0  0.99152  0.60619  0.89465  1.0000
  H   H1979     1.0  0.34110  0.54663  0.76768  1.0000
  H   H1980     1.0  0.28923  0.56894  0.75377  1.0000
  H   H1981     1.0  0.30771  0.58907  0.75014  1.0000
  H   H1982     1.0  0.31036  0.60164  0.77136  1.0000
  H   H1983     1.0  0.29910  0.58669  0.78777  1.0000
  C   C1123     1.0  0.32376  0.55761  0.74505  1.0000
  H   H1984     1.0  0.27718  0.55441  0.77730  1.0000
  H   H1985     1.0  0.37190  0.56611  0.78161  1.0000
  H   H1986     1.0  0.26273  0.58921  0.78055  1.0000
  H   H1987     1.0  0.27268  0.60134  0.76267  1.0000
  H   H1988     1.0  0.21640  0.57819  0.85552  1.0000
  H   H1989     1.0  0.05862  0.44899  0.96360  1.0000
  C   C1124     1.0  0.44282  0.34039  0.87314  1.0000
  H   H1990     1.0  0.24512  0.35453  0.89322  1.0000
  H   H1991     1.0  0.09956  0.43753  0.91761  1.0000
  H   H1992     1.0  0.39618  0.59207  0.86167  1.0000
  S   S251      1.0  0.05551  0.35092  0.97108  1.0000
  C   C1125     1.0  0.24891  0.31552  0.84614  1.0000
  H   H1993     1.0  0.26214  0.32224  0.84958  1.0000
  C   C1126     1.0  0.40985  0.60163  0.85616  1.0000
  C   C1127     1.0  0.23531  0.35138  0.86675  1.0000
  H   H1994     1.0  0.08546  0.48406  0.94646  1.0000
  H   H1995     1.0  0.14785  0.37361  0.94850  1.0000
  C   C1128     1.0  0.31685  0.56044  0.73045  1.0000
  H   H1996     1.0  0.41900  0.48686  0.93666  1.0000
  C   C1129     1.0  0.22540  0.39939  0.82864  1.0000
  H   H1997     1.0  0.17691  0.43464  0.92913  1.0000
  C   C1130     1.0  0.11025  0.46230  0.93439  1.0000
  H   H1998     1.0  0.00951  0.56733  0.94480  1.0000
  H   H1999     1.0  0.12007  0.41588  0.93488  1.0000
  C   C1131     1.0  0.32037  0.64641  0.74920  1.0000
  H   H2000     1.0  0.36832  0.59684  0.74543  1.0000
  H   H2001     1.0  0.13353  0.45788  0.90413  1.0000
  H   H2002     1.0  0.33805  0.33738  0.92972  1.0000
  H   H2003     1.0  0.48718  0.61155  0.83656  1.0000
  H   H2004     1.0  0.29490  0.54681  0.85695  1.0000
  H   H2005     1.0  0.43221  0.31587  0.91656  1.0000
  C   C1132     1.0  0.36334  0.55204  0.78767  1.0000
  C   C1133     1.0  0.11306  0.43130  0.90945  1.0000
  H   H2006     1.0  0.11554  0.41282  0.91182  1.0000
  H   H2007     1.0  0.29436  0.54931  0.79054  1.0000
  H   H2008     1.0  0.24397  0.39612  0.82596  1.0000
  C   C1134     1.0  0.21743  0.38618  0.84311  1.0000
  H   H2009     1.0  0.36242  0.35065  0.92807  1.0000
  H   H2010     1.0  0.23739  0.54511  0.85049  1.0000
  C   C1135     1.0  0.16968  0.43439  0.91953  1.0000
  C   C1136     1.0  0.30258  0.52606  0.77557  1.0000
  C   C1137     1.0  0.32602  0.63769  0.73646  1.0000
  H   H2011     1.0  0.24207  0.35824  0.83832  1.0000
  H   H2012     1.0  0.37384  0.32461  0.80675  1.0000
  H   H2013     1.0  0.22812  0.61634  0.84517  1.0000
  H   H2014     1.0  0.26513  0.57313  0.87245  1.0000
  C   C1138     1.0  0.13536  0.44001  0.90908  1.0000
  S   S252      1.0  0.46963  0.44016  0.91416  1.0000
  H   H2015     1.0  0.22026  0.41748  0.82891  1.0000
  H   H2016     1.0  0.40255  0.61947  0.85416  1.0000
  H   H2017     1.0  0.36670  0.54912  0.79874  1.0000
  H   H2018     1.0  0.45080  0.35556  0.87176  1.0000
  H   H2019     1.0  0.43333  0.58016  0.86830  1.0000
  H   H2020     1.0  0.21787  0.39492  0.82026  1.0000
  C   C1139     1.0  0.42804  0.59835  0.86541  1.0000
  H   H2021     1.0  0.41674  0.59587  0.84585  1.0000
  C   C1140     1.0  0.25199  0.54798  0.85477  1.0000
  H   H2022     1.0  0.26125  0.32721  0.89629  1.0000
  C   C1141     1.0  0.24973  0.51040  0.87032  1.0000
  H   H2023     1.0  0.35908  0.33323  0.88308  1.0000
  H   H2024     1.0  0.14393  0.45506  0.93982  1.0000
  C   C1142     1.0  0.25857  0.58157  0.83759  1.0000
  H   H2025     1.0  0.44225  0.33604  0.89570  1.0000
  C   C1143     1.0  0.30903  0.32875  0.84403  1.0000
  H   H2026     1.0  0.38183  0.32676  0.83052  1.0000
  H   H2027     1.0  0.37529  0.35346  0.87166  1.0000
  H   H2028     1.0  0.42718  0.45846  0.93371  1.0000
  C   C1144     1.0  0.39063  0.32577  0.90889  1.0000
  C   C1145     1.0  0.36842  0.32044  0.91856  1.0000
  C   C1146     1.0  0.24282  0.33257  0.87869  1.0000
  H   H2029     1.0  0.25120  0.62941  0.77726  1.0000
  H   H2030     1.0  0.22843  0.32572  0.88564  1.0000
  C   C1147     1.0  0.10401  0.48017  0.94391  1.0000
  H   H2031     1.0  0.11077  0.47419  0.95400  1.0000
  C   C1148     1.0  0.30636  0.31647  0.83391  1.0000
  H   H2032     1.0  0.38522  0.33554  0.89894  1.0000
  H   H2033     1.0  0.02476  0.39245  0.95902  1.0000
  H   H2034     1.0  0.99371  0.37486  0.95603  1.0000
  H   H2035     1.0  0.19284  0.34355  0.88673  1.0000
  H   H2036     1.0  0.20064  0.63746  0.86117  1.0000
  H   H2037     1.0  0.31705  0.64484  0.72772  1.0000
  C   C1149     1.0  0.48385  0.62280  0.85707  1.0000
  S   S253      1.0  0.40792  0.39535  0.97016  1.0000
  H   H2038     1.0  0.27192  0.62246  0.78890  1.0000
  C   C1150     1.0  0.47514  0.58714  0.87224  1.0000
  H   H2039     1.0  0.15673  0.32945  0.87381  1.0000
  H   H2040     1.0  0.02033  0.45941  0.96846  1.0000
  C   C1151     1.0  0.47885  0.45751  0.96797  1.0000
  H   H2041     1.0  0.21288  0.31851  0.84939  1.0000
  H   H2042     1.0  0.41132  0.64130  0.81540  1.0000
  C   C1152     1.0  0.99464  0.56215  0.94214  1.0000
  H   H2043     1.0  0.48833  0.47999  0.91198  1.0000
  C   C1153     1.0  0.99280  0.47295  0.92668  1.0000
  H   H2044     1.0  0.42525  0.64312  0.87109  1.0000
  H   H2045     1.0  0.26010  0.64642  0.73007  1.0000
  C   C1154     1.0  0.44054  0.64553  0.87475  1.0000
  H   H2046     1.0  0.48916  0.55425  0.89429  1.0000
  Fe  Fe132     1.0  0.30172  0.74386  0.19241  1.0000
  S   S254      1.0  0.32378  0.75830  0.17300  1.0000
  S   S255      1.0  0.26662  0.73584  0.19401  1.0000
  H   H2047     1.0  0.07297  0.72547  0.04841  1.0000
  S   S256      1.0  0.35991  0.75921  0.19427  1.0000
  Fe  Fe133     1.0  0.33007  0.78148  0.18639  1.0000
  S   S257      1.0  0.33523  0.81637  0.17596  1.0000
  Fe  Fe134     1.0  0.35225  0.73525  0.18192  1.0000
  S   S258      1.0  0.37659  0.71662  0.16614  1.0000
  S   S259      1.0  0.30523  0.76949  0.20514  1.0000
  S   S260      1.0  0.32958  0.71882  0.20034  1.0000
  C   C1155     1.0  0.01091  0.97388  0.06251  1.0000
  Fe  Fe135     1.0  0.46850  0.86522  0.06081  1.0000
  Fe  Fe136     1.0  0.42318  0.88711  0.05328  1.0000
  S   S261      1.0  0.43759  0.91207  0.03566  1.0000
  S   S262      1.0  0.38609  0.88535  0.05840  1.0000
  Fe  Fe137     1.0  0.46353  0.88336  0.02995  1.0000
  S   S263      1.0  0.47704  0.88308  0.00666  1.0000
  Fe  Fe138     1.0  0.46001  0.91557  0.05055  1.0000
  S   S264      1.0  0.44728  0.85770  0.04638  1.0000
  S   S265      1.0  0.44327  0.89294  0.06876  1.0000
  C   C1156     1.0  0.11638  0.77374  0.11186  1.0000
  H   H2048     1.0  0.13992  0.72102  0.21281  1.0000
  C   C1157     1.0  0.14609  0.95934  0.06054  1.0000
  Fe  Fe139     1.0  0.26042  0.91384  0.14194  1.0000
  S   S266      1.0  0.27178  0.90685  0.11967  1.0000
  S   S267      1.0  0.25203  0.88723  0.16064  1.0000
  Fe  Fe140     1.0  0.29585  0.93090  0.11830  1.0000
  S   S268      1.0  0.33301  0.92988  0.11081  1.0000
  Fe  Fe141     1.0  0.24676  0.93730  0.11406  1.0000
  S   S269      1.0  0.22359  0.94075  0.09755  1.0000
  S   S270      1.0  0.28682  0.93483  0.14120  1.0000
  S   S271      1.0  0.23422  0.94322  0.13654  1.0000
  Fe  Fe142     1.0  0.13820  0.87613  0.07247  1.0000
  S   S272      1.0  0.10333  0.88702  0.08331  1.0000
  S   S273      1.0  0.16584  0.87141  0.08618  1.0000
  Fe  Fe143     1.0  0.11998  0.87094  0.04573  1.0000
  S   S274      1.0  0.08439  0.88157  0.05506  1.0000
  S   S275      1.0  0.12785  0.86523  0.02276  1.0000
  Fe  Fe144     1.0  0.09782  0.90796  0.06239  1.0000
  S   S276      1.0  0.08535  0.94503  0.05845  1.0000
  Fe  Fe145     1.0  0.09338  0.85938  0.07494  1.0000
  S   S277      1.0  0.06923  0.83783  0.08929  1.0000
  S   S278      1.0  0.13327  0.89876  0.05192  1.0000
  S   S279      1.0  0.12846  0.84695  0.06527  1.0000
  C   C1158     1.0  0.32345  0.79965  0.13643  1.0000
  H   H2049     1.0  0.30528  0.91709  0.21038  1.0000
  S   S280      1.0  0.05214  0.68056  0.09816  1.0000
  H   H2050     1.0  0.23908  0.72623  0.15606  1.0000
  H   H2051     1.0  0.12182  0.81260  0.09250  1.0000
  Fe  Fe146     1.0  0.04130  0.71762  0.09335  1.0000
  S   S281      1.0  0.06570  0.73978  0.07978  1.0000
  S   S282      1.0  0.02407  0.72100  0.11544  1.0000
  C   C1159     1.0  0.10799  0.85997  0.01319  1.0000
  C   C1160     1.0  0.11301  0.86234  0.99832  1.0000
  C   C1161     1.0  0.09826  0.85717  0.99037  1.0000
  C   C1162     1.0  0.07852  0.84913  0.99726  1.0000
  C   C1163     1.0  0.07334  0.84706  0.01212  1.0000
  C   C1164     1.0  0.08785  0.85265  0.02005  1.0000
  H   H2052     1.0  0.12859  0.86790  0.99293  1.0000
  C   C1165     1.0  0.41534  0.72847  0.17124  1.0000
  H   H2053     1.0  0.05825  0.84064  0.01754  1.0000
  H   H2054     1.0  0.08390  0.85052  0.03149  1.0000
  C   C1166     1.0  0.06821  0.81073  0.08640  1.0000
  C   C1167     1.0  0.08280  0.80130  0.07552  1.0000
  C   C1168     1.0  0.08171  0.77959  0.07363  1.0000
  C   C1169     1.0  0.06602  0.76714  0.08252  1.0000
  C   C1170     1.0  0.05132  0.77659  0.09334  1.0000
  C   C1171     1.0  0.05249  0.79828  0.09530  1.0000
  H   H2055     1.0  0.09503  0.81068  0.06863  1.0000
  H   H2056     1.0  0.09334  0.77225  0.06540  1.0000
  H   H2057     1.0  0.03906  0.76723  0.10020  1.0000
  H   H2058     1.0  0.04111  0.80548  0.10372  1.0000
  H   H2059     1.0  0.03773  0.87979  0.07076  1.0000
  C   C1172     1.0  0.05658  0.95540  0.05959  1.0000
  C   C1173     1.0  0.04034  0.94232  0.06673  1.0000
  H   H2060     1.0  0.33145  0.94066  0.14898  1.0000
  C   C1174     1.0  0.48105  0.77547  0.13461  1.0000
  H   H2061     1.0  0.04536  0.92518  0.07127  1.0000
  H   H2062     1.0  0.07294  0.64767  0.16223  1.0000
  C   C1175     1.0  0.10597  0.65692  0.15498  1.0000
  H   H2063     1.0  0.40372  0.94221  0.01063  1.0000
  H   H2064     1.0  0.12217  0.77988  0.02343  1.0000
  H   H2065     1.0  0.08259  0.68664  0.12066  1.0000
  H   H2066     1.0  0.07511  0.93762  0.11753  1.0000
  C   C1176     1.0  0.18296  0.89035  0.08859  1.0000
  C   C1177     1.0  0.19511  0.88481  0.10001  1.0000
  C   C1178     1.0  0.20792  0.89981  0.10279  1.0000
  C   C1179     1.0  0.20898  0.92049  0.09406  1.0000
  C   C1180     1.0  0.19741  0.92572  0.08238  1.0000
  C   C1181     1.0  0.18455  0.91074  0.07963  1.0000
  H   H2067     1.0  0.19426  0.86898  0.10693  1.0000
  H   H2068     1.0  0.21670  0.89553  0.11179  1.0000
  H   H2069     1.0  0.19835  0.94152  0.07544  1.0000
  H   H2070     1.0  0.17591  0.91496  0.07057  1.0000
  H   H2071     1.0  0.09008  0.75893  0.02655  1.0000
  C   C1182     1.0  0.04990  0.97749  0.05352  1.0000
  C   C1183     1.0  0.08371  0.92251  0.02254  1.0000
  C   C1184     1.0  0.46009  0.87602  0.99598  1.0000
  C   C1185     1.0  0.46329  0.88385  0.98132  1.0000
  H   H2072     1.0  0.35572  0.90990  0.15949  1.0000
  H   H2073     1.0  0.14550  0.93687  0.12184  1.0000
  C   C1186     1.0  0.42975  0.85786  0.99323  1.0000
  C   C1187     1.0  0.44341  0.86283  0.00190  1.0000
  H   H2074     1.0  0.99660  0.93443  0.98627  1.0000
  H   H2075     1.0  0.28889  0.97694  0.16077  1.0000
  H   H2076     1.0  0.41708  0.84741  0.99780  1.0000
  H   H2077     1.0  0.44119  0.85630  0.01311  1.0000
  C   C1188     1.0  0.37111  0.89800  0.07283  1.0000
  C   C1189     1.0  0.34853  0.89560  0.07771  1.0000
  C   C1190     1.0  0.33641  0.90553  0.08927  1.0000
  C   C1191     1.0  0.34698  0.91770  0.09604  1.0000
  C   C1192     1.0  0.36947  0.92017  0.09111  1.0000
  C   C1193     1.0  0.38143  0.91053  0.07947  1.0000
  H   H2078     1.0  0.34041  0.88601  0.07256  1.0000
  H   H2079     1.0  0.31903  0.90359  0.09302  1.0000
  H   H2080     1.0  0.37768  0.92961  0.09630  1.0000
  H   H2081     1.0  0.39858  0.91297  0.07561  1.0000
  H   H2082     1.0  0.33078  0.78209  0.13981  1.0000
  H   H2083     1.0  0.30552  0.68130  0.21467  1.0000
  C   C1194     1.0  0.09513  0.94300  0.09598  1.0000
  C   C1195     1.0  0.26463  0.86666  0.21349  1.0000
  C   C1196     1.0  0.26138  0.71391  0.18643  1.0000
  C   C1197     1.0  0.27750  0.70389  0.17645  1.0000
  H   H2084     1.0  0.47027  0.73865  0.05608  1.0000
  H   H2085     1.0  0.29377  0.70929  0.17338  1.0000
  C   C1198     1.0  0.01756  0.95161  0.06828  1.0000
  C   C1199     1.0  0.40559  0.71794  0.16298  1.0000
  C   C1200     1.0  0.41923  0.70781  0.15198  1.0000
  C   C1201     1.0  0.44250  0.70783  0.14939  1.0000
  C   C1202     1.0  0.45234  0.71793  0.15781  1.0000
  H   H2086     1.0  0.15875  0.69727  0.21967  1.0000
  H   H2087     1.0  0.08456  0.80205  0.02408  1.0000
  H   H2088     1.0  0.41179  0.69959  0.14559  1.0000
  H   H2089     1.0  0.45284  0.69955  0.14110  1.0000
  Fe  Fe147     1.0  0.33452  0.74520  0.21200  1.0000
  H   H2090     1.0  0.22767  0.71457  0.19788  1.0000
  C   C1203     1.0  0.31170  0.83525  0.17149  1.0000
  C   C1204     1.0  0.31420  0.85152  0.15937  1.0000
  C   C1205     1.0  0.29583  0.86733  0.15583  1.0000
  C   C1206     1.0  0.27494  0.86698  0.16447  1.0000
  C   C1207     1.0  0.27234  0.85052  0.17648  1.0000
  C   C1208     1.0  0.29073  0.83467  0.18002  1.0000
  H   H2091     1.0  0.33042  0.85198  0.15273  1.0000
  H   H2092     1.0  0.29791  0.87991  0.14649  1.0000
  H   H2093     1.0  0.25613  0.85025  0.18314  1.0000
  H   H2094     1.0  0.28880  0.82219  0.18942  1.0000
  H   H2095     1.0  0.08661  0.74943  0.10971  1.0000
  H   H2096     1.0  0.08293  0.75824  0.04521  1.0000
  C   C1209     1.0  0.48048  0.80237  0.07064  1.0000
  C   C1210     1.0  0.00742  0.90292  0.02433  1.0000
  H   H2097     1.0  0.30164  0.95732  0.18629  1.0000
  H   H2098     1.0  0.26450  0.95464  0.18714  1.0000
  H   H2099     1.0  0.29270  0.87992  0.18878  1.0000
  S   S283      1.0  0.18037  0.66826  0.17719  1.0000
  H   H2100     1.0  0.05749  0.92574  0.09291  1.0000
  Fe  Fe148     1.0  0.01903  0.67664  0.09285  1.0000
  H   H2101     1.0  0.47770  0.91393  0.07684  1.0000
  C   C1211     1.0  0.02752  0.87033  0.06651  1.0000
  H   H2102     1.0  0.14123  0.71446  0.08048  1.0000
  H   H2103     1.0  0.01653  0.86866  0.04729  1.0000
  S   S284      1.0  0.46507  0.95039  0.05199  1.0000
  H   H2104     1.0  0.04521  0.73529  0.05704  1.0000
  H   H2105     1.0  0.11234  0.64878  0.16460  1.0000
  C   C1212     1.0  0.33468  0.92687  0.04062  1.0000
  H   H2106     1.0  0.01670  0.94973  0.98969  1.0000
  S   S285      1.0  0.06045  0.84010  0.98802  1.0000
  S   S286      1.0  0.04690  0.66624  0.13990  1.0000
  C   C1213     1.0  0.32784  0.89380  0.17210  1.0000
  H   H2107     1.0  0.05940  0.92166  0.04150  1.0000
  C   C1214     1.0  0.26718  0.88990  0.20515  1.0000
  H   H2108     1.0  0.44618  0.73632  0.17520  1.0000
  C   C1215     1.0  0.13250  0.73750  0.10336  1.0000
  C   C1216     1.0  0.02159  0.81113  0.05876  1.0000
  H   H2109     1.0  0.09072  0.90456  0.02445  1.0000
  H   H2110     1.0  0.45651  0.93863  0.10184  1.0000
  H   H2111     1.0  0.08376  0.97029  0.11834  1.0000
  C   C1217     1.0  0.47924  0.85711  0.12551  1.0000
  H   H2112     1.0  0.47939  0.76610  0.18757  1.0000
  H   H2113     1.0  0.32604  0.87645  0.17716  1.0000
  H   H2114     1.0  0.48911  0.96656  0.97424  1.0000
  H   H2115     1.0  0.05240  0.80069  0.01888  1.0000
  H   H2116     1.0  0.40496  0.73634  0.17972  1.0000
  H   H2117     1.0  0.44515  0.72823  0.05481  1.0000
  H   H2118     1.0  0.35715  0.88183  0.01110  1.0000
  H   H2119     1.0  0.26546  0.68054  0.21609  1.0000
  H   H2120     1.0  0.08066  0.79813  0.04325  1.0000
  N   N65       1.0  0.29759  0.91314  0.19028  1.0000
  H   H2121     1.0  0.30333  0.88172  0.20423  1.0000
  H   H2122     1.0  0.46362  0.73784  0.03896  1.0000
  C   C1218     1.0  0.07934  0.76804  0.03484  1.0000
  C   C1219     1.0  0.29131  0.89054  0.19698  1.0000
  C   C1220     1.0  0.04759  0.70680  0.04717  1.0000
  C   C1221     1.0  0.48386  0.77899  0.07222  1.0000
  H   H2123     1.0  0.15495  0.73902  0.07525  1.0000
  H   H2124     1.0  0.00124  0.90525  0.05285  1.0000
  H   H2125     1.0  0.05333  0.89584  0.02523  1.0000
  H   H2126     1.0  0.10256  0.85869  0.97896  1.0000
  C   C1222     1.0  0.46498  0.65531  0.09039  1.0000
  H   H2127     1.0  0.02783  0.76648  0.01174  1.0000
  H   H2128     1.0  0.15157  0.94525  0.08874  1.0000
  H   H2129     1.0  0.46890  0.69683  0.04371  1.0000
  C   C1223     1.0  0.13025  0.96342  0.07422  1.0000
  H   H2130     1.0  0.38478  0.96970  0.08589  1.0000
  C   C1224     1.0  0.05493  0.72901  0.04744  1.0000
  C   C1225     1.0  0.46071  0.93732  0.09040  1.0000
  H   H2131     1.0  0.43666  0.95121  0.99307  1.0000
  H   H2132     1.0  0.04501  0.87394  0.04512  1.0000
  H   H2133     1.0  0.05700  0.69943  0.03784  1.0000
  C   C1226     1.0  0.05544  0.93380  0.10241  1.0000
  S   S287      1.0  0.01011  0.71351  0.08605  1.0000
  H   H2134     1.0  0.44487  0.93857  0.08617  1.0000
  C   C1227     1.0  0.28323  0.92442  0.17915  1.0000
  S   S288      1.0  0.24637  0.65744  0.16679  1.0000
  N   N66       1.0  0.02046  0.91393  0.03208  1.0000
  H   H2135     1.0  0.02894  0.86993  0.02445  1.0000
  H   H2136     1.0  0.01390  0.78398  0.02454  1.0000
  C   C1228     1.0  0.44921  0.87934  0.97272  1.0000
  H   H2137     1.0  0.47752  0.77101  0.06518  1.0000
  H   H2138     1.0  0.02932  0.70903  0.04690  1.0000
  H   H2139     1.0  0.04480  0.91980  0.01315  1.0000
  H   H2140     1.0  0.44302  0.92424  0.00355  1.0000
  H   H2141     1.0  0.37732  0.89588  0.98130  1.0000
  H   H2142     1.0  0.33564  0.94498  0.03818  1.0000
  H   H2143     1.0  0.13429  0.96728  0.10648  1.0000
  H   H2144     1.0  0.00505  0.94162  0.07415  1.0000
  H   H2145     1.0  0.47636  0.89384  0.97666  1.0000
  S   S289      1.0  0.48703  0.88848  0.04381  1.0000
  H   H2146     1.0  0.45751  0.69051  0.06932  1.0000
  C   C1229     1.0  0.29709  0.96535  0.20727  1.0000
  C   C1230     1.0  0.02770  0.87819  0.05061  1.0000
  H   H2147     1.0  0.45242  0.67061  0.09072  1.0000
  H   H2148     1.0  0.33545  0.81061  0.13721  1.0000
  H   H2149     1.0  0.12232  0.81787  0.11005  1.0000
  H   H2150     1.0  0.10469  0.77982  0.10399  1.0000
  N   N67       1.0  0.11761  0.94399  0.09993  1.0000
  C   C1231     1.0  0.12481  0.92346  0.11020  1.0000
  H   H2151     1.0  0.00592  0.79993  0.00028  1.0000
  C   C1232     1.0  0.13478  0.94407  0.08658  1.0000
  H   H2152     1.0  0.01471  0.85880  0.00525  1.0000
  H   H2153     1.0  0.46940  0.95144  0.08464  1.0000
  C   C1233     1.0  0.14684  0.92292  0.11594  1.0000
  H   H2154     1.0  0.08419  0.91298  0.10954  1.0000
  H   H2155     1.0  0.48808  0.86941  0.09709  1.0000
  C   C1234     1.0  0.36536  0.91992  0.99616  1.0000
  H   H2156     1.0  0.99935  0.70204  0.18825  1.0000
  C   C1235     1.0  0.15215  0.90129  0.12611  1.0000
  C   C1236     1.0  0.11703  0.96514  0.10558  1.0000
  H   H2157     1.0  0.12664  0.90832  0.10517  1.0000
  H   H2158     1.0  0.11190  0.92100  0.11975  1.0000
  C   C1237     1.0  0.37604  0.91396  0.98130  1.0000
  H   H2159     1.0  0.47162  0.81228  0.06241  1.0000
  H   H2160     1.0  0.13657  0.92801  0.08255  1.0000
  H   H2161     1.0  0.43761  0.92643  0.98569  1.0000
  H   H2162     1.0  0.04841  0.95165  0.09979  1.0000
  H   H2163     1.0  0.12961  0.69514  0.22036  1.0000
  H   H2164     1.0  0.31178  0.97340  0.13587  1.0000
  C   C1238     1.0  0.43220  0.86652  0.97871  1.0000
  H   H2165     1.0  0.16131  0.92395  0.10730  1.0000
  H   H2166     1.0  0.35674  0.95292  0.14588  1.0000
  H   H2167     1.0  0.39305  0.91868  0.97793  1.0000
  H   H2168     1.0  0.12207  0.68724  0.12292  1.0000
  C   C1239     1.0  0.43284  0.93391  0.99552  1.0000
  S   S290      1.0  0.48162  0.71748  0.15513  1.0000
  H   H2169     1.0  0.39867  0.94431  0.99276  1.0000
  C   C1240     1.0  0.01004  0.93811  0.03147  1.0000
  S   S291      1.0  0.14771  0.67037  0.14519  1.0000
  H   H2170     1.0  0.03477  0.85243  0.06847  1.0000
  H   H2171     1.0  0.47887  0.70366  0.07249  1.0000
  C   C1241     1.0  0.40786  0.93401  0.00107  1.0000
  H   H2172     1.0  0.16838  0.90095  0.12965  1.0000
  H   H2173     1.0  0.13887  0.90002  0.13558  1.0000
  H   H2174     1.0  0.15362  0.88668  0.12073  1.0000
  H   H2175     1.0  0.25083  0.93074  0.19354  1.0000
  H   H2176     1.0  0.46490  0.65531  0.06164  1.0000
  H   H2177     1.0  0.28138  0.71173  0.21963  1.0000
  H   H2178     1.0  0.02032  0.80977  0.03710  1.0000
  C   C1242     1.0  0.27684  0.66447  0.21775  1.0000
  S   S292      1.0  0.01597  0.65425  0.07736  1.0000
  C   C1243     1.0  0.46297  0.72899  0.05006  1.0000
  H   H2179     1.0  0.33296  0.90285  0.19150  1.0000
  H   H2180     1.0  0.48440  0.95908  0.99959  1.0000
  C   C1244     1.0  0.07499  0.66727  0.14132  1.0000
  H   H2181     1.0  0.05097  0.69497  0.05694  1.0000
  H   H2182     1.0  0.14755  0.81695  0.09711  1.0000
  H   H2183     1.0  0.10666  0.73748  0.09063  1.0000
  H   H2184     1.0  0.28517  0.67902  0.16274  1.0000
  H   H2185     1.0  0.12051  0.76186  0.08572  1.0000
  C   C1245     1.0  0.08815  0.79032  0.03376  1.0000
  H   H2186     1.0  0.38434  0.87580  0.00163  1.0000
  C   C1246     1.0  0.12288  0.74361  0.08930  1.0000
  C   C1247     1.0  0.13788  0.78444  0.10618  1.0000
  H   H2187     1.0  0.11855  0.77506  0.04262  1.0000
  H   H2188     1.0  0.04688  0.81358  0.04031  1.0000
  C   C1248     1.0  0.07801  0.93114  0.10742  1.0000
  C   C1249     1.0  0.03268  0.80426  0.04450  1.0000
  H   H2189     1.0  0.23068  0.95725  0.17655  1.0000
  S   S293      1.0  0.00049  0.67707  0.11507  1.0000
  H   H2190     1.0  0.03344  0.88862  0.00816  1.0000
  Fe  Fe149     1.0  0.26191  0.96397  0.13405  1.0000
  N   N68       1.0  0.26070  0.79690  0.15336  1.0000
  C   C1250     1.0  0.24533  0.78257  0.15036  1.0000
  C   C1251     1.0  0.25129  0.82107  0.14907  1.0000
  C   C1252     1.0  0.28379  0.79106  0.14517  1.0000
  C   C1253     1.0  0.26235  0.79302  0.16894  1.0000
  C   C1254     1.0  0.23978  0.79388  0.17931  1.0000
  C   C1255     1.0  0.25190  0.75709  0.15474  1.0000
  C   C1256     1.0  0.30126  0.80579  0.14596  1.0000
  C   C1257     1.0  0.25207  0.82943  0.13292  1.0000
  C   C1258     1.0  0.24245  0.85413  0.13004  1.0000
  C   C1259     1.0  0.24303  0.79530  0.19429  1.0000
  C   C1260     1.0  0.23357  0.74441  0.15324  1.0000
  H   H2191     1.0  0.24464  0.78526  0.13882  1.0000
  H   H2192     1.0  0.22779  0.78754  0.15549  1.0000
  H   H2193     1.0  0.23341  0.82453  0.15396  1.0000
  H   H2194     1.0  0.25987  0.83216  0.15327  1.0000
  H   H2195     1.0  0.29108  0.77368  0.14917  1.0000
  H   H2196     1.0  0.27278  0.77676  0.17207  1.0000
  H   H2197     1.0  0.27147  0.80552  0.17114  1.0000
  H   H2198     1.0  0.23231  0.77862  0.17990  1.0000
  H   H2199     1.0  0.22751  0.80848  0.17595  1.0000
  H   H2200     1.0  0.26750  0.75084  0.14791  1.0000
  H   H2201     1.0  0.25470  0.75278  0.16587  1.0000
  H   H2202     1.0  0.30479  0.80335  0.15694  1.0000
  H   H2203     1.0  0.29541  0.82372  0.14264  1.0000
  H   H2204     1.0  0.26949  0.82753  0.12712  1.0000
  H   H2205     1.0  0.24208  0.82023  0.12834  1.0000
  H   H2206     1.0  0.25204  0.86417  0.13433  1.0000
  H   H2207     1.0  0.24363  0.85989  0.11843  1.0000
  H   H2208     1.0  0.22455  0.85706  0.13497  1.0000
  H   H2209     1.0  0.24846  0.81136  0.19447  1.0000
  H   H2210     1.0  0.22696  0.79415  0.20166  1.0000
  H   H2211     1.0  0.25579  0.78148  0.19811  1.0000
  H   H2212     1.0  0.21789  0.74906  0.16053  1.0000
  H   H2213     1.0  0.23019  0.74789  0.14216  1.0000
  H   H2214     1.0  0.14996  0.74114  0.10082  1.0000
  C   C1261     1.0  0.13008  0.74035  0.12868  1.0000
  C   C1262     1.0  0.09610  0.74202  0.11859  1.0000
  C   C1263     1.0  0.08088  0.74872  0.13226  1.0000
  C   C1264     1.0  0.16456  0.73039  0.14085  1.0000
  C   C1265     1.0  0.05792  0.74150  0.13409  1.0000
  H   H2215     1.0  0.12463  0.75239  0.13627  1.0000
  H   H2216     1.0  0.12431  0.72444  0.13441  1.0000
  H   H2217     1.0  0.09732  0.72369  0.11939  1.0000
  H   H2218     1.0  0.07808  0.76701  0.13186  1.0000
  H   H2219     1.0  0.08831  0.74073  0.14188  1.0000
  H   H2220     1.0  0.15704  0.71656  0.14813  1.0000
  H   H2221     1.0  0.18306  0.72552  0.13915  1.0000
  H   H2222     1.0  0.16038  0.74558  0.14590  1.0000
  H   H2223     1.0  0.04909  0.75023  0.12518  1.0000
  H   H2224     1.0  0.05962  0.72320  0.13455  1.0000
  H   H2225     1.0  0.04760  0.74585  0.14413  1.0000
  C   C1266     1.0  0.02041  0.88303  0.01703  1.0000
  H   H2226     1.0  0.30131  0.95784  0.21793  1.0000
  Fe  Fe150     1.0  0.16640  0.65126  0.16299  1.0000
  H   H2227     1.0  0.33156  0.92444  0.01945  1.0000
  N   N69       1.0  0.05492  0.76949  0.03368  1.0000
  H   H2228     1.0  0.01498  0.82917  0.05724  1.0000
  H   H2229     1.0  0.29273  0.93540  0.17061  1.0000
  C   C1267     1.0  0.08362  0.65641  0.15365  1.0000
  C   C1268     1.0  0.01896  0.90338  0.04747  1.0000
  H   H2230     1.0  0.01247  0.94682  0.02029  1.0000
  C   C1269     1.0  0.05071  0.74606  0.03391  1.0000
  H   H2231     1.0  0.36347  0.93829  0.99544  1.0000
  N   N70       1.0  0.42768  0.78281  0.11670  1.0000
  C   C1270     1.0  0.42671  0.75890  0.11585  1.0000
  C   C1271     1.0  0.40871  0.79130  0.12772  1.0000
  C   C1272     1.0  0.42455  0.79660  0.10239  1.0000
  C   C1273     1.0  0.45006  0.78567  0.11973  1.0000
  C   C1274     1.0  0.45777  0.77144  0.13329  1.0000
  C   C1275     1.0  0.44521  0.74770  0.10512  1.0000
  C   C1276     1.0  0.42283  0.82224  0.10130  1.0000
  C   C1277     1.0  0.40060  0.77419  0.14079  1.0000
  C   C1278     1.0  0.38456  0.78568  0.15215  1.0000
  C   C1279     1.0  0.05069  0.78300  0.01951  1.0000
  C   C1280     1.0  0.44147  0.72404  0.10489  1.0000
  C   C1281     1.0  0.41797  0.83433  0.08671  1.0000
  H   H2232     1.0  0.41011  0.75765  0.11327  1.0000
  H   H2233     1.0  0.42785  0.74798  0.12623  1.0000
  H   H2234     1.0  0.41308  0.80544  0.13167  1.0000
  H   H2235     1.0  0.39335  0.79828  0.12286  1.0000
  H   H2236     1.0  0.40924  0.79327  0.09907  1.0000
  H   H2237     1.0  0.43882  0.79194  0.09408  1.0000
  H   H2238     1.0  0.46341  0.78237  0.11060  1.0000
  H   H2239     1.0  0.45004  0.80324  0.12075  1.0000
  H   H2240     1.0  0.45867  0.75344  0.13319  1.0000
  H   H2241     1.0  0.44628  0.77614  0.14283  1.0000
  H   H2242     1.0  0.44539  0.75681  0.09415  1.0000
  H   H2243     1.0  0.46194  0.74665  0.10814  1.0000
  H   H2244     1.0  0.43888  0.82670  0.10270  1.0000
  H   H2245     1.0  0.40927  0.82889  0.10935  1.0000
  H   H2246     1.0  0.39143  0.76262  0.13750  1.0000
  H   H2247     1.0  0.41461  0.76401  0.14580  1.0000
  H   H2248     1.0  0.36988  0.79593  0.14778  1.0000
  H   H2249     1.0  0.37835  0.77291  0.16098  1.0000
  H   H2250     1.0  0.39324  0.79644  0.15651  1.0000
  H   H2251     1.0  0.26914  0.85400  0.20636  1.0000
  H   H2252     1.0  0.09413  0.93179  0.02677  1.0000
  H   H2253     1.0  0.45525  0.71612  0.09746  1.0000
  H   H2254     1.0  0.44128  0.71382  0.11561  1.0000
  H   H2255     1.0  0.42534  0.72430  0.10125  1.0000
  H   H2256     1.0  0.40178  0.83103  0.08469  1.0000
  H   H2257     1.0  0.41686  0.85258  0.08618  1.0000
  H   H2258     1.0  0.43164  0.82899  0.07825  1.0000
  N   N71       1.0  0.37744  0.90808  0.00826  1.0000
  C   C1282     1.0  0.37492  0.88377  0.01073  1.0000
  H   H2259     1.0  0.14346  0.94392  0.05725  1.0000
  C   C1283     1.0  0.40207  0.90997  0.00484  1.0000
  C   C1284     1.0  0.36746  0.91862  0.02124  1.0000
  C   C1285     1.0  0.34263  0.91614  0.02730  1.0000
  C   C1286     1.0  0.38300  0.86938  0.02424  1.0000
  H   H2260     1.0  0.34790  0.91617  0.99815  1.0000
  H   H2261     1.0  0.99262  0.89705  0.03165  1.0000
  C   C1287     1.0  0.47534  0.69270  0.06559  1.0000
  H   H2262     1.0  0.27863  0.97014  0.20804  1.0000
  C   C1288     1.0  0.37901  0.84533  0.02579  1.0000
  C   C1289     1.0  0.30585  0.94907  0.19680  1.0000
  H   H2263     1.0  0.05365  0.94471  0.02767  1.0000
  H   H2264     1.0  0.31703  0.92461  0.04493  1.0000
  H   H2265     1.0  0.27864  0.93079  0.20709  1.0000
  H   H2266     1.0  0.02093  0.81764  0.00645  1.0000
  H   H2267     1.0  0.41038  0.90081  0.99604  1.0000
  H   H2268     1.0  0.41070  0.90170  0.01396  1.0000
  H   H2269     1.0  0.37770  0.91210  0.02987  1.0000
  H   H2270     1.0  0.36811  0.93681  0.01889  1.0000
  H   H2271     1.0  0.34027  0.89842  0.03023  1.0000
  H   H2272     1.0  0.25516  0.89385  0.19749  1.0000
  H   H2273     1.0  0.40115  0.86916  0.02397  1.0000
  H   H2274     1.0  0.37374  0.87572  0.03391  1.0000
  H   H2275     1.0  0.47138  0.65455  0.11179  1.0000
  C   C1290     1.0  0.33034  0.97168  0.13437  1.0000
  H   H2276     1.0  0.34514  0.91896  0.04889  1.0000
  H   H2277     1.0  0.48833  0.92695  0.98920  1.0000
  C   C1291     1.0  0.48335  0.65522  0.05923  1.0000
  C   C1292     1.0  0.24643  0.94679  0.17257  1.0000
  C   C1293     1.0  0.00478  0.87239  0.01078  1.0000
  H   H2278     1.0  0.32443  0.94575  0.19585  1.0000
  H   H2279     1.0  0.01012  0.87241  0.07240  1.0000
  H   H2280     1.0  0.04338  0.92556  0.11087  1.0000
  H   H2281     1.0  0.38802  0.83770  0.01648  1.0000
  H   H2282     1.0  0.38528  0.83544  0.03542  1.0000
  H   H2283     1.0  0.36082  0.84460  0.02693  1.0000
  H   H2284     1.0  0.99204  0.86524  0.01928  1.0000
  C   C1294     1.0  0.04449  0.91322  0.02467  1.0000
  H   H2285     1.0  0.09749  0.93403  0.08680  1.0000
  H   H2286     1.0  0.28292  0.79120  0.13384  1.0000
  H   H2287     1.0  0.25526  0.95692  0.16325  1.0000
  H   H2288     1.0  0.10808  0.78142  0.12131  1.0000
  H   H2289     1.0  0.14805  0.78240  0.11472  1.0000
  H   H2290     1.0  0.02758  0.91224  0.05320  1.0000
  H   H2291     1.0  0.13310  0.97927  0.07681  1.0000
  H   H2292     1.0  0.03292  0.74612  0.03303  1.0000
  N   N72       1.0  0.11926  0.74865  0.11550  1.0000
  C   C1295     1.0  0.15606  0.73476  0.12665  1.0000
  C   C1296     1.0  0.11983  0.66831  0.14397  1.0000
  H   H2293     1.0  0.27909  0.91177  0.17370  1.0000
  H   H2294     1.0  0.14811  0.77727  0.09701  1.0000
  C   C1297     1.0  0.29615  0.92686  0.20177  1.0000
  H   H2295     1.0  0.06103  0.73914  0.02458  1.0000
  H   H2296     1.0  0.32098  0.80204  0.12520  1.0000
  H   H2297     1.0  0.16162  0.71935  0.12186  1.0000
  H   H2298     1.0  0.04788  0.77315  0.05581  1.0000
  H   H2299     1.0  0.32724  0.92564  0.17777  1.0000
  H   H2300     1.0  0.08484  0.92826  0.01094  1.0000
  H   H2301     1.0  0.24197  0.93220  0.16925  1.0000
  H   H2302     1.0  0.24695  0.86634  0.21870  1.0000
  C   C1298     1.0  0.32190  0.90954  0.18332  1.0000
  H   H2303     1.0  0.13088  0.73722  0.06767  1.0000
  H   H2304     1.0  0.36374  0.88648  0.17275  1.0000
  H   H2305     1.0  0.16432  0.74822  0.11967  1.0000
  C   C1299     1.0  0.24027  0.70683  0.19022  1.0000
  H   H2306     1.0  0.35575  0.88196  0.15678  1.0000
  C   C1300     1.0  0.43868  0.72841  0.16867  1.0000
  H   H2307     1.0  0.01851  0.94678  0.03749  1.0000
  C   C1301     1.0  0.23539  0.68965  0.18423  1.0000
  H   H2308     1.0  0.21918  0.68418  0.18734  1.0000
  H   H2309     1.0  0.00046  0.91520  0.01568  1.0000
  H   H2310     1.0  0.03398  0.80784  0.06616  1.0000
  C   C1302     1.0  0.13197  0.80946  0.10118  1.0000
  Fe  Fe151     1.0  0.03307  0.68373  0.11993  1.0000
  C   C1303     1.0  0.11130  0.67881  0.13157  1.0000
  C   C1304     1.0  0.27257  0.68679  0.17040  1.0000
  C   C1305     1.0  0.08896  0.67845  0.13027  1.0000
  C   C1306     1.0  0.35225  0.89312  0.16487  1.0000
  H   H2311     1.0  0.13408  0.71907  0.10651  1.0000
  C   C1307     1.0  0.13854  0.73287  0.07749  1.0000
  C   C1308     1.0  0.25155  0.67951  0.17430  1.0000
  H   H2312     1.0  0.11921  0.80285  0.03285  1.0000
  C   C1309     1.0  0.11357  0.78667  0.03315  1.0000
  C   C1310     1.0  0.02761  0.78247  0.01540  1.0000
  H   H2313     1.0  0.06379  0.77714  0.01084  1.0000
  H   H2314     1.0  0.31694  0.89929  0.16382  1.0000
  C   C1311     1.0  0.02218  0.80114  0.00324  1.0000
  H   H2315     1.0  0.20043  0.65862  0.20957  1.0000
  C   C1312     1.0  0.03988  0.77864  0.04610  1.0000
  C   C1313     1.0  0.05942  0.92654  0.02997  1.0000
  H   H2316     1.0  0.10459  0.95276  0.12806  1.0000
  S   S294      1.0  0.27203  0.96096  0.11096  1.0000
  C   C1314     1.0  0.26098  0.93933  0.18420  1.0000
  H   H2317     1.0  0.02394  0.77146  0.04878  1.0000
  H   H2318     1.0  0.03539  0.79987  0.99377  1.0000
  H   H2319     1.0  0.99624  0.88483  0.00291  1.0000
  C   C1315     1.0  0.47629  0.70559  0.05022  1.0000
  H   H2320     1.0  0.29248  0.66655  0.19558  1.0000
  H   H2321     1.0  0.26245  0.90162  0.21285  1.0000
  H   H2322     1.0  0.11288  0.96562  0.07204  1.0000
  C   C1316     1.0  0.10155  0.96758  0.11986  1.0000
  H   H2323     1.0  0.08670  0.96004  0.09220  1.0000
  H   H2324     1.0  0.16383  0.95777  0.06201  1.0000
  C   C1317     1.0  0.19675  0.65454  0.22100  1.0000
  C   C1318     1.0  0.48835  0.66116  0.08296  1.0000
  H   H2325     1.0  0.46592  0.90177  0.09434  1.0000
  H   H2326     1.0  0.00742  0.80185  0.06361  1.0000
  H   H2327     1.0  0.48085  0.79320  0.13531  1.0000
  H   H2328     1.0  0.03439  0.91194  0.98607  1.0000
  H   H2329     1.0  0.46573  0.85487  0.12000  1.0000
  C   C1319     1.0  0.33815  0.95657  0.14742  1.0000
  C   C1320     1.0  0.47536  0.91510  0.08826  1.0000
  C   C1321     1.0  0.01148  0.94259  0.98142  1.0000
  C   C1322     1.0  0.28253  0.65552  0.20373  1.0000
  H   H2330     1.0  0.48641  0.76502  0.14436  1.0000
  H   H2331     1.0  0.33195  0.96441  0.15704  1.0000
  H   H2332     1.0  0.26683  0.65474  0.19991  1.0000
  H   H2333     1.0  0.47163  0.86023  0.13638  1.0000
  Fe  Fe152     1.0  0.99331  0.71421  0.10861  1.0000
  H   H2334     1.0  0.33715  0.96323  0.12517  1.0000
  H   H2335     1.0  0.14273  0.97346  0.05191  1.0000
  H   H2336     1.0  0.47788  0.89188  0.11734  1.0000
  S   S295      1.0  0.48519  0.84202  0.07808  1.0000
  C   C1323     1.0  0.03043  0.92450  0.97677  1.0000
  C   C1324     1.0  0.48879  0.81283  0.07963  1.0000
  H   H2337     1.0  0.34489  0.92135  0.97251  1.0000
  H   H2338     1.0  0.36669  0.97201  0.11039  1.0000
  H   H2339     1.0  0.48683  0.66139  0.04763  1.0000
  H   H2340     1.0  0.11120  0.97988  0.09793  1.0000
  H   H2341     1.0  0.31090  0.65268  0.22131  1.0000
  C   C1325     1.0  0.14133  0.70630  0.22131  1.0000
  H   H2342     1.0  0.04585  0.93171  0.97168  1.0000
  Fe  Fe153     1.0  0.31653  0.76950  0.32520  1.0000
  S   S296      1.0  0.31476  0.80500  0.31381  1.0000
  S   S297      1.0  0.28429  0.75434  0.33135  1.0000
  Fe  Fe154     1.0  0.36747  0.76289  0.32252  1.0000
  S   S298      1.0  0.36920  0.79732  0.31053  1.0000
  S   S299      1.0  0.39907  0.73778  0.32506  1.0000
  Fe  Fe155     1.0  0.34015  0.80837  0.32688  1.0000
  S   S300      1.0  0.34605  0.83922  0.33457  1.0000
  Fe  Fe156     1.0  0.34372  0.79112  0.29858  1.0000
  S   S301      1.0  0.34543  0.80192  0.27476  1.0000
  S   S302      1.0  0.33980  0.77376  0.33965  1.0000
  S   S303      1.0  0.34410  0.75575  0.30927  1.0000
  S   S304      1.0  0.33755  0.73404  0.23528  1.0000
  Fe  Fe157     1.0  0.23766  0.66437  0.30240  1.0000
  S   S305      1.0  0.21917  0.68656  0.28598  1.0000
  S   S306      1.0  0.27116  0.67061  0.30625  1.0000
  C   C1326     1.0  0.34109  0.77567  0.24035  1.0000
  H   H2343     1.0  0.20679  0.71689  0.25677  1.0000
  H   H2344     1.0  0.35700  0.91237  0.39958  1.0000
  H   H2345     1.0  0.10755  0.90323  0.44098  1.0000
  Fe  Fe158     1.0  0.18787  0.67907  0.30105  1.0000
  S   S307      1.0  0.15922  0.70687  0.30495  1.0000
  C   C1327     1.0  0.31658  0.68118  0.23895  1.0000
  C   C1328     1.0  0.99189  0.76490  0.39004  1.0000
  Fe  Fe159     1.0  0.03398  0.70064  0.34013  1.0000
  H   H2346     1.0  0.39014  0.92140  0.35400  1.0000
  S   S308      1.0  0.03566  0.69978  0.36304  1.0000
  C   C1329     1.0  0.40624  0.73173  0.26369  1.0000
  H   H2347     1.0  0.39742  0.76997  0.34365  1.0000
  H   H2348     1.0  0.46696  0.71516  0.34712  1.0000
  H   H2349     1.0  0.05565  0.90186  0.38278  1.0000
  Fe  Fe160     1.0  0.29036  0.94557  0.37105  1.0000
  S   S309      1.0  0.28713  0.95266  0.39331  1.0000
  S   S310      1.0  0.28260  0.91223  0.36801  1.0000
  H   H2350     1.0  0.06608  0.93106  0.40069  1.0000
  H   H2351     1.0  0.39206  0.96339  0.40377  1.0000
  S   S311      1.0  0.00030  0.68902  0.34418  1.0000
  H   H2352     1.0  0.36238  0.84815  0.38110  1.0000
  S   S312      1.0  0.32317  0.95821  0.36412  1.0000
  C   C1330     1.0  0.45498  0.81796  0.37231  1.0000
  C   C1331     1.0  0.26375  0.79824  0.23188  1.0000
  H   H2353     1.0  0.31171  0.70780  0.26671  1.0000
  H   H2354     1.0  0.30682  0.89307  0.39323  1.0000
  H   H2355     1.0  0.03812  0.65950  0.38543  1.0000
  S   S313      1.0  0.46383  0.74584  0.36701  1.0000
  C   C1332     1.0  0.47855  0.75796  0.41457  1.0000
  H   H2356     1.0  0.32323  0.86280  0.37740  1.0000
  H   H2357     1.0  0.24121  0.72108  0.22915  1.0000
  S   S314      1.0  0.35067  0.96161  0.39497  1.0000
  H   H2358     1.0  0.47235  0.74567  0.40992  1.0000
  H   H2359     1.0  0.29333  0.84039  0.38657  1.0000
  H   H2360     1.0  0.44124  0.71242  0.33086  1.0000
  H   H2361     1.0  0.07306  0.72721  0.29578  1.0000
  H   H2362     1.0  0.36184  0.92243  0.35120  1.0000
  H   H2363     1.0  0.38492  0.86375  0.37815  1.0000
  C   C1333     1.0  0.37540  0.91246  0.35683  1.0000
  H   H2364     1.0  0.48902  0.93581  0.46394  1.0000
  H   H2365     1.0  0.34322  0.88531  0.42211  1.0000
  H   H2366     1.0  0.39751  0.82384  0.38519  1.0000
  H   H2367     1.0  0.38026  0.89603  0.35322  1.0000
  C   C1334     1.0  0.00804  0.93109  0.41905  1.0000
  C   C1335     1.0  0.00994  0.95386  0.41662  1.0000
  C   C1336     1.0  0.02648  0.96137  0.42187  1.0000
  C   C1337     1.0  0.04099  0.94596  0.42967  1.0000
  C   C1338     1.0  0.03942  0.92314  0.43185  1.0000
  C   C1339     1.0  0.27992  0.74472  0.26771  1.0000
  H   H2368     1.0  0.44043  0.66473  0.44227  1.0000
  H   H2369     1.0  0.05333  0.95166  0.43410  1.0000
  C   C1340     1.0  0.38550  0.65809  0.39934  1.0000
  C   C1341     1.0  0.08919  0.68821  0.32204  1.0000
  H   H2370     1.0  0.02171  0.71822  0.38968  1.0000
  C   C1342     1.0  0.12867  0.67748  0.31287  1.0000
  C   C1343     1.0  0.13269  0.69914  0.31235  1.0000
  C   C1344     1.0  0.11501  0.71517  0.31710  1.0000
  C   C1345     1.0  0.09335  0.70963  0.32215  1.0000
  C   C1346     1.0  0.38850  0.83396  0.39338  1.0000
  H   H2371     1.0  0.36149  0.68740  0.22955  1.0000
  H   H2372     1.0  0.11801  0.73195  0.31677  1.0000
  H   H2373     1.0  0.07975  0.72210  0.32567  1.0000
  H   H2374     1.0  0.29483  0.74762  0.25954  1.0000
  S   S315      1.0  0.06203  0.68095  0.32680  1.0000
  C   C1347     1.0  0.28083  0.73124  0.32411  1.0000
  C   C1348     1.0  0.25912  0.72757  0.32353  1.0000
  C   C1349     1.0  0.25584  0.70904  0.31814  1.0000
  C   C1350     1.0  0.27427  0.69380  0.31351  1.0000
  C   C1351     1.0  0.29593  0.69730  0.31430  1.0000
  C   C1352     1.0  0.29923  0.71607  0.31938  1.0000
  H   H2375     1.0  0.24478  0.73912  0.32729  1.0000
  H   H2376     1.0  0.23908  0.70643  0.31769  1.0000
  H   H2377     1.0  0.31026  0.68549  0.31088  1.0000
  H   H2378     1.0  0.31595  0.71849  0.32001  1.0000
  C   C1353     1.0  0.34347  0.78298  0.26378  1.0000
  C   C1354     1.0  0.34293  0.79046  0.24927  1.0000
  C   C1355     1.0  0.34026  0.75322  0.24588  1.0000
  C   C1356     1.0  0.34115  0.74572  0.26033  1.0000
  C   C1357     1.0  0.34221  0.76063  0.26928  1.0000
  H   H2379     1.0  0.34071  0.72838  0.26468  1.0000
  H   H2380     1.0  0.34169  0.75491  0.28048  1.0000
  C   C1358     1.0  0.29932  0.89331  0.35721  1.0000
  C   C1359     1.0  0.32048  0.89698  0.34981  1.0000
  C   C1360     1.0  0.33438  0.88037  0.34275  1.0000
  C   C1361     1.0  0.32701  0.86020  0.34260  1.0000
  C   C1362     1.0  0.30543  0.85693  0.34945  1.0000
  C   C1363     1.0  0.29170  0.87339  0.35675  1.0000
  H   H2381     1.0  0.32626  0.91247  0.34970  1.0000
  H   H2382     1.0  0.35096  0.88316  0.33736  1.0000
  H   H2383     1.0  0.29952  0.84153  0.34942  1.0000
  H   H2384     1.0  0.27525  0.87047  0.36230  1.0000
  C   C1364     1.0  0.44671  0.74399  0.35472  1.0000
  C   C1365     1.0  0.42713  0.75953  0.35356  1.0000
  C   C1366     1.0  0.41255  0.75800  0.34437  1.0000
  C   C1367     1.0  0.41753  0.74098  0.33618  1.0000
  C   C1368     1.0  0.43727  0.72562  0.33717  1.0000
  C   C1369     1.0  0.45185  0.72713  0.34638  1.0000
  H   H2385     1.0  0.42313  0.77277  0.35985  1.0000
  C   C1370     1.0  0.33606  0.91970  0.42479  1.0000
  H   H2386     1.0  0.34939  0.88377  0.37075  1.0000
  C   C1371     1.0  0.44834  0.65146  0.43589  1.0000
  H   H2387     1.0  0.27383  0.69353  0.25157  1.0000
  H   H2388     1.0  0.07461  0.93535  0.38206  1.0000
  C   C1372     1.0  0.27575  0.69033  0.24053  1.0000
  H   H2389     1.0  0.32863  0.92064  0.39706  1.0000
  H   H2390     1.0  0.00443  0.87187  0.37682  1.0000
  H   H2391     1.0  0.12407  0.68355  0.24677  1.0000
  H   H2392     1.0  0.28253  0.86887  0.38844  1.0000
  H   H2393     1.0  0.00137  0.89416  0.36209  1.0000
  H   H2394     1.0  0.05966  0.96854  0.39105  1.0000
  H   H2395     1.0  0.42127  0.73695  0.25628  1.0000
  H   H2396     1.0  0.46739  0.68114  0.28935  1.0000
  H   H2397     1.0  0.10441  0.69831  0.28956  1.0000
  H   H2398     1.0  0.25539  0.74494  0.22627  1.0000
  H   H2399     1.0  0.25997  0.68434  0.24000  1.0000
  H   H2400     1.0  0.27024  0.73537  0.26294  1.0000
  C   C1373     1.0  0.44322  0.82826  0.35957  1.0000
  H   H2401     1.0  0.99173  0.70138  0.39875  1.0000
  H   H2402     1.0  0.08977  0.92977  0.43891  1.0000
  C   C1374     1.0  0.01956  0.71544  0.41264  1.0000
  C   C1375     1.0  0.07429  0.97693  0.39064  1.0000
  H   H2403     1.0  0.35569  0.68290  0.24873  1.0000
  H   H2404     1.0  0.37420  0.87618  0.40099  1.0000
  H   H2405     1.0  0.36764  0.66341  0.39805  1.0000
  C   C1376     1.0  0.48085  0.78383  0.39096  1.0000
  H   H2406     1.0  0.03094  0.79969  0.38148  1.0000
  H   H2407     1.0  0.37365  0.66194  0.23951  1.0000
  H   H2408     1.0  0.44445  0.80599  0.37917  1.0000
  H   H2409     1.0  0.15317  0.68268  0.24548  1.0000
  H   H2410     1.0  0.13807  0.67380  0.35957  1.0000
  H   H2411     1.0  0.25377  0.78775  0.22828  1.0000
  H   H2412     1.0  0.14493  0.93691  0.39936  1.0000
  H   H2413     1.0  0.42670  0.79317  0.27444  1.0000
  H   H2414     1.0  0.13910  0.68008  0.28340  1.0000
  H   H2415     1.0  0.34047  0.78162  0.22921  1.0000
  H   H2416     1.0  0.15485  0.66789  0.26905  1.0000
  N   N73       1.0  0.13347  0.69846  0.26276  1.0000
  H   H2417     1.0  0.32912  0.84408  0.39339  1.0000
  H   H2418     1.0  0.43609  0.68201  0.38021  1.0000
  C   C1377     1.0  0.10972  0.70979  0.26639  1.0000
  C   C1378     1.0  0.14935  0.71361  0.26409  1.0000
  C   C1379     1.0  0.17460  0.70591  0.25892  1.0000
  C   C1380     1.0  0.13572  0.71380  0.23583  1.0000
  C   C1381     1.0  0.10241  0.71398  0.28194  1.0000
  C   C1382     1.0  0.21192  0.65752  0.22937  1.0000
  C   C1383     1.0  0.10690  0.67221  0.31736  1.0000
  C   C1384     1.0  0.18879  0.72311  0.26011  1.0000
  C   C1385     1.0  0.07775  0.72427  0.28462  1.0000
  C   C1386     1.0  0.06367  0.89344  0.39210  1.0000
  C   C1387     1.0  0.28913  0.72910  0.28036  1.0000
  H   H2419     1.0  0.46399  0.76886  0.41956  1.0000
  H   H2420     1.0  0.27584  0.72671  0.28965  1.0000
  H   H2421     1.0  0.09764  0.70021  0.26396  1.0000
  H   H2422     1.0  0.10710  0.72636  0.25959  1.0000
  H   H2423     1.0  0.14452  0.73077  0.25850  1.0000
  H   H2424     1.0  0.14803  0.71547  0.27538  1.0000
  H   H2425     1.0  0.17786  0.70351  0.24768  1.0000
  H   H2426     1.0  0.18071  0.69001  0.26545  1.0000
  H   H2427     1.0  0.11862  0.72355  0.23668  1.0000
  H   H2428     1.0  0.14782  0.72494  0.23606  1.0000
  H   H2429     1.0  0.11243  0.72556  0.28438  1.0000
  H   H2430     1.0  0.31565  0.87317  0.40766  1.0000
  H   H2431     1.0  0.34180  0.65608  0.22912  1.0000
  H   H2432     1.0  0.03192  0.71315  0.42002  1.0000
  H   H2433     1.0  0.27675  0.80351  0.22287  1.0000
  C   C1388     1.0  0.39759  0.67869  0.39741  1.0000
  H   H2434     1.0  0.37806  0.82336  0.40154  1.0000
  H   H2435     1.0  0.18415  0.73910  0.25315  1.0000
  H   H2436     1.0  0.18637  0.72601  0.27124  1.0000
  C   C1389     1.0  0.12127  0.66023  0.27448  1.0000
  H   H2437     1.0  0.07467  0.74046  0.27751  1.0000
  H   H2438     1.0  0.06687  0.71282  0.28294  1.0000
  H   H2439     1.0  0.14704  0.95571  0.43010  1.0000
  C   C1390     1.0  0.10525  0.91976  0.43414  1.0000
  H   H2440     1.0  0.30746  0.69580  0.28510  1.0000
  C   C1391     1.0  0.03254  0.71119  0.39787  1.0000
  H   H2441     1.0  0.47687  0.79137  0.36282  1.0000
  C   C1392     1.0  0.01061  0.77429  0.38264  1.0000
  H   H2442     1.0  0.00448  0.78940  0.34473  1.0000
  C   C1393     1.0  0.01650  0.79230  0.38720  1.0000
  H   H2443     1.0  0.28588  0.77033  0.24060  1.0000
  Fe  Fe161     1.0  0.21741  0.65540  0.27796  1.0000
  C   C1394     1.0  0.39908  0.71729  0.24257  1.0000
  H   H2444     1.0  0.06736  0.87528  0.39182  1.0000
  H   H2445     1.0  0.45258  0.84094  0.35242  1.0000
  H   H2446     1.0  0.23955  0.97674  0.44265  1.0000
  H   H2447     1.0  0.46678  0.64859  0.43569  1.0000
  C   C1395     1.0  0.39946  0.71214  0.25853  1.0000
  C   C1396     1.0  0.29906  0.70621  0.27645  1.0000
  N   N74       1.0  0.26616  0.76654  0.27073  1.0000
  C   C1397     1.0  0.24620  0.76342  0.28226  1.0000
  C   C1398     1.0  0.28046  0.78146  0.27442  1.0000
  C   C1399     1.0  0.25721  0.77821  0.25734  1.0000
  H   H2448     1.0  0.41419  0.67282  0.40094  1.0000
  H   H2449     1.0  0.12189  0.92708  0.37593  1.0000
  C   C1400     1.0  0.23062  0.74747  0.28036  1.0000
  C   C1401     1.0  0.27501  0.78516  0.24432  1.0000
  C   C1402     1.0  0.28447  0.77846  0.29006  1.0000
  C   C1403     1.0  0.26869  0.79521  0.29850  1.0000
  S   S316      1.0  0.01920  0.73678  0.33660  1.0000
  C   C1404     1.0  0.21137  0.74576  0.29286  1.0000
  H   H2450     1.0  0.36309  0.92643  0.37582  1.0000
  H   H2451     1.0  0.23568  0.77984  0.28339  1.0000
  H   H2452     1.0  0.25134  0.75692  0.29277  1.0000
  H   H2453     1.0  0.29735  0.77949  0.26783  1.0000
  H   H2454     1.0  0.27367  0.79936  0.27134  1.0000
  H   H2455     1.0  0.24529  0.79353  0.25949  1.0000
  H   H2456     1.0  0.24747  0.76753  0.25373  1.0000
  H   H2457     1.0  0.00905  0.81404  0.40295  1.0000
  C   C1405     1.0  0.13807  0.67688  0.27270  1.0000
  H   H2458     1.0  0.09920  0.96237  0.37458  1.0000
  H   H2459     1.0  0.30272  0.73595  0.28334  1.0000
  H   H2460     1.0  0.22301  0.75342  0.27061  1.0000
  H   H2461     1.0  0.23997  0.73045  0.27991  1.0000
  H   H2462     1.0  0.41117  0.66812  0.35930  1.0000
  H   H2463     1.0  0.28586  0.79591  0.24680  1.0000
  H   H2464     1.0  0.28377  0.76148  0.29602  1.0000
  H   H2465     1.0  0.30181  0.78151  0.28991  1.0000
  H   H2466     1.0  0.25088  0.79352  0.29921  1.0000
  H   H2467     1.0  0.27237  0.79228  0.30948  1.0000
  H   H2468     1.0  0.27124  0.81250  0.29362  1.0000
  Fe  Fe162     1.0  0.01761  0.73502  0.36002  1.0000
  H   H2469     1.0  0.33236  0.90872  0.37436  1.0000
  H   H2470     1.0  0.05081  0.91127  0.43781  1.0000
  H   H2471     1.0  0.20035  0.73429  0.29143  1.0000
  H   H2472     1.0  0.21796  0.73910  0.30296  1.0000
  H   H2473     1.0  0.20106  0.76230  0.29367  1.0000
  H   H2474     1.0  0.41119  0.69648  0.26058  1.0000
  H   H2475     1.0  0.28558  0.69766  0.27483  1.0000
  H   H2476     1.0  0.10320  0.66050  0.35842  1.0000
  S   S317      1.0  0.02717  0.76366  0.36786  1.0000
  S   S318      1.0  0.22714  0.65553  0.25432  1.0000
  H   H2477     1.0  0.34379  0.80779  0.24493  1.0000
  H   H2478     1.0  0.28921  0.72190  0.23377  1.0000
  H   H2479     1.0  0.11199  0.94990  0.41060  1.0000
  H   H2480     1.0  0.44511  0.65722  0.42484  1.0000
  H   H2481     1.0  0.99857  0.96571  0.41064  1.0000
  H   H2482     1.0  0.31395  0.68868  0.24871  1.0000
  H   H2483     1.0  0.03798  0.69323  0.39742  1.0000
  C   C1406     1.0  0.31839  0.85931  0.38905  1.0000
  H   H2484     1.0  0.32552  0.93543  0.42085  1.0000
  S   S319      1.0  0.27012  0.97834  0.36313  1.0000
  H   H2485     1.0  0.45972  0.68197  0.30808  1.0000
  C   C1407     1.0  0.13686  0.69343  0.24787  1.0000
  H   H2486     1.0  0.47484  0.77078  0.38680  1.0000
  S   S320      1.0  0.99059  0.66260  0.38451  1.0000
  C   C1408     1.0  0.37573  0.97678  0.35187  1.0000
  H   H2487     1.0  0.33073  0.91547  0.43640  1.0000
  C   C1409     1.0  0.35789  0.97991  0.40469  1.0000
  Fe  Fe163     1.0  0.31852  0.96829  0.38555  1.0000
  C   C1410     1.0  0.29439  0.85407  0.39219  1.0000
  N   N75       1.0  0.40023  0.69321  0.38292  1.0000
  C   C1411     1.0  0.38027  0.69393  0.37581  1.0000
  H   H2488     1.0  0.38749  0.73289  0.23982  1.0000
  C   C1412     1.0  0.40075  0.71660  0.38517  1.0000
  C   C1413     1.0  0.42215  0.68563  0.37391  1.0000
  H   H2489     1.0  0.11986  0.92813  0.43386  1.0000
  C   C1414     1.0  0.37974  0.70966  0.36135  1.0000
  C   C1415     1.0  0.41920  0.71908  0.39345  1.0000
  H   H2490     1.0  0.27289  0.65077  0.33959  1.0000
  C   C1416     1.0  0.09701  0.96234  0.38621  1.0000
  C   C1417     1.0  0.36061  0.70655  0.35426  1.0000
  C   C1418     1.0  0.41712  0.74303  0.39599  1.0000
  H   H2491     1.0  0.36451  0.69920  0.38294  1.0000
  H   H2492     1.0  0.37897  0.67707  0.37401  1.0000
  H   H2493     1.0  0.25266  0.81343  0.23493  1.0000
  H   H2494     1.0  0.40107  0.83927  0.39835  1.0000
  H   H2495     1.0  0.38417  0.72362  0.39078  1.0000
  H   H2496     1.0  0.40364  0.72789  0.37485  1.0000
  H   H2497     1.0  0.42674  0.69934  0.36524  1.0000
  H   H2498     1.0  0.48501  0.82353  0.39242  1.0000
  H   H2499     1.0  0.14332  0.95378  0.38219  1.0000
  H   H2500     1.0  0.05173  0.89611  0.40193  1.0000
  H   H2501     1.0  0.37699  0.72737  0.36277  1.0000
  H   H2502     1.0  0.39563  0.70640  0.35399  1.0000
  H   H2503     1.0  0.43612  0.71468  0.38735  1.0000
  H   H2504     1.0  0.41814  0.70824  0.40396  1.0000
  H   H2505     1.0  0.12946  0.95749  0.44705  1.0000
  H   H2506     1.0  0.41613  0.71907  0.23660  1.0000
  H   H2507     1.0  0.20034  0.97029  0.45055  1.0000
  H   H2508     1.0  0.33674  0.65052  0.24821  1.0000
  H   H2509     1.0  0.34420  0.70991  0.36119  1.0000
  H   H2510     1.0  0.15779  0.94244  0.44614  1.0000
  H   H2511     1.0  0.36302  0.68939  0.35183  1.0000
  H   H2512     1.0  0.40098  0.74779  0.40284  1.0000
  H   H2513     1.0  0.43111  0.74455  0.40131  1.0000
  H   H2514     1.0  0.41808  0.75472  0.38579  1.0000
  N   N76       1.0  0.10004  0.93869  0.39401  1.0000
  C   C1419     1.0  0.12220  0.92701  0.38735  1.0000
  C   C1420     1.0  0.08075  0.92779  0.39224  1.0000
  H   H2515     1.0  0.99670  0.85877  0.35591  1.0000
  C   C1421     1.0  0.09969  0.93950  0.40942  1.0000
  C   C1422     1.0  0.10341  0.91678  0.41921  1.0000
  N   N77       1.0  0.29572  0.67280  0.23749  1.0000
  C   C1423     1.0  0.33325  0.90086  0.41747  1.0000
  C   C1424     1.0  0.08534  0.90237  0.39192  1.0000
  H   H2516     1.0  0.35385  0.92242  0.42279  1.0000
  C   C1425     1.0  0.29229  0.65164  0.24774  1.0000
  C   C1426     1.0  0.16473  0.92255  0.38186  1.0000
  H   H2517     1.0  0.38655  0.69091  0.28471  1.0000
  H   H2518     1.0  0.24835  0.73034  0.24407  1.0000
  H   H2519     1.0  0.12506  0.90921  0.39215  1.0000
  H   H2520     1.0  0.22719  0.66393  0.22428  1.0000
  H   H2521     1.0  0.10367  0.65573  0.31710  1.0000
  H   H2522     1.0  0.36024  0.71840  0.34415  1.0000
  H   H2523     1.0  0.17965  0.92986  0.38251  1.0000
  C   C1427     1.0  0.00409  0.80048  0.39932  1.0000
  H   H2524     1.0  0.08324  0.94813  0.41398  1.0000
  H   H2525     1.0  0.11901  0.90623  0.41520  1.0000
  H   H2526     1.0  0.08890  0.90793  0.42022  1.0000
  C   C1428     1.0  0.42339  0.66507  0.36676  1.0000
  Fe  Fe164     1.0  0.00134  0.69016  0.36697  1.0000
  C   C1429     1.0  0.14346  0.93664  0.38822  1.0000
  H   H2527     1.0  0.14221  0.66495  0.30944  1.0000
  H   H2528     1.0  0.09679  0.89890  0.38204  1.0000
  H   H2529     1.0  0.09312  0.89281  0.40104  1.0000
  H   H2530     1.0  0.38208  0.90092  0.37815  1.0000
  S   S321      1.0  0.20651  0.65933  0.31826  1.0000
  S   S322      1.0  0.02195  0.88678  0.42904  1.0000
  H   H2531     1.0  0.46563  0.79392  0.39598  1.0000
  C   C1430     1.0  0.48608  0.96987  0.46652  1.0000
  S   S323      1.0  0.47249  0.95424  0.43626  1.0000
  H   H2532     1.0  0.01177  0.67059  0.41046  1.0000
  H   H2533     1.0  0.16449  0.92216  0.37053  1.0000
  H   H2534     1.0  0.16638  0.90528  0.38780  1.0000
  H   H2535     1.0  0.28926  0.84881  0.40374  1.0000
  H   H2536     1.0  0.35417  0.85796  0.40728  1.0000
  C   C1431     1.0  0.01187  0.67715  0.42033  1.0000
  H   H2537     1.0  0.38896  0.96567  0.34600  1.0000
  C   C1432     1.0  0.02289  0.91562  0.42659  1.0000
  N   N78       1.0  0.41054  0.72801  0.27881  1.0000
  C   C1433     1.0  0.42968  0.70921  0.28078  1.0000
  C   C1434     1.0  0.41800  0.74891  0.28102  1.0000
  C   C1435     1.0  0.38947  0.72410  0.28919  1.0000
  C   C1436     1.0  0.38479  0.69970  0.29380  1.0000
  C   C1437     1.0  0.43872  0.70605  0.29502  1.0000
  C   C1438     1.0  0.40166  0.77095  0.27822  1.0000
  C   C1439     1.0  0.36115  0.69880  0.30212  1.0000
  C   C1440     1.0  0.33823  0.66384  0.23882  1.0000
  C   C1441     1.0  0.41074  0.79039  0.28160  1.0000
  H   H2538     1.0  0.44412  0.71182  0.27210  1.0000
  H   H2539     1.0  0.42505  0.69314  0.27984  1.0000
  H   H2540     1.0  0.39220  0.74556  0.26197  1.0000
  H   H2541     1.0  0.43448  0.75124  0.27426  1.0000
  H   H2542     1.0  0.42066  0.74742  0.29219  1.0000
  H   H2543     1.0  0.38946  0.73026  0.29919  1.0000
  H   H2544     1.0  0.37469  0.73421  0.28491  1.0000
  H   H2545     1.0  0.39670  0.69010  0.30081  1.0000
  H   H2546     1.0  0.44946  0.71889  0.29457  1.0000
  H   H2547     1.0  0.42489  0.70775  0.30408  1.0000
  H   H2548     1.0  0.38502  0.76966  0.28488  1.0000
  H   H2549     1.0  0.39943  0.77538  0.26693  1.0000
  H   H2550     1.0  0.35809  0.68125  0.30508  1.0000
  H   H2551     1.0  0.35923  0.70586  0.31203  1.0000
  H   H2552     1.0  0.34834  0.70823  0.29566  1.0000
  C   C1442     1.0  0.14694  0.95719  0.44131  1.0000
  H   H2553     1.0  0.27553  0.86219  0.22182  1.0000
  C   C1443     1.0  0.35846  0.67473  0.23919  1.0000
  C   C1444     1.0  0.99236  0.88216  0.37011  1.0000
  H   H2554     1.0  0.39836  0.80579  0.28003  1.0000
  H   H2555     1.0  0.41370  0.78717  0.29276  1.0000
  H   H2556     1.0  0.99531  0.92546  0.41490  1.0000
  C   C1445     1.0  0.45303  0.68330  0.29807  1.0000
  H   H2557     1.0  0.31520  0.89910  0.42000  1.0000
  C   C1446     1.0  0.05341  0.72264  0.39387  1.0000
  H   H2558     1.0  0.38761  0.68863  0.40553  1.0000
  H   H2559     1.0  0.45562  0.83139  0.37824  1.0000
  C   C1447     1.0  0.11860  0.64807  0.35910  1.0000
  H   H2560     1.0  0.38223  0.70959  0.26376  1.0000
  C   C1448     1.0  0.25396  0.72831  0.23281  1.0000
  H   H2561     1.0  0.04884  0.74077  0.39420  1.0000
  H   H2562     1.0  0.06560  0.71524  0.40120  1.0000
  N   N79       1.0  0.34265  0.88729  0.39299  1.0000
  C   C1449     1.0  0.34723  0.89682  0.37745  1.0000
  C   C1450     1.0  0.32025  0.87907  0.39615  1.0000
  C   C1451     1.0  0.34065  0.90618  0.40118  1.0000
  C   C1452     1.0  0.36104  0.86906  0.39763  1.0000
  C   C1453     1.0  0.37377  0.85423  0.38651  1.0000
  C   C1454     1.0  0.36770  0.90955  0.37286  1.0000
  H   H2563     1.0  0.13803  0.66845  0.34207  1.0000
  H   H2564     1.0  0.12029  0.65575  0.26415  1.0000
  H   H2565     1.0  0.42605  0.83651  0.36324  1.0000
  H   H2566     1.0  0.30459  0.66076  0.26560  1.0000
  H   H2567     1.0  0.10422  0.66728  0.27923  1.0000
  H   H2568     1.0  0.48836  0.74877  0.42294  1.0000
  H   H2569     1.0  0.17274  0.97771  0.43550  1.0000
  H   H2570     1.0  0.02994  0.67522  0.42130  1.0000
  H   H2571     1.0  0.11002  0.97155  0.38780  1.0000
  H   H2572     1.0  0.06158  0.72054  0.38291  1.0000
  H   H2573     1.0  0.44184  0.81517  0.35353  1.0000
  C   C1455     1.0  0.13859  0.66051  0.35327  1.0000
  C   C1456     1.0  0.37990  0.97681  0.40754  1.0000
  H   H2574     1.0  0.39317  0.70355  0.23917  1.0000
  H   H2575     1.0  0.01273  0.73345  0.41112  1.0000
  H   H2576     1.0  0.99165  0.81561  0.36403  1.0000
  C   C1457     1.0  0.99140  0.70766  0.43345  1.0000
  H   H2577     1.0  0.45075  0.67368  0.34981  1.0000
  H   H2578     1.0  0.16579  0.96645  0.46239  1.0000
  H   H2579     1.0  0.32025  0.69513  0.23020  1.0000
  H   H2580     1.0  0.21856  0.97343  0.38705  1.0000
  C   C1458     1.0  0.20734  0.65234  0.24420  1.0000
  H   H2581     1.0  0.37636  0.65451  0.42239  1.0000
  H   H2582     1.0  0.37057  0.96758  0.36263  1.0000
  C   C1459     1.0  0.27665  0.71335  0.23096  1.0000
  H   H2583     1.0  0.17886  0.96818  0.38922  1.0000
  H   H2584     1.0  0.27462  0.66258  0.26766  1.0000
  H   H2585     1.0  0.46638  0.65825  0.39341  1.0000
  C   C1460     1.0  0.15561  0.97859  0.44175  1.0000
  C   C1461     1.0  0.47887  0.80582  0.36755  1.0000
  H   H2586     1.0  0.44280  0.66978  0.29933  1.0000
  C   C1462     1.0  0.00175  0.66070  0.43305  1.0000
  C   C1463     1.0  0.29090  0.65289  0.26367  1.0000
  H   H2587     1.0  0.03386  0.64838  0.35961  1.0000
  H   H2588     1.0  0.15463  0.64897  0.35385  1.0000
  S   S324      1.0  0.18464  0.64969  0.29166  1.0000
  H   H2589     1.0  0.99120  0.74421  0.42922  1.0000
  H   H2590     1.0  0.46758  0.97103  0.46916  1.0000
  H   H2591     1.0  0.42026  0.65022  0.37467  1.0000
  H   H2592     1.0  0.26764  0.65254  0.22564  1.0000
  H   H2593     1.0  0.48694  0.81738  0.35865  1.0000
  C   C1464     1.0  0.29840  0.66788  0.22261  1.0000
  H   H2594     1.0  0.00541  0.66414  0.44310  1.0000
  N   N80       1.0  0.00126  0.70145  0.41903  1.0000
  H   H2595     1.0  0.00481  0.70452  0.44017  1.0000
  C   C1465     1.0  0.44673  0.65949  0.35826  1.0000
  H   H2596     1.0  0.45966  0.65554  0.36531  1.0000
  H   H2597     1.0  0.16315  0.75287  0.63078  1.0000
  C   C1466     1.0  0.12631  0.96449  0.63511  1.0000
  H   H2598     1.0  0.43044  0.69979  0.63474  1.0000
  H   H2599     1.0  0.12787  0.71625  0.69642  1.0000
  C   C1467     1.0  0.17244  0.86134  0.71555  1.0000
  C   C1468     1.0  0.19282  0.67671  0.66136  1.0000
  Fe  Fe165     1.0  0.22570  0.94718  0.63073  1.0000
  S   S325      1.0  0.22936  0.91004  0.63945  1.0000
  S   S326      1.0  0.24487  0.95738  0.60910  1.0000
  H   H2600     1.0  0.20040  0.69080  0.65448  1.0000
  C   C1469     1.0  0.46222  0.94442  0.52150  1.0000
  H   H2601     1.0  0.46090  0.72594  0.55956  1.0000
  H   H2602     1.0  0.18794  0.87632  0.67994  1.0000
  S   S327      1.0  0.99804  0.74322  0.58945  1.0000
  C   C1470     1.0  0.02741  0.97731  0.47321  1.0000
  C   C1471     1.0  0.00735  0.95799  0.56260  1.0000
  Fe  Fe166     1.0  0.15461  0.81430  0.66560  1.0000
  S   S328      1.0  0.16270  0.79170  0.64931  1.0000
  S   S329      1.0  0.15033  0.85215  0.66092  1.0000
  Fe  Fe167     1.0  0.14664  0.77632  0.68983  1.0000
  S   S330      1.0  0.15379  0.75057  0.67548  1.0000
  C   C1472     1.0  0.39561  0.66820  0.66747  1.0000
  Fe  Fe168     1.0  0.18246  0.76839  0.66473  1.0000
  S   S331      1.0  0.21539  0.74895  0.65628  1.0000
  Fe  Fe169     1.0  0.13318  0.77515  0.66099  1.0000
  S   S332      1.0  0.11356  0.76639  0.64549  1.0000
  S   S333      1.0  0.17710  0.79239  0.68012  1.0000
  S   S334      1.0  0.12347  0.79965  0.67628  1.0000
  Fe  Fe170     1.0  0.01435  0.66604  0.61845  1.0000
  C   C1473     1.0  0.22561  0.74453  0.71043  1.0000
  H   H2603     1.0  0.40254  0.96207  0.50175  1.0000
  S   S335      1.0  0.13594  0.76601  0.71343  1.0000
  Fe  Fe171     1.0  0.01673  0.70075  0.63668  1.0000
  S   S336      1.0  0.03376  0.70953  0.65343  1.0000
  S   S337      1.0  0.47597  0.69870  0.61466  1.0000
  S   S338      1.0  0.03199  0.69615  0.61437  1.0000
  C   C1474     1.0  0.00294  0.83069  0.60965  1.0000
  C   C1475     1.0  0.43052  0.68203  0.65601  1.0000
  H   H2604     1.0  0.18426  0.74035  0.61791  1.0000
  H   H2605     1.0  0.01352  0.75106  0.63673  1.0000
  C   C1476     1.0  0.09150  0.75031  0.64806  1.0000
  C   C1477     1.0  0.08628  0.74355  0.63622  1.0000
  C   C1478     1.0  0.06883  0.73089  0.63768  1.0000
  C   C1479     1.0  0.05613  0.72517  0.65098  1.0000
  C   C1480     1.0  0.06142  0.73184  0.66282  1.0000
  C   C1481     1.0  0.07895  0.74438  0.66139  1.0000
  H   H2606     1.0  0.09592  0.74799  0.62586  1.0000
  H   H2607     1.0  0.06534  0.72536  0.62856  1.0000
  H   H2608     1.0  0.05175  0.72742  0.67318  1.0000
  H   H2609     1.0  0.08257  0.74966  0.67057  1.0000
  C   C1482     1.0  0.24388  0.68709  0.68497  1.0000
  C   C1483     1.0  0.25227  0.69080  0.67049  1.0000
  C   C1484     1.0  0.24261  0.70927  0.66162  1.0000
  C   C1485     1.0  0.22478  0.72429  0.66723  1.0000
  C   C1486     1.0  0.21560  0.71998  0.68157  1.0000
  C   C1487     1.0  0.22510  0.70135  0.69041  1.0000
  H   H2610     1.0  0.26631  0.67952  0.66615  1.0000
  H   H2611     1.0  0.24927  0.71219  0.65043  1.0000
  H   H2612     1.0  0.20156  0.73131  0.68591  1.0000
  H   H2613     1.0  0.21822  0.69827  0.70156  1.0000
  C   C1488     1.0  0.38580  0.67757  0.65544  1.0000
  H   H2614     1.0  0.40805  0.64890  0.61577  1.0000
  H   H2615     1.0  0.01718  0.95561  0.59803  1.0000
  C   C1489     1.0  0.48695  0.96010  0.58117  1.0000
  H   H2616     1.0  0.15610  0.90514  0.68455  1.0000
  H   H2617     1.0  0.18942  0.67994  0.67244  1.0000
  N   N81       1.0  0.45701  0.96962  0.51919  1.0000
  H   H2618     1.0  0.29991  0.70260  0.70422  1.0000
  C   C1490     1.0  0.17262  0.86782  0.65515  1.0000
  C   C1491     1.0  0.16780  0.89115  0.65356  1.0000
  C   C1492     1.0  0.18498  0.90431  0.64861  1.0000
  C   C1493     1.0  0.20717  0.89422  0.64539  1.0000
  C   C1494     1.0  0.21205  0.87085  0.64731  1.0000
  C   C1495     1.0  0.19484  0.85768  0.65211  1.0000
  H   H2619     1.0  0.15068  0.89907  0.65610  1.0000
  H   H2620     1.0  0.18122  0.92223  0.64759  1.0000
  H   H2621     1.0  0.22922  0.86293  0.64494  1.0000
  H   H2622     1.0  0.19875  0.83972  0.65336  1.0000
  Fe  Fe172     1.0  0.33787  0.65340  0.67179  1.0000
  H   H2623     1.0  0.24003  0.71097  0.71769  1.0000
  C   C1496     1.0  0.39854  0.68878  0.64360  1.0000
  C   C1497     1.0  0.14814  0.86339  0.69737  1.0000
  C   C1498     1.0  0.10185  0.66754  0.65062  1.0000
  H   H2624     1.0  0.48095  0.73727  0.52477  1.0000
  H   H2625     1.0  0.03928  0.95179  0.49787  1.0000
  H   H2626     1.0  0.01328  0.92275  0.57026  1.0000
  C   C1499     1.0  0.48094  0.90779  0.53405  1.0000
  H   H2627     1.0  0.17151  0.71883  0.65655  1.0000
  H   H2628     1.0  0.28961  0.97433  0.66090  1.0000
  H   H2629     1.0  0.16228  0.90640  0.70163  1.0000
  H   H2630     1.0  0.19780  0.92038  0.69056  1.0000
  H   H2631     1.0  0.18406  0.70347  0.63298  1.0000
  H   H2632     1.0  0.10284  0.85827  0.70661  1.0000
  H   H2633     1.0  0.42157  0.96847  0.52045  1.0000
  S   S339      1.0  0.03436  0.96177  0.56424  1.0000
  H   H2634     1.0  0.22415  0.91749  0.60800  1.0000
  H   H2635     1.0  0.00254  0.80180  0.60043  1.0000
  C   C1500     1.0  0.99855  0.84811  0.59665  1.0000
  H   H2636     1.0  0.13806  0.96057  0.58687  1.0000
  C   C1501     1.0  0.04660  0.66109  0.49186  1.0000
  H   H2637     1.0  0.10440  0.83280  0.69985  1.0000
  H   H2638     1.0  0.13716  0.87558  0.70370  1.0000
  H   H2639     1.0  0.00192  0.83697  0.54790  1.0000
  H   H2640     1.0  0.03523  0.96872  0.53385  1.0000
  H   H2641     1.0  0.08451  0.92295  0.53185  1.0000
  H   H2642     1.0  0.14248  0.67645  0.67949  1.0000
  H   H2643     1.0  0.46628  0.66312  0.59572  1.0000
  H   H2644     1.0  0.28444  0.73031  0.70187  1.0000
  H   H2645     1.0  0.48687  0.69172  0.58043  1.0000
  H   H2646     1.0  0.48598  0.74628  0.54778  1.0000
  C   C1502     1.0  0.17106  0.67371  0.65645  1.0000
  C   C1503     1.0  0.13675  0.84219  0.69968  1.0000
  H   H2647     1.0  0.08881  0.68184  0.65314  1.0000
  H   H2648     1.0  0.44118  0.66568  0.70533  1.0000
  C   C1504     1.0  0.32556  0.95793  0.64506  1.0000
  H   H2649     1.0  0.09857  0.71987  0.69512  1.0000
  C   C1505     1.0  0.00123  0.93667  0.56658  1.0000
  H   H2650     1.0  0.21002  0.74091  0.70773  1.0000
  H   H2651     1.0  0.46536  0.90019  0.53610  1.0000
  H   H2652     1.0  0.17447  0.93738  0.68308  1.0000
  C   C1506     1.0  0.47343  0.67407  0.69434  1.0000
  Fe  Fe173     1.0  0.48243  0.69459  0.63704  1.0000
  H   H2653     1.0  0.10985  0.85780  0.68769  1.0000
  H   H2654     1.0  0.03901  0.67338  0.49901  1.0000
  C   C1507     1.0  0.43668  0.97529  0.55869  1.0000
  C   C1508     1.0  0.13948  0.94318  0.61443  1.0000
  H   H2655     1.0  0.14002  0.68711  0.63935  1.0000
  S   S340      1.0  0.35762  0.67600  0.65483  1.0000
  H   H2656     1.0  0.99420  0.77391  0.53785  1.0000
  H   H2657     1.0  0.47503  0.75649  0.67169  1.0000
  C   C1509     1.0  0.00041  0.83206  0.53777  1.0000
  H   H2658     1.0  0.99687  0.96093  0.61346  1.0000
  H   H2659     1.0  0.31479  0.95241  0.63883  1.0000
  C   C1510     1.0  0.45426  0.97914  0.53266  1.0000
  H   H2660     1.0  0.99218  0.80471  0.52135  1.0000
  H   H2661     1.0  0.44649  0.93693  0.52370  1.0000
  H   H2662     1.0  0.22060  0.81343  0.68082  1.0000
  H   H2663     1.0  0.39105  0.69608  0.63425  1.0000
  Fe  Fe174     1.0  0.29165  0.64810  0.68865  1.0000
  H   H2664     1.0  0.13476  0.65245  0.65487  1.0000
  H   H2665     1.0  0.01797  0.75923  0.61162  1.0000
  C   C1511     1.0  0.00308  0.78648  0.62836  1.0000
  H   H2666     1.0  0.43101  0.72677  0.58015  1.0000
  H   H2667     1.0  0.14473  0.83176  0.69146  1.0000
  H   H2668     1.0  0.46719  0.64950  0.63902  1.0000
  H   H2669     1.0  0.15602  0.69977  0.67795  1.0000
  C   C1512     1.0  0.00611  0.96888  0.60338  1.0000
  S   S341      1.0  0.19448  0.97042  0.62618  1.0000
  H   H2670     1.0  0.26721  0.80050  0.63581  1.0000
  H   H2671     1.0  0.42516  0.66379  0.67727  1.0000
  H   H2672     1.0  0.18995  0.86042  0.71734  1.0000
  H   H2673     1.0  0.11371  0.69220  0.69905  1.0000
  H   H2674     1.0  0.01567  0.82037  0.53449  1.0000
  C   C1513     1.0  0.21043  0.65589  0.66070  1.0000
  H   H2675     1.0  0.18392  0.83873  0.68460  1.0000
  H   H2676     1.0  0.12162  0.94350  0.61347  1.0000
  C   C1514     1.0  0.12268  0.66752  0.65708  1.0000
  C   C1515     1.0  0.46566  0.71959  0.57019  1.0000
  H   H2677     1.0  0.24261  0.78784  0.64417  1.0000
  N   N82       1.0  0.17198  0.86029  0.70024  1.0000
  C   C1516     1.0  0.99178  0.97586  0.55774  1.0000
  C   C1517     1.0  0.16944  0.71656  0.63488  1.0000
  C   C1518     1.0  0.43566  0.97209  0.49820  1.0000
  H   H2678     1.0  0.14407  0.95940  0.60855  1.0000
  H   H2679     1.0  0.17551  0.67047  0.64533  1.0000
  H   H2680     1.0  0.47112  0.73425  0.66330  1.0000
  H   H2681     1.0  0.45096  0.96283  0.56198  1.0000
  C   C1519     1.0  0.05524  0.94203  0.52345  1.0000
  H   H2682     1.0  0.13776  0.86135  0.62985  1.0000
  H   H2683     1.0  0.23909  0.80856  0.69378  1.0000
  C   C1520     1.0  0.25670  0.79526  0.64610  1.0000
  H   H2684     1.0  0.37060  0.66806  0.62412  1.0000
  H   H2685     1.0  0.23855  0.74519  0.70076  1.0000
  H   H2686     1.0  0.36937  0.97184  0.57841  1.0000
  H   H2687     1.0  0.00757  0.94723  0.53234  1.0000
  S   S342      1.0  0.23884  0.97143  0.64040  1.0000
  N   N83       1.0  0.15183  0.69257  0.65779  1.0000
  H   H2688     1.0  0.04016  0.66670  0.48164  1.0000
  H   H2689     1.0  0.21172  0.83154  0.70899  1.0000
  H   H2690     1.0  0.46518  0.93545  0.54424  1.0000
  H   H2691     1.0  0.13375  0.97936  0.62928  1.0000
  H   H2692     1.0  0.17718  0.82422  0.70197  1.0000
  S   S343      1.0  0.32164  0.65936  0.69373  1.0000
  C   C1521     1.0  0.01489  0.97620  0.48844  1.0000
  H   H2693     1.0  0.14744  0.87075  0.68607  1.0000
  H   H2694     1.0  0.12662  0.94128  0.56995  1.0000
  C   C1522     1.0  0.42088  0.69085  0.64383  1.0000
  S   S344      1.0  0.45800  0.68560  0.65707  1.0000
  H   H2695     1.0  0.05341  0.97742  0.51813  1.0000
  C   C1523     1.0  0.07466  0.93990  0.53162  1.0000
  H   H2696     1.0  0.16387  0.87772  0.71826  1.0000
  H   H2697     1.0  0.44418  0.95501  0.49694  1.0000
  N   N84       1.0  0.02296  0.79037  0.61689  1.0000
  C   C1524     1.0  0.01469  0.80810  0.60526  1.0000
  C   C1525     1.0  0.03190  0.76878  0.61122  1.0000
  H   H2698     1.0  0.22576  0.65855  0.66423  1.0000
  C   C1526     1.0  0.04035  0.79733  0.62351  1.0000
  C   C1527     1.0  0.06173  0.80371  0.61350  1.0000
  H   H2699     1.0  0.01330  0.83731  0.61555  1.0000
  H   H2700     1.0  0.47846  0.68756  0.56472  1.0000
  C   C1528     1.0  0.04419  0.77048  0.59564  1.0000
  C   C1529     1.0  0.05720  0.74802  0.59251  1.0000
  C   C1530     1.0  0.07625  0.81319  0.62131  1.0000
  H   H2701     1.0  0.44094  0.65143  0.58230  1.0000
  C   C1531     1.0  0.15922  0.71457  0.65083  1.0000
  C   C1532     1.0  0.14017  0.94337  0.63027  1.0000
  H   H2702     1.0  0.02845  0.81179  0.59644  1.0000
  H   H2703     1.0  0.04325  0.75782  0.61816  1.0000
  H   H2704     1.0  0.08596  0.95226  0.52646  1.0000
  S   S345      1.0  0.25692  0.66531  0.69655  1.0000
  H   H2705     1.0  0.10872  0.96622  0.63330  1.0000
  H   H2706     1.0  0.03276  0.81129  0.62941  1.0000
  H   H2707     1.0  0.04656  0.78357  0.63165  1.0000
  H   H2708     1.0  0.05779  0.81644  0.60429  1.0000
  H   H2709     1.0  0.07205  0.78863  0.60981  1.0000
  H   H2710     1.0  0.43002  0.95660  0.54395  1.0000
  C   C1533     1.0  0.12068  0.70818  0.67701  1.0000
  C   C1534     1.0  0.48491  0.69971  0.56936  1.0000
  H   H2711     1.0  0.43904  0.69889  0.57611  1.0000
  H   H2712     1.0  0.03170  0.77598  0.58829  1.0000
  H   H2713     1.0  0.05614  0.78255  0.59301  1.0000
  H   H2714     1.0  0.04566  0.73557  0.59420  1.0000
  H   H2715     1.0  0.06553  0.74974  0.58127  1.0000
  H   H2716     1.0  0.07023  0.74194  0.59943  1.0000
  H   H2717     1.0  0.08077  0.80105  0.63070  1.0000
  H   H2718     1.0  0.09199  0.81671  0.61415  1.0000
  H   H2719     1.0  0.06725  0.82893  0.62484  1.0000
  H   H2720     1.0  0.10611  0.66861  0.63893  1.0000
  C   C1535     1.0  0.41783  0.67063  0.66780  1.0000
  H   H2721     1.0  0.17781  0.78313  0.71174  1.0000
  H   H2722     1.0  0.14482  0.72820  0.65162  1.0000
  H   H2723     1.0  0.06508  0.66059  0.48996  1.0000
  H   H2724     1.0  0.10685  0.70162  0.67409  1.0000
  N   N85       1.0  0.29775  0.74085  0.65704  1.0000
  C   C1536     1.0  0.30190  0.71950  0.65097  1.0000
  C   C1537     1.0  0.28798  0.73624  0.67258  1.0000
  C   C1538     1.0  0.28017  0.75684  0.64969  1.0000
  C   C1539     1.0  0.31868  0.75158  0.65488  1.0000
  C   C1540     1.0  0.34151  0.73578  0.65466  1.0000
  C   C1541     1.0  0.30668  0.72216  0.63456  1.0000
  C   C1542     1.0  0.27069  0.77854  0.65595  1.0000
  C   C1543     1.0  0.30221  0.71896  0.68226  1.0000
  C   C1544     1.0  0.28927  0.71466  0.69733  1.0000
  C   C1545     1.0  0.36064  0.74829  0.65491  1.0000
  C   C1546     1.0  0.31531  0.69978  0.62953  1.0000
  H   H2725     1.0  0.15746  0.94291  0.63208  1.0000
  H   H2726     1.0  0.28721  0.71064  0.65451  1.0000
  H   H2727     1.0  0.31572  0.70750  0.65519  1.0000
  H   H2728     1.0  0.28489  0.75166  0.67735  1.0000
  H   H2729     1.0  0.27130  0.73073  0.67380  1.0000
  H   H2730     1.0  0.26557  0.74844  0.64971  1.0000
  H   H2731     1.0  0.28695  0.76208  0.63833  1.0000
  H   H2732     1.0  0.32033  0.76323  0.64461  1.0000
  H   H2733     1.0  0.31733  0.76220  0.66311  1.0000
  H   H2734     1.0  0.34573  0.72820  0.64486  1.0000
  H   H2735     1.0  0.34136  0.72199  0.66374  1.0000
  H   H2736     1.0  0.29095  0.72912  0.63019  1.0000
  H   H2737     1.0  0.31915  0.73357  0.63000  1.0000
  H   H2738     1.0  0.28440  0.78660  0.65773  1.0000
  H   H2739     1.0  0.25940  0.77481  0.66619  1.0000
  H   H2740     1.0  0.30678  0.70285  0.67832  1.0000
  H   H2741     1.0  0.31758  0.72533  0.68303  1.0000
  H   H2742     1.0  0.01682  0.97994  0.60571  1.0000
  H   H2743     1.0  0.47167  0.93857  0.51162  1.0000
  C   C1547     1.0  0.17735  0.73911  0.62937  1.0000
  H   H2744     1.0  0.35788  0.75538  0.66486  1.0000
  H   H2745     1.0  0.37669  0.73658  0.65441  1.0000
  H   H2746     1.0  0.36210  0.76187  0.64565  1.0000
  H   H2747     1.0  0.31678  0.70200  0.61782  1.0000
  H   H2748     1.0  0.33212  0.69300  0.63240  1.0000
  C   C1548     1.0  0.16984  0.90293  0.69087  1.0000
  C   C1549     1.0  0.04131  0.96570  0.52275  1.0000
  C   C1550     1.0  0.11496  0.70910  0.69288  1.0000
  H   H2749     1.0  0.01357  0.93718  0.51593  1.0000
  N   N86       1.0  0.02192  0.97020  0.51458  1.0000
  C   C1551     1.0  0.14363  0.69345  0.67335  1.0000
  C   C1552     1.0  0.18340  0.87908  0.69118  1.0000
  H   H2750     1.0  0.04477  0.92909  0.52887  1.0000
  H   H2751     1.0  0.19315  0.91771  0.67323  1.0000
  H   H2752     1.0  0.02813  0.65071  0.58577  1.0000
  C   C1553     1.0  0.20995  0.83361  0.69766  1.0000
  C   C1554     1.0  0.18478  0.92061  0.68401  1.0000
  H   H2753     1.0  0.12008  0.70355  0.65016  1.0000
  H   H2754     1.0  0.22007  0.93427  0.59098  1.0000
  C   C1555     1.0  0.22125  0.81201  0.69229  1.0000
  H   H2755     1.0  0.19069  0.74109  0.63507  1.0000
  C   C1556     1.0  0.03146  0.96907  0.49920  1.0000
  C   C1557     1.0  0.48356  0.74113  0.66750  1.0000
  H   H2756     1.0  0.47625  0.65964  0.68868  1.0000
  H   H2757     1.0  0.04543  0.97906  0.49555  1.0000
  H   H2758     1.0  0.01458  0.85180  0.58991  1.0000
  H   H2759     1.0  0.19953  0.87948  0.69467  1.0000
  C   C1558     1.0  0.44473  0.71237  0.57994  1.0000
  H   H2760     1.0  0.11749  0.66604  0.66870  1.0000
  H   H2761     1.0  0.15677  0.71533  0.62845  1.0000
  C   C1559     1.0  0.37248  0.65482  0.61755  1.0000
  H   H2762     1.0  0.21935  0.84697  0.69151  1.0000
  H   H2763     1.0  0.13225  0.90396  0.62315  1.0000
  H   H2764     1.0  0.06267  0.93837  0.51270  1.0000
  H   H2765     1.0  0.27395  0.70753  0.69736  1.0000
  H   H2766     1.0  0.21505  0.65227  0.64969  1.0000
  H   H2767     1.0  0.14557  0.96057  0.56130  1.0000
  H   H2768     1.0  0.44819  0.70639  0.59093  1.0000
  H   H2769     1.0  0.36444  0.96660  0.56175  1.0000
  H   H2770     1.0  0.45298  0.68314  0.71387  1.0000
  H   H2771     1.0  0.09043  0.97745  0.49964  1.0000
  H   H2772     1.0  0.21288  0.79781  0.69828  1.0000
  H   H2773     1.0  0.15583  0.93114  0.56391  1.0000
  C   C1560     1.0  0.47531  0.93293  0.53381  1.0000
  H   H2774     1.0  0.23229  0.90535  0.59208  1.0000
  H   H2775     1.0  0.47797  0.97227  0.49854  1.0000
  C   C1561     1.0  0.18486  0.83878  0.69593  1.0000
  H   H2776     1.0  0.30364  0.68762  0.63436  1.0000
  C   C1562     1.0  0.43349  0.97361  0.54380  1.0000
  H   H2777     1.0  0.32410  0.94800  0.65588  1.0000
  H   H2778     1.0  0.48066  0.95288  0.59189  1.0000
  H   H2779     1.0  0.13333  0.92893  0.63721  1.0000
  N   N87       1.0  0.15425  0.92414  0.60796  1.0000
  C   C1563     1.0  0.14773  0.92470  0.59369  1.0000
  C   C1564     1.0  0.14996  0.90254  0.61763  1.0000
  C   C1565     1.0  0.45700  0.66886  0.70798  1.0000
  C   C1566     1.0  0.17832  0.92752  0.60671  1.0000
  C   C1567     1.0  0.19638  0.91077  0.59934  1.0000
  C   C1568     1.0  0.14989  0.94648  0.58295  1.0000
  H   H2780     1.0  0.12077  0.72544  0.67132  1.0000
  C   C1569     1.0  0.15329  0.88129  0.61071  1.0000
  C   C1570     1.0  0.15334  0.86028  0.62191  1.0000
  C   C1571     1.0  0.21960  0.91747  0.59749  1.0000
  C   C1572     1.0  0.14411  0.94462  0.56867  1.0000
  H   H2781     1.0  0.06826  0.94254  0.54271  1.0000
  H   H2782     1.0  0.12998  0.92184  0.59515  1.0000
  H   H2783     1.0  0.15772  0.91099  0.58834  1.0000
  H   H2784     1.0  0.16044  0.89903  0.62618  1.0000
  H   H2785     1.0  0.99931  0.84729  0.52961  1.0000
  C   C1573     1.0  0.00708  0.95249  0.52075  1.0000
  H   H2786     1.0  0.24954  0.81026  0.65107  1.0000
  H   H2787     1.0  0.18070  0.94466  0.60126  1.0000
  H   H2788     1.0  0.18283  0.92644  0.61737  1.0000
  H   H2789     1.0  0.19321  0.90984  0.58866  1.0000
  H   H2790     1.0  0.19713  0.89407  0.60600  1.0000
  H   H2791     1.0  0.46506  0.68868  0.68773  1.0000
  H   H2792     1.0  0.00339  0.96376  0.49000  1.0000
  H   H2793     1.0  0.46942  0.97372  0.53781  1.0000
  C   C1574     1.0  0.13350  0.68875  0.65061  1.0000
  H   H2794     1.0  0.13926  0.88210  0.60482  1.0000
  H   H2795     1.0  0.16910  0.87932  0.60315  1.0000
  H   H2796     1.0  0.15442  0.84549  0.61679  1.0000
  H   H2797     1.0  0.16804  0.85789  0.62744  1.0000
  H   H2798     1.0  0.16721  0.95042  0.58103  1.0000
  H   H2799     1.0  0.47026  0.73324  0.57442  1.0000
  H   H2800     1.0  0.42148  0.97192  0.56644  1.0000
  Fe  Fe175     1.0  0.99912  0.71552  0.60857  1.0000
  C   C1575     1.0  0.47492  0.97981  0.50834  1.0000
  C   C1576     1.0  0.11192  0.84826  0.69838  1.0000
  H   H2801     1.0  0.09471  0.65196  0.65508  1.0000
  H   H2802     1.0  0.03765  0.96101  0.47155  1.0000
  H   H2803     1.0  0.01983  0.77000  0.64671  1.0000
  H   H2804     1.0  0.31779  0.97925  0.67517  1.0000
  H   H2805     1.0  0.22209  0.76103  0.71392  1.0000
  H   H2806     1.0  0.46412  0.65378  0.71486  1.0000
  H   H2807     1.0  0.12628  0.96373  0.64660  1.0000
  H   H2808     1.0  0.47910  0.72159  0.68819  1.0000
  H   H2809     1.0  0.34323  0.95481  0.63975  1.0000
  C   C1577     1.0  0.43520  0.97671  0.51337  1.0000
  S   S346      1.0  0.00126  0.66923  0.64136  1.0000
  C   C1578     1.0  0.00733  0.76702  0.64071  1.0000
  H   H2810     1.0  0.99505  0.73481  0.54894  1.0000
  H   H2811     1.0  0.13805  0.83167  0.71011  1.0000
  H   H2812     1.0  0.99319  0.78341  0.56931  1.0000
  H   H2813     1.0  0.16591  0.65794  0.66276  1.0000
  H   H2814     1.0  0.38593  0.65955  0.67666  1.0000
  H   H2815     1.0  0.99665  0.80155  0.63341  1.0000
  H   H2816     1.0  0.41302  0.97243  0.48355  1.0000
  C   C1579     1.0  0.41202  0.97473  0.49470  1.0000
  H   H2817     1.0  0.37276  0.66285  0.60631  1.0000
  C   C1580     1.0  0.36817  0.97935  0.56721  1.0000
  C   C1581     1.0  0.47165  0.64846  0.59074  1.0000
  Fe  Fe176     1.0  0.41900  0.86884  0.94473  1.0000
  S   S347      1.0  0.45262  0.86688  0.93090  1.0000
  Fe  Fe177     1.0  0.39331  0.87658  0.91934  1.0000
  S   S348      1.0  0.42528  0.87561  0.90343  1.0000
  S   S349      1.0  0.35653  0.87811  0.91709  1.0000
  Fe  Fe178     1.0  0.43893  0.84645  0.91870  1.0000
  S   S350      1.0  0.46080  0.81405  0.91441  1.0000
  Fe  Fe179     1.0  0.43662  0.89617  0.91692  1.0000
  S   S351      1.0  0.45406  0.92624  0.90732  1.0000
  S   S352      1.0  0.40657  0.84600  0.93372  1.0000
  S   S353      1.0  0.40348  0.89959  0.93157  1.0000
  Fe  Fe180     1.0  0.00870  0.71055  0.86777  1.0000
  H   H2818     1.0  0.22821  0.70315  0.85555  1.0000
  H   H2819     1.0  0.00056  0.75966  0.82864  1.0000
  Fe  Fe181     1.0  0.18308  0.72654  0.80325  1.0000
  S   S354      1.0  0.20485  0.75279  0.79456  1.0000
  S   S355      1.0  0.19904  0.69210  0.79916  1.0000
  Fe  Fe182     1.0  0.14220  0.76030  0.81112  1.0000
  S   S356      1.0  0.16108  0.78946  0.80251  1.0000
  S   S357      1.0  0.10500  0.76798  0.81965  1.0000
  Fe  Fe183     1.0  0.17571  0.77111  0.78411  1.0000
  S   S358      1.0  0.18504  0.78529  0.76078  1.0000
  Fe  Fe184     1.0  0.18860  0.76862  0.81361  1.0000
  S   S359      1.0  0.21062  0.77836  0.82714  1.0000
  S   S360      1.0  0.15467  0.74391  0.79183  1.0000
  S   S361      1.0  0.16891  0.74046  0.82337  1.0000
  H   H2820     1.0  0.47915  0.88625  0.87662  1.0000
  S   S362      1.0  0.04465  0.69885  0.85816  1.0000
  H   H2821     1.0  0.26215  0.70194  0.78038  1.0000
  Fe  Fe185     1.0  0.06988  0.86606  0.93282  1.0000
  S   S363      1.0  0.07590  0.83153  0.94538  1.0000
  S   S364      1.0  0.09156  0.88117  0.91308  1.0000
  Fe  Fe186     1.0  0.02206  0.87537  0.94790  1.0000
  S   S365      1.0  0.02451  0.84139  0.96105  1.0000
  H   H2822     1.0  0.30706  0.66036  0.75021  1.0000
  Fe  Fe187     1.0  0.04176  0.82853  0.94109  1.0000
  S   S366      1.0  0.03541  0.79651  0.93499  1.0000
  S   S367      1.0  0.05454  0.88246  0.95194  1.0000
  S   S368      1.0  0.03671  0.86211  0.92771  1.0000
  Fe  Fe188     1.0  0.22123  0.93358  0.86313  1.0000
  S   S369      1.0  0.23671  0.91600  0.88223  1.0000
  H   H2823     1.0  0.15882  0.68953  0.76053  1.0000
  Fe  Fe189     1.0  0.22713  0.88977  0.85101  1.0000
  S   S370      1.0  0.24354  0.86931  0.86903  1.0000
  S   S371      1.0  0.21544  0.87796  0.83328  1.0000
  Fe  Fe190     1.0  0.21648  0.88888  0.88280  1.0000
  S   S372      1.0  0.19769  0.87243  0.90336  1.0000
  Fe  Fe191     1.0  0.26251  0.89810  0.86699  1.0000
  S   S373      1.0  0.30034  0.89571  0.86614  1.0000
  S   S374      1.0  0.19914  0.90756  0.86499  1.0000
  S   S375      1.0  0.24809  0.91734  0.84765  1.0000
  S   S376      1.0  0.46050  0.76406  0.86327  1.0000
  C   C1582     1.0  0.99555  0.66658  0.80936  1.0000
  C   C1583     1.0  0.10566  0.93222  0.92900  1.0000
  S   S377      1.0  0.46507  0.69878  0.86557  1.0000
  C   C1584     1.0  0.12102  0.87818  0.91076  1.0000
  C   C1585     1.0  0.13271  0.88463  0.89718  1.0000
  C   C1586     1.0  0.15614  0.88321  0.89485  1.0000
  C   C1587     1.0  0.16815  0.87521  0.90608  1.0000
  C   C1588     1.0  0.15647  0.86864  0.91968  1.0000
  C   C1589     1.0  0.13294  0.87022  0.92205  1.0000
  H   H2824     1.0  0.12356  0.89073  0.88840  1.0000
  H   H2825     1.0  0.16490  0.88793  0.88431  1.0000
  H   H2826     1.0  0.16566  0.86234  0.92843  1.0000
  H   H2827     1.0  0.12406  0.86530  0.93258  1.0000
  H   H2828     1.0  0.12568  0.75889  0.74373  1.0000
  C   C1590     1.0  0.00886  0.81058  0.91363  1.0000
  C   C1591     1.0  0.01960  0.79270  0.92230  1.0000
  H   H2829     1.0  0.32345  0.72804  0.81573  1.0000
  C   C1592     1.0  0.23721  0.66440  0.80516  1.0000
  C   C1593     1.0  0.08865  0.74800  0.82981  1.0000
  C   C1594     1.0  0.06537  0.75428  0.83301  1.0000
  C   C1595     1.0  0.05174  0.73929  0.84154  1.0000
  C   C1596     1.0  0.06128  0.71789  0.84707  1.0000
  C   C1597     1.0  0.08453  0.71143  0.84365  1.0000
  C   C1598     1.0  0.09820  0.72644  0.83507  1.0000
  H   H2830     1.0  0.05788  0.77089  0.82889  1.0000
  H   H2831     1.0  0.03389  0.74441  0.84392  1.0000
  H   H2832     1.0  0.09204  0.69483  0.84778  1.0000
  H   H2833     1.0  0.11612  0.72140  0.83263  1.0000
  C   C1599     1.0  0.21161  0.80615  0.82880  1.0000
  C   C1600     1.0  0.22484  0.81009  0.83812  1.0000
  C   C1601     1.0  0.22605  0.83197  0.83973  1.0000
  C   C1602     1.0  0.21424  0.85011  0.83189  1.0000
  C   C1603     1.0  0.20112  0.84614  0.82254  1.0000
  C   C1604     1.0  0.19965  0.82428  0.82108  1.0000
  H   H2834     1.0  0.23425  0.79616  0.84408  1.0000
  H   H2835     1.0  0.23638  0.83485  0.84684  1.0000
  H   H2836     1.0  0.19201  0.86009  0.81639  1.0000
  H   H2837     1.0  0.18949  0.82150  0.81383  1.0000
  C   C1605     1.0  0.14124  0.76570  0.74080  1.0000
  C   C1606     1.0  0.15186  0.76978  0.75144  1.0000
  C   C1607     1.0  0.17178  0.77890  0.74778  1.0000
  C   C1608     1.0  0.18118  0.78352  0.73340  1.0000
  H   H2838     1.0  0.26051  0.79028  0.81714  1.0000
  H   H2839     1.0  0.14440  0.76623  0.76245  1.0000
  H   H2840     1.0  0.19663  0.79052  0.73050  1.0000
  H   H2841     1.0  0.30880  0.97499  0.89536  1.0000
  H   H2842     1.0  0.20343  0.71389  0.73141  1.0000
  C   C1609     1.0  0.25301  0.65380  0.81392  1.0000
  C   C1610     1.0  0.21792  0.67805  0.81054  1.0000
  C   C1611     1.0  0.21403  0.68037  0.82484  1.0000
  C   C1612     1.0  0.22929  0.66880  0.83377  1.0000
  C   C1613     1.0  0.16679  0.84346  0.74147  1.0000
  H   H2843     1.0  0.25196  0.74407  0.77206  1.0000
  H   H2844     1.0  0.19907  0.69075  0.82906  1.0000
  H   H2845     1.0  0.42211  0.67342  0.88462  1.0000
  H   H2846     1.0  0.11683  0.93454  0.93616  1.0000
  H   H2847     1.0  0.27225  0.65378  0.74366  1.0000
  H   H2848     1.0  0.01200  0.89465  0.90749  1.0000
  H   H2849     1.0  0.42741  0.68506  0.84913  1.0000
  H   H2850     1.0  0.03195  0.91643  0.88690  1.0000
  H   H2851     1.0  0.21274  0.72532  0.84451  1.0000
  C   C1614     1.0  0.40172  0.85289  0.86881  1.0000
  H   H2852     1.0  0.35497  0.70824  0.82827  1.0000
  C   C1615     1.0  0.01057  0.72110  0.81673  1.0000
  C   C1616     1.0  0.36442  0.81329  0.93623  1.0000
  C   C1617     1.0  0.99564  0.78478  0.90191  1.0000
  C   C1618     1.0  0.23987  0.67332  0.74024  1.0000
  H   H2853     1.0  0.25068  0.70639  0.80498  1.0000
  C   C1619     1.0  0.35922  0.81135  0.91127  1.0000
  C   C1620     1.0  0.11808  0.93331  0.91379  1.0000
  C   C1621     1.0  0.47362  0.76786  0.88830  1.0000
  C   C1622     1.0  0.00394  0.89968  0.89785  1.0000
  C   C1623     1.0  0.39768  0.65744  0.83352  1.0000
  C   C1624     1.0  0.27542  0.69999  0.78702  1.0000
  C   C1625     1.0  0.34139  0.88322  0.90269  1.0000
  C   C1626     1.0  0.31844  0.88130  0.90554  1.0000
  C   C1627     1.0  0.30565  0.88497  0.89450  1.0000
  C   C1628     1.0  0.31571  0.89063  0.88044  1.0000
  C   C1629     1.0  0.33867  0.89255  0.87757  1.0000
  C   C1630     1.0  0.35142  0.88900  0.88863  1.0000
  H   H2854     1.0  0.31051  0.87685  0.91639  1.0000
  H   H2855     1.0  0.28806  0.88330  0.89686  1.0000
  H   H2856     1.0  0.34660  0.89696  0.86672  1.0000
  H   H2857     1.0  0.36892  0.89094  0.88634  1.0000
  C   C1631     1.0  0.46050  0.80031  0.90018  1.0000
  C   C1632     1.0  0.44811  0.81015  0.88939  1.0000
  C   C1633     1.0  0.44861  0.79898  0.87802  1.0000
  C   C1634     1.0  0.46120  0.77773  0.87748  1.0000
  H   H2858     1.0  0.40530  0.79032  0.87520  1.0000
  C   C1635     1.0  0.37617  0.80776  0.92174  1.0000
  H   H2859     1.0  0.43838  0.82645  0.88979  1.0000
  H   H2860     1.0  0.43929  0.80677  0.86955  1.0000
  H   H2861     1.0  0.41884  0.84397  0.86982  1.0000
  H   H2862     1.0  0.37997  0.77907  0.87567  1.0000
  H   H2863     1.0  0.21970  0.73028  0.86068  1.0000
  H   H2864     1.0  0.32612  0.69839  0.81763  1.0000
  H   H2865     1.0  0.16624  0.92625  0.89560  1.0000
  C   C1636     1.0  0.13403  0.94786  0.88377  1.0000
  C   C1637     1.0  0.28656  0.95751  0.85543  1.0000
  H   H2866     1.0  0.16175  0.86014  0.74471  1.0000
  H   H2867     1.0  0.36064  0.94443  0.96923  1.0000
  H   H2868     1.0  0.23281  0.76676  0.76425  1.0000
  C   C1638     1.0  0.21499  0.72280  0.73501  1.0000
  H   H2869     1.0  0.26288  0.96565  0.90501  1.0000
  H   H2870     1.0  0.26287  0.73032  0.79552  1.0000
  H   H2871     1.0  0.24430  0.74686  0.84020  1.0000
  H   H2872     1.0  0.02286  0.72554  0.82238  1.0000
  H   H2873     1.0  0.34259  0.79413  0.89200  1.0000
  C   C1639     1.0  0.26262  0.66055  0.73482  1.0000
  H   H2874     1.0  0.28032  0.68192  0.79070  1.0000
  H   H2875     1.0  0.12322  0.93915  0.85893  1.0000
  H   H2876     1.0  0.16841  0.95866  0.91562  1.0000
  H   H2877     1.0  0.28321  0.79679  0.82410  1.0000
  C   C1640     1.0  0.38424  0.78710  0.89614  1.0000
  H   H2878     1.0  0.24113  0.75194  0.74185  1.0000
  C   C1641     1.0  0.43286  0.65736  0.88763  1.0000
  H   H2879     1.0  0.44964  0.65671  0.86625  1.0000
  H   H2880     1.0  0.03676  0.69617  0.79771  1.0000
  H   H2881     1.0  0.25996  0.72459  0.85099  1.0000
  H   H2882     1.0  0.02167  0.96932  0.96491  1.0000
  H   H2883     1.0  0.99796  0.64916  0.85310  1.0000
  C   C1642     1.0  0.28200  0.94736  0.88813  1.0000
  S   S378      1.0  0.46851  0.67576  0.82896  1.0000
  C   C1643     1.0  0.30426  0.95748  0.86484  1.0000
  H   H2884     1.0  0.24786  0.68619  0.75751  1.0000
  H   H2885     1.0  0.00134  0.95826  0.91329  1.0000
  C   C1644     1.0  0.33102  0.94537  0.88942  1.0000
  H   H2886     1.0  0.38947  0.67483  0.85144  1.0000
  H   H2887     1.0  0.01351  0.92261  0.92859  1.0000
  H   H2888     1.0  0.47211  0.96687  0.90467  1.0000
  H   H2889     1.0  0.00888  0.93433  0.89527  1.0000
  H   H2890     1.0  0.20490  0.73927  0.73656  1.0000
  H   H2891     1.0  0.28823  0.78917  0.80668  1.0000
  H   H2892     1.0  0.14502  0.91717  0.86466  1.0000
  H   H2893     1.0  0.99041  0.85045  0.87359  1.0000
  H   H2894     1.0  0.45388  0.85891  0.87770  1.0000
  H   H2895     1.0  0.02188  0.65011  0.82895  1.0000
  H   H2896     1.0  0.13276  0.91995  0.91364  1.0000
  H   H2897     1.0  0.31354  0.94020  0.86628  1.0000
  H   H2898     1.0  0.26648  0.94740  0.88382  1.0000
  H   H2899     1.0  0.13327  0.92984  0.88739  1.0000
  C   C1645     1.0  0.15036  0.77075  0.72642  1.0000
  H   H2900     1.0  0.32018  0.82660  0.90033  1.0000
  H   H2901     1.0  0.33971  0.93885  0.87965  1.0000
  H   H2902     1.0  0.32212  0.93228  0.89641  1.0000
  C   C1646     1.0  0.38448  0.83692  0.87382  1.0000
  H   H2903     1.0  0.34926  0.82818  0.91197  1.0000
  Fe  Fe192     1.0  0.48078  0.73013  0.86057  1.0000
  C   C1647     1.0  0.40656  0.75580  0.88368  1.0000
  C   C1648     1.0  0.46979  0.85855  0.87010  1.0000
  H   H2904     1.0  0.27580  0.75941  0.83524  1.0000
  H   H2905     1.0  0.26231  0.76404  0.75736  1.0000
  C   C1649     1.0  0.24901  0.65588  0.82826  1.0000
  H   H2906     1.0  0.16219  0.93088  0.91998  1.0000
  H   H2907     1.0  0.14591  0.71088  0.77101  1.0000
  H   H2908     1.0  0.27244  0.67149  0.72648  1.0000
  H   H2909     1.0  0.41347  0.75077  0.87316  1.0000
  H   H2910     1.0  0.33745  0.84518  0.88876  1.0000
  H   H2911     1.0  0.02533  0.79288  0.84343  1.0000
  H   H2912     1.0  0.33427  0.72412  0.83972  1.0000
  H   H2913     1.0  0.24471  0.97999  0.84360  1.0000
  C   C1650     1.0  0.48732  0.91659  0.92422  1.0000
  H   H2914     1.0  0.05445  0.69473  0.82557  1.0000
  H   H2915     1.0  0.19906  0.68665  0.75123  1.0000
  H   H2916     1.0  0.16589  0.94547  0.86896  1.0000
  H   H2917     1.0  0.00564  0.95218  0.95984  1.0000
  C   C1651     1.0  0.24247  0.69328  0.74704  1.0000
  H   H2918     1.0  0.33581  0.69416  0.84182  1.0000
  C   C1652     1.0  0.99639  0.93092  0.93048  1.0000
  H   H2919     1.0  0.10657  0.92969  0.90728  1.0000
  S   S379      1.0  0.32353  0.65329  0.81398  1.0000
  N   N88       1.0  0.14277  0.95726  0.89454  1.0000
  C   C1653     1.0  0.07877  0.68383  0.80835  1.0000
  H   H2920     1.0  0.25694  0.93313  0.92344  1.0000
  H   H2921     1.0  0.30125  0.84551  0.88053  1.0000
  H   H2922     1.0  0.29146  0.93038  0.88765  1.0000
  C   C1654     1.0  0.48124  0.95427  0.91167  1.0000
  C   C1655     1.0  0.14131  0.93491  0.85980  1.0000
  C   C1656     1.0  0.23400  0.72657  0.72217  1.0000
  C   C1657     1.0  0.26233  0.93079  0.91220  1.0000
  C   C1658     1.0  0.42406  0.67540  0.84183  1.0000
  H   H2923     1.0  0.36039  0.93340  0.89960  1.0000
  H   H2924     1.0  0.14263  0.84798  0.72759  1.0000
  C   C1659     1.0  0.16114  0.84383  0.72680  1.0000
  H   H2925     1.0  0.34724  0.79924  0.91557  1.0000
  H   H2926     1.0  0.00880  0.81792  0.84884  1.0000
  C   C1660     1.0  0.01096  0.68508  0.83279  1.0000
  H   H2927     1.0  0.44752  0.66093  0.89148  1.0000
  C   C1661     1.0  0.18030  0.71358  0.76133  1.0000
  H   H2928     1.0  0.00994  0.82740  0.91465  1.0000
  C   C1662     1.0  0.33078  0.82943  0.88975  1.0000
  S   S380      1.0  0.00027  0.71518  0.89066  1.0000
  H   H2929     1.0  0.24870  0.73164  0.72499  1.0000
  H   H2930     1.0  0.39929  0.78699  0.90101  1.0000
  H   H2931     1.0  0.37517  0.77379  0.90291  1.0000
  C   C1663     1.0  0.35015  0.80970  0.88823  1.0000
  H   H2932     1.0  0.09249  0.69025  0.81155  1.0000
  H   H2933     1.0  0.27686  0.97430  0.85316  1.0000
  H   H2934     1.0  0.20706  0.94491  0.90441  1.0000
  H   H2935     1.0  0.32505  0.83706  0.86780  1.0000
  C   C1664     1.0  0.29765  0.95070  0.84116  1.0000
  C   C1665     1.0  0.43633  0.65650  0.82156  1.0000
  H   H2936     1.0  0.39550  0.74373  0.88974  1.0000
  H   H2937     1.0  0.30021  0.71024  0.80334  1.0000
  H   H2938     1.0  0.23030  0.67881  0.73128  1.0000
  H   H2939     1.0  0.47653  0.84108  0.86866  1.0000
  H   H2940     1.0  0.35618  0.80972  0.87675  1.0000
  H   H2941     1.0  0.30738  0.93368  0.84268  1.0000
  H   H2942     1.0  0.04009  0.67099  0.80957  1.0000
  C   C1666     1.0  0.19664  0.93353  0.91195  1.0000
  H   H2943     1.0  0.28530  0.68960  0.81457  1.0000
  H   H2944     1.0  0.35725  0.83123  0.93536  1.0000
  H   H2945     1.0  0.15125  0.93713  0.84897  1.0000
  H   H2946     1.0  0.01988  0.65942  0.85902  1.0000
  H   H2947     1.0  0.01414  0.72950  0.80551  1.0000
  H   H2948     1.0  0.99673  0.70091  0.79923  1.0000
  H   H2949     1.0  0.00906  0.88621  0.89136  1.0000
  H   H2950     1.0  0.22605  0.67028  0.84488  1.0000
  H   H2951     1.0  0.16619  0.68853  0.77786  1.0000
  C   C1667     1.0  0.44109  0.66890  0.83103  1.0000
  H   H2952     1.0  0.15766  0.83138  0.74937  1.0000
  C   C1668     1.0  0.12529  0.95649  0.90775  1.0000
  H   H2953     1.0  0.35916  0.96171  0.89045  1.0000
  H   H2954     1.0  0.45130  0.88602  0.96151  1.0000
  C   C1669     1.0  0.36194  0.92613  0.97001  1.0000
  Fe  Fe193     1.0  0.05797  0.84767  0.96432  1.0000
  N   N89       1.0  0.36922  0.80937  0.89604  1.0000
  H   H2955     1.0  0.47794  0.86038  0.89815  1.0000
  S   S381      1.0  0.32246  0.64734  0.77685  1.0000
  H   H2956     1.0  0.39799  0.86666  0.87509  1.0000
  C   C1670     1.0  0.41475  0.65078  0.82278  1.0000
  H   H2957     1.0  0.40138  0.86013  0.85748  1.0000
  H   H2958     1.0  0.01653  0.69515  0.83940  1.0000
  C   C1671     1.0  0.40252  0.66965  0.84307  1.0000
  H   H2959     1.0  0.26128  0.72944  0.74909  1.0000
  H   H2960     1.0  0.38944  0.81840  0.91762  1.0000
  S   S382      1.0  0.37022  0.65053  0.83587  1.0000
  H   H2961     1.0  0.30269  0.75814  0.82445  1.0000
  H   H2962     1.0  0.00679  0.92526  0.87906  1.0000
  C   C1672     1.0  0.34901  0.94930  0.89715  1.0000
  H   H2963     1.0  0.38937  0.82329  0.86750  1.0000
  N   N90       1.0  0.29522  0.96470  0.87905  1.0000
  H   H2964     1.0  0.42083  0.75506  0.88934  1.0000
  C   C1673     1.0  0.16172  0.69966  0.76808  1.0000
  H   H2965     1.0  0.26100  0.75285  0.81269  1.0000
  C   C1674     1.0  0.39350  0.77939  0.88165  1.0000
  H   H2966     1.0  0.39979  0.82373  0.89266  1.0000
  H   H2967     1.0  0.01210  0.65844  0.80461  1.0000
  H   H2968     1.0  0.25669  0.69885  0.83390  1.0000
  H   H2969     1.0  0.23071  0.66143  0.74829  1.0000
  C   C1675     1.0  0.03637  0.68926  0.80919  1.0000
  H   H2970     1.0  0.25695  0.70080  0.74064  1.0000
  C   C1676     1.0  0.02390  0.66111  0.83615  1.0000
  H   H2971     1.0  0.37535  0.84319  0.89517  1.0000
  H   H2972     1.0  0.05684  0.71473  0.80962  1.0000
  H   H2973     1.0  0.30899  0.96259  0.83521  1.0000
  C   C1677     1.0  0.38255  0.82831  0.89001  1.0000
  H   H2974     1.0  0.29423  0.72308  0.83981  1.0000
  H   H2975     1.0  0.18503  0.83806  0.74156  1.0000
  C   C1678     1.0  0.33745  0.70967  0.83402  1.0000
  H   H2976     1.0  0.11648  0.95586  0.88278  1.0000
  C   C1679     1.0  0.17179  0.94239  0.91196  1.0000
  H   H2977     1.0  0.36814  0.84619  0.87123  1.0000
  H   H2978     1.0  0.14465  0.96739  0.86296  1.0000
  N   N91       1.0  0.06276  0.77514  0.87660  1.0000
  C   C1680     1.0  0.05963  0.79409  0.88485  1.0000
  C   C1681     1.0  0.04321  0.77743  0.86877  1.0000
  C   C1682     1.0  0.06284  0.75378  0.88718  1.0000
  C   C1683     1.0  0.08478  0.77342  0.86659  1.0000
  C   C1684     1.0  0.08908  0.79407  0.85524  1.0000
  C   C1685     1.0  0.07731  0.79315  0.89448  1.0000
  C   C1686     1.0  0.06218  0.73238  0.88122  1.0000
  C   C1687     1.0  0.03288  0.80130  0.86260  1.0000
  C   C1688     1.0  0.01649  0.80070  0.85272  1.0000
  C   C1689     1.0  0.11382  0.79242  0.84855  1.0000
  C   C1690     1.0  0.07417  0.81478  0.90052  1.0000
  C   C1691     1.0  0.06166  0.71218  0.89301  1.0000
  H   H2979     1.0  0.04300  0.79484  0.89181  1.0000
  H   H2980     1.0  0.05897  0.81041  0.87779  1.0000
  H   H2981     1.0  0.04795  0.76751  0.86001  1.0000
  H   H2982     1.0  0.02890  0.77027  0.87591  1.0000
  H   H2983     1.0  0.04825  0.75545  0.89584  1.0000
  H   H2984     1.0  0.07801  0.75034  0.89240  1.0000
  H   H2985     1.0  0.09905  0.76862  0.87261  1.0000
  H   H2986     1.0  0.08627  0.75964  0.86046  1.0000
  H   H2987     1.0  0.08466  0.80980  0.85961  1.0000
  H   H2988     1.0  0.07921  0.79500  0.84663  1.0000
  H   H2989     1.0  0.07550  0.77942  0.90363  1.0000
  H   H2990     1.0  0.09461  0.79067  0.88858  1.0000
  H   H2991     1.0  0.07716  0.72867  0.87320  1.0000
  H   H2992     1.0  0.04702  0.73395  0.87626  1.0000
  H   H2993     1.0  0.02336  0.81003  0.87137  1.0000
  H   H2994     1.0  0.04575  0.81133  0.85656  1.0000
  H   H2995     1.0  0.31691  0.96786  0.85862  1.0000
  H   H2996     1.0  0.08144  0.68584  0.79660  1.0000
  C   C1692     1.0  0.47531  0.93276  0.91521  1.0000
  H   H2997     1.0  0.12411  0.79435  0.85632  1.0000
  H   H2998     1.0  0.11996  0.77616  0.84487  1.0000
  H   H2999     1.0  0.11602  0.80583  0.83925  1.0000
  H   H3000     1.0  0.05675  0.81864  0.90607  1.0000
  H   H3001     1.0  0.08565  0.81302  0.90832  1.0000
  H   H3002     1.0  0.07790  0.82889  0.89195  1.0000
  H   H3003     1.0  0.04668  0.71479  0.90126  1.0000
  H   H3004     1.0  0.06078  0.69724  0.88850  1.0000
  H   H3005     1.0  0.07704  0.70902  0.89796  1.0000
  H   H3006     1.0  0.29023  0.70678  0.78040  1.0000
  H   H3007     1.0  0.29489  0.69584  0.83664  1.0000
  N   N92       1.0  0.01353  0.69613  0.81743  1.0000
  N   N93       1.0  0.22181  0.71055  0.74891  1.0000
  H   H3008     1.0  0.20075  0.91669  0.90893  1.0000
  C   C1693     1.0  0.22570  0.72668  0.75773  1.0000
  C   C1694     1.0  0.20289  0.69860  0.75730  1.0000
  H   H3009     1.0  0.28455  0.95068  0.83471  1.0000
  C   C1695     1.0  0.01338  0.92023  0.88925  1.0000
  H   H3010     1.0  0.17886  0.95024  0.88895  1.0000
  H   H3011     1.0  0.24283  0.72254  0.82363  1.0000
  C   C1696     1.0  0.24510  0.74030  0.75153  1.0000
  H   H3012     1.0  0.35081  0.80311  0.94064  1.0000
  C   C1697     1.0  0.31566  0.83217  0.87856  1.0000
  C   C1698     1.0  0.16523  0.94381  0.89711  1.0000
  C   C1699     1.0  0.17053  0.77946  0.72275  1.0000
  H   H3013     1.0  0.28955  0.74774  0.80501  1.0000
  H   H3014     1.0  0.21063  0.73943  0.75943  1.0000
  H   H3015     1.0  0.22840  0.71773  0.76851  1.0000
  H   H3016     1.0  0.20789  0.68853  0.76733  1.0000
  H   H3017     1.0  0.17488  0.72487  0.75189  1.0000
  H   H3018     1.0  0.28902  0.94974  0.90925  1.0000
  H   H3019     1.0  0.30904  0.81648  0.87899  1.0000
  H   H3020     1.0  0.02642  0.75693  0.92734  1.0000
  H   H3021     1.0  0.32516  0.97886  0.87837  1.0000
  H   H3022     1.0  0.10023  0.91561  0.93270  1.0000
  H   H3023     1.0  0.24032  0.66266  0.79409  1.0000
  C   C1700     1.0  0.01620  0.65005  0.85130  1.0000
  H   H3024     1.0  0.18182  0.72369  0.76922  1.0000
  C   C1701     1.0  0.05624  0.69682  0.81387  1.0000
  H   H3025     1.0  0.99044  0.65739  0.82012  1.0000
  C   C1702     1.0  0.01823  0.77090  0.92070  1.0000
  H   H3026     1.0  0.38422  0.79010  0.92346  1.0000
  C   C1703     1.0  0.24819  0.75461  0.76198  1.0000
  S   S383      1.0  0.20340  0.96952  0.86243  1.0000
  H   H3027     1.0  0.27477  0.94570  0.86068  1.0000
  H   H3028     1.0  0.20076  0.93228  0.92272  1.0000
  H   H3029     1.0  0.37668  0.80964  0.94371  1.0000
  N   N94       1.0  0.17043  0.81746  0.88159  1.0000
  C   C1704     1.0  0.19495  0.81999  0.87835  1.0000
  C   C1705     1.0  0.15672  0.83714  0.87372  1.0000
  C   C1706     1.0  0.16295  0.81730  0.89733  1.0000
  C   C1707     1.0  0.16641  0.79578  0.87831  1.0000
  C   C1708     1.0  0.17492  0.79107  0.86303  1.0000
  C   C1709     1.0  0.21107  0.80143  0.88607  1.0000
  C   C1710     1.0  0.13725  0.81943  0.90263  1.0000
  C   C1711     1.0  0.16787  0.84791  0.85892  1.0000
  C   C1712     1.0  0.15107  0.86519  0.85139  1.0000
  C   C1713     1.0  0.17182  0.76756  0.86184  1.0000
  C   C1714     1.0  0.23537  0.80547  0.88139  1.0000
  C   C1715     1.0  0.13220  0.81420  0.91880  1.0000
  H   H3030     1.0  0.19711  0.83621  0.88095  1.0000
  H   H3031     1.0  0.20142  0.82085  0.86687  1.0000
  H   H3032     1.0  0.14040  0.83275  0.87264  1.0000
  H   H3033     1.0  0.15233  0.85108  0.87992  1.0000
  H   H3034     1.0  0.16889  0.83114  0.90073  1.0000
  H   H3035     1.0  0.17074  0.80173  0.90349  1.0000
  H   H3036     1.0  0.17374  0.78146  0.88570  1.0000
  H   H3037     1.0  0.14821  0.79481  0.88024  1.0000
  H   H3038     1.0  0.19296  0.79225  0.85978  1.0000
  H   H3039     1.0  0.16516  0.80281  0.85551  1.0000
  H   H3040     1.0  0.20722  0.80101  0.89771  1.0000
  H   H3041     1.0  0.21000  0.78490  0.88366  1.0000
  H   H3042     1.0  0.12929  0.80794  0.89847  1.0000
  H   H3043     1.0  0.12894  0.83662  0.89931  1.0000
  H   H3044     1.0  0.18150  0.85667  0.86011  1.0000
  H   H3045     1.0  0.17522  0.83548  0.85192  1.0000
  H   H3046     1.0  0.15986  0.87317  0.84114  1.0000
  H   H3047     1.0  0.13763  0.85717  0.84918  1.0000
  H   H3048     1.0  0.14353  0.87834  0.85794  1.0000
  H   H3049     1.0  0.18260  0.75493  0.86835  1.0000
  H   H3050     1.0  0.15407  0.76504  0.86534  1.0000
  H   H3051     1.0  0.17666  0.76493  0.85064  1.0000
  H   H3052     1.0  0.23749  0.82158  0.88402  1.0000
  H   H3053     1.0  0.24662  0.79197  0.88700  1.0000
  H   H3054     1.0  0.24047  0.80568  0.86980  1.0000
  H   H3055     1.0  0.14098  0.82415  0.92370  1.0000
  H   H3056     1.0  0.11391  0.81826  0.92241  1.0000
  H   H3057     1.0  0.13755  0.79625  0.92255  1.0000
  N   N95       1.0  0.27875  0.72149  0.82181  1.0000
  C   C1716     1.0  0.29654  0.71318  0.83115  1.0000
  C   C1717     1.0  0.25629  0.71708  0.83030  1.0000
  C   C1718     1.0  0.28379  0.70768  0.81003  1.0000
  C   C1719     1.0  0.27803  0.74581  0.81534  1.0000
  C   C1720     1.0  0.28443  0.76148  0.82415  1.0000
  C   C1721     1.0  0.32118  0.71267  0.82349  1.0000
  C   C1722     1.0  0.26659  0.71230  0.79964  1.0000
  C   C1723     1.0  0.24780  0.72861  0.84348  1.0000
  C   C1724     1.0  0.22576  0.72131  0.85152  1.0000
  C   C1725     1.0  0.27874  0.78589  0.81758  1.0000
  C   C1726     1.0  0.00630  0.76694  0.91061  1.0000
  H   H3058     1.0  0.16656  0.82691  0.72420  1.0000
  H   H3059     1.0  0.27361  0.91462  0.91198  1.0000
  C   C1727     1.0  0.00653  0.96098  0.96864  1.0000
  H   H3060     1.0  0.34127  0.95516  0.90731  1.0000
  C   C1728     1.0  0.14776  0.95001  0.86860  1.0000
  H   H3061     1.0  0.13085  0.96243  0.91635  1.0000
  H   H3062     1.0  0.09054  0.94515  0.92957  1.0000
  C   C1729     1.0  0.47336  0.77920  0.89957  1.0000
  H   H3063     1.0  0.46758  0.94036  0.96842  1.0000
  C   C1730     1.0  0.48408  0.94313  0.96201  1.0000
  H   H3064     1.0  0.00538  0.75006  0.90958  1.0000
  H   H3065     1.0  0.24725  0.93027  0.90765  1.0000
  H   H3066     1.0  0.98999  0.76598  0.81199  1.0000
  H   H3067     1.0  0.10979  0.96822  0.90562  1.0000
  S   S384      1.0  0.41263  0.86221  0.96876  1.0000
  H   H3068     1.0  0.04211  0.66159  0.83510  1.0000
  H   H3069     1.0  0.46615  0.86824  0.85974  1.0000
  H   H3070     1.0  0.48302  0.77149  0.90790  1.0000
  H   H3071     1.0  0.07958  0.66588  0.81291  1.0000
  C   C1731     1.0  0.27451  0.94989  0.90397  1.0000
  C   C1732     1.0  0.31475  0.96717  0.88567  1.0000
  C   C1733     1.0  0.48671  0.86883  0.87544  1.0000
  H   H3072     1.0  0.00288  0.79118  0.85841  1.0000
  H   H3073     1.0  0.48307  0.89997  0.92699  1.0000
  Fe  Fe194     1.0  0.48200  0.69258  0.84387  1.0000
  C   C1734     1.0  0.99569  0.69125  0.81019  1.0000
  H   H3074     1.0  0.44938  0.65140  0.81316  1.0000
  H   H3075     1.0  0.48123  0.95593  0.95258  1.0000
  H   H3076     1.0  0.48336  0.75149  0.88801  1.0000
  C   C1735     1.0  0.99695  0.80659  0.90352  1.0000
  H   H3077     1.0  0.02526  0.91587  0.96919  1.0000
  H   H3078     1.0  0.99292  0.68476  0.83715  1.0000
  H   H3079     1.0  0.37004  0.92147  0.95956  1.0000
  H   H3080     1.0  0.99177  0.83642  0.94023  1.0000
  H   H3081     1.0  0.99298  0.86656  0.91951  1.0000
  H   H3082     1.0  0.99771  0.97759  0.94192  1.0000
  H   H3083     1.0  0.63999  0.20239  0.19206  1.0000
  Fe  Fe195     1.0  0.56393  0.04825  0.06413  1.0000
  S   S385      1.0  0.59988  0.04958  0.05404  1.0000
  S   S386      1.0  0.54028  0.08031  0.06770  1.0000
  Fe  Fe196     1.0  0.59354  0.02752  0.03964  1.0000
  S   S387      1.0  0.60477  0.03278  0.01569  1.0000
  Fe  Fe197     1.0  0.60806  0.01800  0.06924  1.0000
  S   S388      1.0  0.55709  0.02845  0.04865  1.0000
  S   S389      1.0  0.57216  0.01791  0.08012  1.0000
  Fe  Fe198     1.0  0.68705  0.25864  0.16337  1.0000
  S   S390      1.0  0.65538  0.24641  0.17472  1.0000
  S   S391      1.0  0.71253  0.23197  0.15413  1.0000
  S   S392      1.0  0.49109  0.22155  0.13267  1.0000
  S   S393      1.0  0.63565  0.29757  0.17927  1.0000
  Fe  Fe199     1.0  0.65641  0.26805  0.19056  1.0000
  H   H3084     1.0  0.64710  0.04652  0.98532  1.0000
  Fe  Fe200     1.0  0.63752  0.27652  0.16241  1.0000
  S   S394      1.0  0.61175  0.27553  0.14840  1.0000
  S   S395      1.0  0.68959  0.27807  0.18006  1.0000
  S   S396      1.0  0.66953  0.28783  0.14999  1.0000
  S   S397      1.0  0.96714  0.20523  0.13666  1.0000
  Fe  Fe201     1.0  0.97261  0.07087  0.05361  1.0000
  S   S398      1.0  0.95548  0.04684  0.07070  1.0000
  S   S399      1.0  0.83977  0.98429  0.09851  1.0000
  Fe  Fe202     1.0  0.95955  0.05159  0.02956  1.0000
  S   S400      1.0  0.94103  0.02669  0.04497  1.0000
  S   S401      1.0  0.96447  0.05424  0.00547  1.0000
  Fe  Fe203     1.0  0.92778  0.05430  0.05768  1.0000
  S   S402      1.0  0.89170  0.06380  0.06726  1.0000
  Fe  Fe204     1.0  0.97046  0.02117  0.05657  1.0000
  S   S403      1.0  0.94380  0.07988  0.04130  1.0000
  Fe  Fe205     1.0  0.82057  0.16493  0.17943  1.0000
  S   S404      1.0  0.80444  0.13391  0.18643  1.0000
  S   S405      1.0  0.80182  0.19978  0.18048  1.0000
  Fe  Fe206     1.0  0.86839  0.13945  0.17758  1.0000
  S   S406      1.0  0.85554  0.10680  0.18495  1.0000
  S   S407      1.0  0.90636  0.13624  0.17479  1.0000
  Fe  Fe207     1.0  0.83102  0.11951  0.16976  1.0000
  S   S408      1.0  0.83185  0.09697  0.15353  1.0000
  Fe  Fe208     1.0  0.83049  0.12392  0.20087  1.0000
  S   S409      1.0  0.84523  0.15165  0.16153  1.0000
  S   S410      1.0  0.84520  0.15544  0.19471  1.0000
  Fe  Fe209     1.0  0.76906  0.01516  0.12920  1.0000
  H   H3085     1.0  0.98225  0.13245  0.13884  1.0000
  S   S411      1.0  0.76058  0.04048  0.14426  1.0000
  Fe  Fe210     1.0  0.75461  0.00408  0.10318  1.0000
  S   S412      1.0  0.73502  0.01598  0.08468  1.0000
  N   N96       1.0  0.50101  0.29782  0.12791  1.0000
  H   H3086     1.0  0.85965  0.99294  0.03335  1.0000
  S   S413      1.0  0.74160  0.99734  0.12649  1.0000
  S   S414      1.0  0.78029  0.02418  0.10576  1.0000
  Fe  Fe211     1.0  0.52084  0.16489  0.12218  1.0000
  C   C1736     1.0  0.87320  0.00188  0.04977  1.0000
  S   S415      1.0  0.53809  0.12983  0.11951  1.0000
  Fe  Fe212     1.0  0.52240  0.20095  0.13954  1.0000
  S   S416      1.0  0.53941  0.21023  0.15605  1.0000
  S   S417      1.0  0.53851  0.19499  0.11762  1.0000
  C   C1737     1.0  0.81214  0.07987  0.15257  1.0000
  C   C1738     1.0  0.78963  0.08399  0.15873  1.0000
  C   C1739     1.0  0.77408  0.07153  0.15631  1.0000
  C   C1740     1.0  0.78087  0.05489  0.14770  1.0000
  C   C1741     1.0  0.80349  0.05033  0.14189  1.0000
  C   C1742     1.0  0.81903  0.06269  0.14438  1.0000
  H   H3087     1.0  0.78410  0.09713  0.16507  1.0000
  H   H3088     1.0  0.75662  0.07504  0.16093  1.0000
  H   H3089     1.0  0.80897  0.03740  0.13540  1.0000
  H   H3090     1.0  0.83648  0.05889  0.13990  1.0000
  C   C1743     1.0  0.87780  0.04174  0.07668  1.0000
  C   C1744     1.0  0.85481  0.04601  0.08180  1.0000
  C   C1745     1.0  0.84312  0.02860  0.08892  1.0000
  C   C1746     1.0  0.85430  0.00673  0.09074  1.0000
  C   C1747     1.0  0.87738  0.00249  0.08580  1.0000
  C   C1748     1.0  0.88917  0.01998  0.07884  1.0000
  H   H3091     1.0  0.84594  0.06276  0.08014  1.0000
  H   H3092     1.0  0.82538  0.03204  0.09276  1.0000
  H   H3093     1.0  0.88614  0.98560  0.08726  1.0000
  H   H3094     1.0  0.90695  0.01655  0.07498  1.0000
  C   C1749     1.0  0.91174  0.03170  0.99588  1.0000
  C   C1750     1.0  0.92638  0.03764  0.00354  1.0000
  C   C1751     1.0  0.94590  0.04583  0.99637  1.0000
  H   H3095     1.0  0.77325  0.14313  0.21753  1.0000
  H   H3096     1.0  0.89683  0.02523  0.00148  1.0000
  H   H3097     1.0  0.92250  0.03603  0.01496  1.0000
  C   C1752     1.0  0.95026  0.18596  0.14718  1.0000
  C   C1753     1.0  0.95976  0.16632  0.15498  1.0000
  C   C1754     1.0  0.94600  0.15139  0.16342  1.0000
  C   C1755     1.0  0.92263  0.15584  0.16409  1.0000
  C   C1756     1.0  0.91304  0.17544  0.15629  1.0000
  C   C1757     1.0  0.92683  0.19053  0.14794  1.0000
  H   H3098     1.0  0.97771  0.16282  0.15469  1.0000
  H   H3099     1.0  0.95354  0.13635  0.16949  1.0000
  H   H3100     1.0  0.89504  0.17908  0.15677  1.0000
  H   H3101     1.0  0.91935  0.20578  0.14201  1.0000
  C   C1758     1.0  0.65844  0.22882  0.12824  1.0000
  H   H3102     1.0  0.92192  0.09873  0.99643  1.0000
  C   C1759     1.0  0.73694  0.22289  0.16188  1.0000
  C   C1760     1.0  0.74971  0.20221  0.15985  1.0000
  C   C1761     1.0  0.76949  0.19473  0.16571  1.0000
  C   C1762     1.0  0.77674  0.20812  0.17343  1.0000
  C   C1763     1.0  0.76397  0.22880  0.17547  1.0000
  C   C1764     1.0  0.74404  0.23614  0.16978  1.0000
  H   H3103     1.0  0.74431  0.19194  0.15372  1.0000
  H   H3104     1.0  0.77929  0.17877  0.16410  1.0000
  H   H3105     1.0  0.76959  0.23916  0.18143  1.0000
  H   H3106     1.0  0.73438  0.25214  0.17132  1.0000
  H   H3107     1.0  0.59882  0.17754  0.13199  1.0000
  H   H3108     1.0  0.98010  0.14823  0.11513  1.0000
  H   H3109     1.0  0.49722  0.29801  0.02511  1.0000
  N   N97       1.0  0.51658  0.07664  0.97356  1.0000
  C   C1765     1.0  0.59260  0.25634  0.15064  1.0000
  C   C1766     1.0  0.58398  0.24568  0.16404  1.0000
  C   C1767     1.0  0.56788  0.23150  0.16545  1.0000
  C   C1768     1.0  0.56013  0.22785  0.15352  1.0000
  C   C1769     1.0  0.56894  0.23829  0.14008  1.0000
  C   C1770     1.0  0.58496  0.25259  0.13868  1.0000
  H   H3110     1.0  0.58930  0.24877  0.17336  1.0000
  H   H3111     1.0  0.56114  0.22355  0.17589  1.0000
  H   H3112     1.0  0.56322  0.23553  0.13082  1.0000
  H   H3113     1.0  0.59138  0.26091  0.12828  1.0000
  C   C1771     1.0  0.66056  0.01306  0.08489  1.0000
  C   C1772     1.0  0.70610  0.01556  0.08512  1.0000
  C   C1773     1.0  0.69740  0.02010  0.07232  1.0000
  C   C1774     1.0  0.67473  0.01891  0.07219  1.0000
  H   H3114     1.0  0.70834  0.02430  0.06242  1.0000
  H   H3115     1.0  0.66831  0.02220  0.06227  1.0000
  C   C1775     1.0  0.53847  0.09364  0.08248  1.0000
  C   C1776     1.0  0.52953  0.11634  0.08167  1.0000
  C   C1777     1.0  0.52867  0.12762  0.09308  1.0000
  C   C1778     1.0  0.53672  0.11620  0.10539  1.0000
  C   C1779     1.0  0.54475  0.09331  0.10641  1.0000
  C   C1780     1.0  0.54555  0.08204  0.09503  1.0000
  H   H3116     1.0  0.86315  0.01011  0.00729  1.0000
  C   C1781     1.0  0.50586  0.05412  0.01441  1.0000
  H   H3117     1.0  0.55068  0.08431  0.11599  1.0000
  H   H3118     1.0  0.55185  0.06443  0.09588  1.0000
  C   C1782     1.0  0.56152  0.01382  0.98743  1.0000
  C   C1783     1.0  0.55567  0.00985  0.00224  1.0000
  C   C1784     1.0  0.56896  0.01526  0.01097  1.0000
  C   C1785     1.0  0.58806  0.02511  0.00498  1.0000
  C   C1786     1.0  0.59393  0.02907  0.99014  1.0000
  C   C1787     1.0  0.58090  0.02319  0.98138  1.0000
  H   H3119     1.0  0.58503  0.18356  0.14926  1.0000
  H   H3120     1.0  0.56437  0.01179  0.02234  1.0000
  H   H3121     1.0  0.60850  0.03690  0.98548  1.0000
  H   H3122     1.0  0.52235  0.14524  0.09220  1.0000
  C   C1788     1.0  0.65995  0.04324  0.97595  1.0000
  H   H3123     1.0  0.50270  0.28470  0.07557  1.0000
  H   H3124     1.0  0.49520  0.23012  0.04455  1.0000
  C   C1789     1.0  0.54727  0.26500  0.10263  1.0000
  H   H3125     1.0  0.79180  0.00430  0.07015  1.0000
  C   C1790     1.0  0.62559  0.19654  0.18926  1.0000
  C   C1791     1.0  0.51789  0.06619  0.00067  1.0000
  C   C1792     1.0  0.80438  0.01589  0.06687  1.0000
  H   H3126     1.0  0.87622  0.10777  0.15061  1.0000
  H   H3127     1.0  0.61912  0.16568  0.15958  1.0000
  H   H3128     1.0  0.50977  0.07581  0.15305  1.0000
  H   H3129     1.0  0.54529  0.24786  0.10817  1.0000
  C   C1793     1.0  0.87367  0.18981  0.21096  1.0000
  H   H3130     1.0  0.56536  0.26560  0.09870  1.0000
  H   H3131     1.0  0.51297  0.05666  0.02355  1.0000
  S   S418      1.0  0.60509  0.99607  0.05394  1.0000
  H   H3132     1.0  0.53311  0.27586  0.14410  1.0000
  H   H3133     1.0  0.78634  0.16708  0.20905  1.0000
  C   C1794     1.0  0.89158  0.14929  0.21459  1.0000
  C   C1795     1.0  0.94034  0.14434  0.20149  1.0000
  H   H3134     1.0  0.62662  0.17830  0.19286  1.0000
  H   H3135     1.0  0.76265  0.20556  0.20903  1.0000
  H   H3136     1.0  0.91210  0.11370  0.20314  1.0000
  H   H3137     1.0  0.68603  0.98293  0.13083  1.0000
  H   H3138     1.0  0.93844  0.98802  0.98308  1.0000
  H   H3139     1.0  0.89414  0.15051  0.20285  1.0000
  H   H3140     1.0  0.49703  0.07940  0.11042  1.0000
  C   C1796     1.0  0.95084  0.04753  0.98153  1.0000
  H   H3141     1.0  0.92904  0.15858  0.19659  1.0000
  H   H3142     1.0  0.94199  0.13033  0.19560  1.0000
  H   H3143     1.0  0.53831  0.26897  0.09336  1.0000
  H   H3144     1.0  0.73902  0.28323  0.12626  1.0000
  H   H3145     1.0  0.78548  0.31145  0.14880  1.0000
  H   H3146     1.0  0.59311  0.15519  0.14641  1.0000
  H   H3147     1.0  0.69716  0.20567  0.18540  1.0000
  H   H3148     1.0  0.89443  0.08124  0.20113  1.0000
  H   H3149     1.0  0.73062  0.27469  0.14496  1.0000
  H   H3150     1.0  0.97580  0.13752  0.20355  1.0000
  H   H3151     1.0  0.73036  0.20599  0.19630  1.0000
  H   H3152     1.0  0.66141  0.19592  0.16861  1.0000
  H   H3153     1.0  0.96265  0.16595  0.20472  1.0000
  C   C1797     1.0  0.94194  0.07350  0.10306  1.0000
  H   H3154     1.0  0.62349  0.22053  0.17037  1.0000
  C   C1798     1.0  0.52722  0.29293  0.14655  1.0000
  C   C1799     1.0  0.92350  0.10720  0.97361  1.0000
  H   H3155     1.0  0.79564  0.03300  0.06789  1.0000
  H   H3156     1.0  0.87686  0.01641  0.05344  1.0000
  H   H3157     1.0  0.82087  0.03959  0.02048  1.0000
  H   H3158     1.0  0.94848  0.10579  0.98710  1.0000
  H   H3159     1.0  0.87078  0.04697  0.01690  1.0000
  C   C1800     1.0  0.49255  0.98569  0.01730  1.0000
  H   H3160     1.0  0.77338  0.29299  0.18048  1.0000
  H   H3161     1.0  0.53600  0.05941  0.00018  1.0000
  H   H3162     1.0  0.61034  0.19664  0.17124  1.0000
  H   H3163     1.0  0.95682  0.07626  0.09486  1.0000
  C   C1801     1.0  0.80199  0.27825  0.16741  1.0000
  H   H3164     1.0  0.90492  0.11072  0.97481  1.0000
  H   H3165     1.0  0.64270  0.23104  0.12376  1.0000
  N   N98       1.0  0.84814  0.02842  0.03266  1.0000
  H   H3166     1.0  0.49970  0.05818  0.09149  1.0000
  H   H3167     1.0  0.84050  0.03339  0.05473  1.0000
  C   C1802     1.0  0.83487  0.02546  0.02172  1.0000
  H   H3168     1.0  0.72719  0.16808  0.14051  1.0000
  H   H3169     1.0  0.49016  0.22946  0.06346  1.0000
  H   H3170     1.0  0.64836  0.17281  0.16846  1.0000
  H   H3171     1.0  0.63304  0.15897  0.14261  1.0000
  H   H3172     1.0  0.82090  0.04867  0.04416  1.0000
  C   C1803     1.0  0.66680  0.25131  0.12495  1.0000
  C   C1804     1.0  0.97373  0.10532  0.13015  1.0000
  H   H3173     1.0  0.69352  0.18331  0.15589  1.0000
  S   S419      1.0  0.98693  0.10101  0.05661  1.0000
  H   H3174     1.0  0.76643  0.26572  0.20128  1.0000
  C   C1805     1.0  0.86566  0.00805  0.03498  1.0000
  H   H3175     1.0  0.54938  0.27909  0.12065  1.0000
  Fe  Fe213     1.0  0.56873  0.99818  0.06370  1.0000
  C   C1806     1.0  0.89407  0.10049  0.15067  1.0000
  H   H3176     1.0  0.92455  0.12749  0.98946  1.0000
  C   C1807     1.0  0.91624  0.03407  0.98102  1.0000
  H   H3177     1.0  0.94394  0.12275  0.22124  1.0000
  H   H3178     1.0  0.63950  0.23211  0.14879  1.0000
  C   C1808     1.0  0.66881  0.18075  0.14266  1.0000
  H   H3179     1.0  0.51490  0.29162  0.15651  1.0000
  S   S420      1.0  0.50690  0.16938  0.14477  1.0000
  C   C1809     1.0  0.89427  0.98441  0.04960  1.0000
  C   C1810     1.0  0.69178  0.01024  0.09783  1.0000
  H   H3180     1.0  0.55395  0.29121  0.15860  1.0000
  H   H3181     1.0  0.87276  0.11196  0.21372  1.0000
  H   H3182     1.0  0.92674  0.08312  0.09897  1.0000
  H   H3183     1.0  0.89631  0.08289  0.14908  1.0000
  N   N99       1.0  0.64961  0.19674  0.14891  1.0000
  H   H3184     1.0  0.94045  0.05552  0.10494  1.0000
  H   H3185     1.0  0.66663  0.16329  0.14744  1.0000
  H   H3186     1.0  0.53944  0.29866  0.10636  1.0000
  H   H3187     1.0  0.68267  0.25007  0.12913  1.0000
  H   H3188     1.0  0.89156  0.08268  0.03654  1.0000
  H   H3189     1.0  0.49479  0.98789  0.02796  1.0000
  C   C1811     1.0  0.85897  0.04905  0.02686  1.0000
  C   C1812     1.0  0.66919  0.00888  0.09770  1.0000
  N   N100      1.0  0.83713  0.11258  0.10573  1.0000
  C   C1813     1.0  0.85038  0.13064  0.10622  1.0000
  C   C1814     1.0  0.83407  0.11275  0.09062  1.0000
  C   C1815     1.0  0.81420  0.11769  0.11442  1.0000
  C   C1816     1.0  0.84781  0.08996  0.11219  1.0000
  C   C1817     1.0  0.87194  0.08162  0.10539  1.0000
  C   C1818     1.0  0.85396  0.13337  0.12111  1.0000
  C   C1819     1.0  0.79658  0.10295  0.11371  1.0000
  C   C1820     1.0  0.85333  0.11947  0.07854  1.0000
  C   C1821     1.0  0.84935  0.11565  0.06422  1.0000
  C   C1822     1.0  0.88114  0.05936  0.11371  1.0000
  C   C1823     1.0  0.86807  0.15178  0.11998  1.0000
  C   C1824     1.0  0.77387  0.11068  0.12224  1.0000
  H   H3190     1.0  0.84198  0.14701  0.10126  1.0000
  H   H3191     1.0  0.86732  0.12806  0.09983  1.0000
  H   H3192     1.0  0.83056  0.09622  0.08948  1.0000
  H   H3193     1.0  0.81906  0.12486  0.08799  1.0000
  H   H3194     1.0  0.80688  0.13539  0.11123  1.0000
  H   H3195     1.0  0.81543  0.11575  0.12586  1.0000
  H   H3196     1.0  0.84775  0.08941  0.12366  1.0000
  H   H3197     1.0  0.83775  0.07700  0.11168  1.0000
  H   H3198     1.0  0.88350  0.09355  0.10507  1.0000
  H   H3199     1.0  0.87197  0.07864  0.09455  1.0000
  H   H3200     1.0  0.83780  0.13809  0.12792  1.0000
  H   H3201     1.0  0.86284  0.11777  0.12651  1.0000
  H   H3202     1.0  0.80183  0.08537  0.11825  1.0000
  H   H3203     1.0  0.79394  0.10349  0.10270  1.0000
  H   H3204     1.0  0.85417  0.13749  0.07757  1.0000
  H   H3205     1.0  0.86993  0.11018  0.08040  1.0000
  H   H3206     1.0  0.83334  0.12560  0.06149  1.0000
  H   H3207     1.0  0.86328  0.12074  0.05583  1.0000
  H   H3208     1.0  0.84891  0.09776  0.06438  1.0000
  H   H3209     1.0  0.87012  0.04672  0.11428  1.0000
  H   H3210     1.0  0.89805  0.05317  0.10826  1.0000
  H   H3211     1.0  0.88243  0.06129  0.12463  1.0000
  H   H3212     1.0  0.88498  0.14761  0.11381  1.0000
  H   H3213     1.0  0.85969  0.16792  0.11482  1.0000
  H   H3214     1.0  0.87004  0.15375  0.13075  1.0000
  H   H3215     1.0  0.77555  0.11086  0.13336  1.0000
  H   H3216     1.0  0.76678  0.12763  0.11743  1.0000
  H   H3217     1.0  0.76203  0.09902  0.12238  1.0000
  C   C1825     1.0  0.62857  0.19467  0.14374  1.0000
  C   C1826     1.0  0.62082  0.17148  0.14799  1.0000
  H   H3218     1.0  0.96976  0.11182  0.15212  1.0000
  H   H3219     1.0  0.63088  0.19826  0.13196  1.0000
  H   H3220     1.0  0.61449  0.20756  0.14723  1.0000
  H   H3221     1.0  0.67886  0.20909  0.20190  1.0000
  S   S421      1.0  0.64992  0.25220  0.21369  1.0000
  C   C1827     1.0  0.98131  0.11443  0.14197  1.0000
  N   N101      1.0  0.90829  0.13096  0.22095  1.0000
  H   H3222     1.0  0.96831  0.99837  0.98676  1.0000
  H   H3223     1.0  0.76720  0.27969  0.16695  1.0000
  H   H3224     1.0  0.50422  0.27711  0.11186  1.0000
  N   N102      1.0  0.61968  0.08112  0.09495  1.0000
  C   C1828     1.0  0.64345  0.07144  0.09698  1.0000
  C   C1829     1.0  0.60488  0.06316  0.09948  1.0000
  C   C1830     1.0  0.61981  0.08940  0.07927  1.0000
  C   C1831     1.0  0.61054  0.10071  0.10261  1.0000
  C   C1832     1.0  0.61004  0.09654  0.11882  1.0000
  C   C1833     1.0  0.66094  0.08766  0.09245  1.0000
  C   C1834     1.0  0.59647  0.09608  0.07439  1.0000
  C   C1835     1.0  0.60955  0.04526  0.11255  1.0000
  C   C1836     1.0  0.59090  0.03085  0.11717  1.0000
  C   C1837     1.0  0.60435  0.11846  0.12469  1.0000
  C   C1838     1.0  0.68420  0.07573  0.09511  1.0000
  C   C1839     1.0  0.59860  0.10696  0.05882  1.0000
  H   H3225     1.0  0.64943  0.05726  0.09099  1.0000
  H   H3226     1.0  0.64448  0.06412  0.10820  1.0000
  H   H3227     1.0  0.58713  0.07085  0.10149  1.0000
  H   H3228     1.0  0.60616  0.05347  0.09074  1.0000
  H   H3229     1.0  0.62944  0.07642  0.07299  1.0000
  H   H3230     1.0  0.62849  0.10425  0.07574  1.0000
  H   H3231     1.0  0.61980  0.11492  0.09785  1.0000
  H   H3232     1.0  0.59288  0.10714  0.10116  1.0000
  H   H3233     1.0  0.62634  0.08802  0.12181  1.0000
  H   H3234     1.0  0.59664  0.08650  0.12408  1.0000
  H   H3235     1.0  0.66239  0.09446  0.08098  1.0000
  H   H3236     1.0  0.65636  0.10164  0.09858  1.0000
  H   H3237     1.0  0.58513  0.10810  0.08056  1.0000
  H   H3238     1.0  0.58820  0.08120  0.07553  1.0000
  H   H3239     1.0  0.62544  0.03407  0.10983  1.0000
  H   H3240     1.0  0.61117  0.05248  0.12176  1.0000
  H   H3241     1.0  0.58934  0.02247  0.10836  1.0000
  H   H3242     1.0  0.59490  0.01783  0.12627  1.0000
  H   H3243     1.0  0.57462  0.04114  0.12046  1.0000
  H   H3244     1.0  0.61747  0.12919  0.12018  1.0000
  H   H3245     1.0  0.58787  0.12756  0.12217  1.0000
  H   H3246     1.0  0.60329  0.11499  0.13640  1.0000
  H   H3247     1.0  0.68403  0.06865  0.10651  1.0000
  H   H3248     1.0  0.68993  0.06209  0.08873  1.0000
  H   H3249     1.0  0.69644  0.08766  0.09198  1.0000
  H   H3250     1.0  0.58186  0.11011  0.05543  1.0000
  H   H3251     1.0  0.60489  0.12310  0.05730  1.0000
  H   H3252     1.0  0.61017  0.09592  0.05199  1.0000
  C   C1840     1.0  0.50657  0.10066  0.97438  1.0000
  H   H3253     1.0  0.81373  0.28817  0.16982  1.0000
  N   N103      1.0  0.95023  0.11429  0.12725  1.0000
  C   C1841     1.0  0.94688  0.10546  0.11449  1.0000
  C   C1842     1.0  0.94656  0.13937  0.12407  1.0000
  C   C1843     1.0  0.90844  0.11024  0.21491  1.0000
  C   C1844     1.0  0.93386  0.10698  0.14021  1.0000
  C   C1845     1.0  0.90872  0.11383  0.13886  1.0000
  C   C1846     1.0  0.94431  0.08049  0.11687  1.0000
  H   H3254     1.0  0.50826  0.03596  0.01422  1.0000
  C   C1847     1.0  0.96346  0.14999  0.11183  1.0000
  C   C1848     1.0  0.95534  0.17476  0.10749  1.0000
  H   H3255     1.0  0.90854  0.99107  0.04222  1.0000
  H   H3256     1.0  0.68067  0.28371  0.21214  1.0000
  H   H3257     1.0  0.71034  0.23097  0.19730  1.0000
  H   H3258     1.0  0.96132  0.10760  0.10578  1.0000
  H   H3259     1.0  0.93211  0.11531  0.10993  1.0000
  H   H3260     1.0  0.92952  0.14554  0.12130  1.0000
  H   H3261     1.0  0.94666  0.14658  0.13367  1.0000
  C   C1849     1.0  0.59810  0.17204  0.14360  1.0000
  H   H3262     1.0  0.88091  0.00977  0.02683  1.0000
  H   H3263     1.0  0.93747  0.08867  0.14370  1.0000
  H   H3264     1.0  0.93580  0.11437  0.14936  1.0000
  H   H3265     1.0  0.90503  0.11131  0.12864  1.0000
  H   H3266     1.0  0.90362  0.13173  0.13978  1.0000
  C   C1850     1.0  0.77798  0.29062  0.16925  1.0000
  H   H3267     1.0  0.92914  0.07701  0.12463  1.0000
  C   C1851     1.0  0.53812  0.28193  0.11262  1.0000
  S   S422      1.0  0.48986  0.18314  0.11364  1.0000
  H   H3268     1.0  0.82690  0.01015  0.02530  1.0000
  H   H3269     1.0  0.81890  0.02987  0.99612  1.0000
  H   H3270     1.0  0.49016  0.10173  0.98161  1.0000
  H   H3271     1.0  0.93899  0.17733  0.10368  1.0000
  H   H3272     1.0  0.95347  0.18373  0.11656  1.0000
  H   H3273     1.0  0.49267  0.27398  0.14680  1.0000
  H   H3274     1.0  0.64423  0.01707  0.97256  1.0000
  C   C1852     1.0  0.69598  0.20213  0.19712  1.0000
  H   H3275     1.0  0.85984  0.99490  0.05784  1.0000
  H   H3276     1.0  0.96599  0.05375  0.97594  1.0000
  H   H3277     1.0  0.54077  0.00256  0.00704  1.0000
  H   H3278     1.0  0.67461  0.03205  0.97981  1.0000
  H   H3279     1.0  0.82491  0.99742  0.05124  1.0000
  Fe  Fe214     1.0  0.50602  0.21374  0.11104  1.0000
  H   H3280     1.0  0.98613  0.10861  0.12039  1.0000
  S   S423      1.0  0.63209  0.01043  0.08554  1.0000
  Fe  Fe215     1.0  0.80332  0.99156  0.10819  1.0000
  C   C1853     1.0  0.71355  0.21288  0.20148  1.0000
  H   H3281     1.0  0.51547  0.08418  0.00136  1.0000
  C   C1854     1.0  0.73844  0.31228  0.15386  1.0000
  H   H3282     1.0  0.51388  0.99495  0.06506  1.0000
  H   H3283     1.0  0.87763  0.19074  0.19926  1.0000
  H   H3284     1.0  0.51425  0.04435  0.98671  1.0000
  H   H3285     1.0  0.73539  0.29729  0.16181  1.0000
  H   H3286     1.0  0.87436  0.14522  0.21821  1.0000
  H   H3287     1.0  0.66881  0.18157  0.13114  1.0000
  H   H3288     1.0  0.71049  0.16538  0.12777  1.0000
  H   H3289     1.0  0.65838  0.00434  0.10759  1.0000
  H   H3290     1.0  0.69823  0.00689  0.10774  1.0000
  H   H3291     1.0  0.66827  0.22315  0.14916  1.0000
  H   H3292     1.0  0.56073  0.30212  0.14008  1.0000
  C   C1855     1.0  0.88890  0.07854  0.21279  1.0000
  C   C1856     1.0  0.62539  0.20224  0.17330  1.0000
  Fe  Fe216     1.0  0.66908  0.30658  0.16765  1.0000
  H   H3293     1.0  0.67124  0.21714  0.12260  1.0000
  S   S424      1.0  0.50609  0.24069  0.09166  1.0000
  H   H3294     1.0  0.86684  0.09172  0.02834  1.0000
  C   C1857     1.0  0.98371  0.98599  0.98505  1.0000
  H   H3295     1.0  0.66997  0.25681  0.11330  1.0000
  C   C1858     1.0  0.51603  0.30836  0.13442  1.0000
  C   C1859     1.0  0.64720  0.19111  0.16488  1.0000
  H   H3296     1.0  0.51793  0.09306  0.13647  1.0000
  H   H3297     1.0  0.69885  0.18381  0.20051  1.0000
  C   C1860     1.0  0.69256  0.18373  0.14458  1.0000
  C   C1861     1.0  0.71040  0.16530  0.13919  1.0000
  H   H3298     1.0  0.70731  0.14876  0.14532  1.0000
  H   H3299     1.0  0.96574  0.14223  0.10222  1.0000
  H   H3300     1.0  0.92228  0.09704  0.21808  1.0000
  H   H3301     1.0  0.95916  0.06984  0.12079  1.0000
  H   H3302     1.0  0.81691  0.01092  0.07416  1.0000
  C   C1862     1.0  0.84829  0.02324  0.00670  1.0000
  H   H3303     1.0  0.87374  0.20651  0.21353  1.0000
  H   H3304     1.0  0.69708  0.19983  0.13853  1.0000
  H   H3305     1.0  0.85661  0.18528  0.21475  1.0000
  S   S425      1.0  0.79390  0.98378  0.13187  1.0000
  H   H3306     1.0  0.89179  0.07674  0.01914  1.0000
  H   H3307     1.0  0.60990  0.20494  0.19496  1.0000
  C   C1863     1.0  0.88122  0.07816  0.02963  1.0000
  H   H3308     1.0  0.51511  0.26308  0.12720  1.0000
  C   C1864     1.0  0.87298  0.05608  0.03641  1.0000
  H   H3309     1.0  0.65402  0.26406  0.12969  1.0000
  H   H3310     1.0  0.84593  0.06348  0.02405  1.0000
  H   H3311     1.0  0.86308  0.05828  0.04694  1.0000
  H   H3312     1.0  0.88816  0.04358  0.03770  1.0000
  H   H3313     1.0  0.54807  0.07852  0.97997  1.0000
  S   S426      1.0  0.54340  0.00786  0.97702  1.0000
  H   H3314     1.0  0.51743  0.10849  0.97932  1.0000
  H   H3315     1.0  0.80231  0.01744  0.04504  1.0000
  H   H3316     1.0  0.96767  0.18199  0.09875  1.0000
  H   H3317     1.0  0.52373  0.12536  0.07205  1.0000
  H   H3318     1.0  0.85387  0.03922  0.00125  1.0000
  H   H3319     1.0  0.80292  0.26209  0.17475  1.0000
  H   H3320     1.0  0.52693  0.31209  0.03357  1.0000
  C   C1865     1.0  0.65401  0.22048  0.14446  1.0000
  H   H3321     1.0  0.84390  0.01605  0.98655  1.0000
  H   H3322     1.0  0.89820  0.10099  0.16120  1.0000
  H   H3323     1.0  0.71869  0.24964  0.21692  1.0000
  H   H3324     1.0  0.74087  0.23874  0.20443  1.0000
  C   C1866     1.0  0.50914  0.06231  0.98752  1.0000
  C   C1867     1.0  0.83176  0.03221  0.04598  1.0000
  C   C1868     1.0  0.54714  0.30202  0.14940  1.0000
  C   C1869     1.0  0.96344  0.15147  0.19935  1.0000
  H   H3325     1.0  0.71512  0.29896  0.13559  1.0000
  C   C1870     1.0  0.51374  0.27941  0.11998  1.0000
  C   C1871     1.0  0.77470  0.16040  0.21845  1.0000
  C   C1872     1.0  0.75160  0.17480  0.21919  1.0000
  S   S427      1.0  0.98233  0.98521  0.06526  1.0000
  H   H3326     1.0  0.82857  0.00059  0.00173  1.0000
  C   C1873     1.0  0.88622  0.10028  0.21857  1.0000
  C   C1874     1.0  0.93003  0.11011  0.98746  1.0000
  H   H3327     1.0  0.97579  0.08691  0.13313  1.0000
  C   C1875     1.0  0.73205  0.28934  0.13643  1.0000
  C   C1876     1.0  0.74744  0.30404  0.13947  1.0000
  C   C1877     1.0  0.81580  0.01455  0.05163  1.0000
  H   H3328     1.0  0.80735  0.27471  0.15640  1.0000
  H   H3329     1.0  0.98575  0.00786  0.00642  1.0000
  H   H3330     1.0  0.49449  0.30137  0.05185  1.0000
  C   C1878     1.0  0.73496  0.23823  0.21601  1.0000
  C   C1879     1.0  0.75787  0.26982  0.21177  1.0000
  H   H3331     1.0  0.76936  0.27740  0.21631  1.0000
  H   H3332     1.0  0.96931  0.15647  0.18784  1.0000
  H   H3333     1.0  0.49965  0.99908  0.00936  1.0000
  C   C1880     1.0  0.71208  0.20921  0.21784  1.0000
  H   H3334     1.0  0.49234  0.08718  0.08462  1.0000
  C   C1881     1.0  0.83393  0.01705  0.99726  1.0000
  H   H3335     1.0  0.90129  0.06571  0.21793  1.0000
  H   H3336     1.0  0.49969  0.10531  0.15076  1.0000
  H   H3337     1.0  0.90750  0.17862  0.21448  1.0000
  C   C1882     1.0  0.75331  0.19936  0.21964  1.0000
  H   H3338     1.0  0.73692  0.30016  0.18536  1.0000
  C   C1883     1.0  0.93159  0.13711  0.21747  1.0000
  H   H3339     1.0  0.76434  0.29401  0.13951  1.0000
  C   C1884     1.0  0.93604  0.04174  0.97387  1.0000
  H   H3340     1.0  0.87250  0.07234  0.21505  1.0000
  C   C1885     1.0  0.89105  0.17276  0.21816  1.0000
  H   H3341     1.0  0.74475  0.17376  0.20962  1.0000
  H   H3342     1.0  0.49529  0.26686  0.05106  1.0000
  H   H3343     1.0  0.49052  0.06473  0.99013  1.0000
  H   H3344     1.0  0.92913  0.08961  0.97241  1.0000
  C   C1886     1.0  0.50398  0.09046  0.14537  1.0000
  H   H3345     1.0  0.74251  0.28210  0.21047  1.0000
  C   C1887     1.0  0.94237  0.98132  0.97298  1.0000
  C   C1888     1.0  0.77618  0.31358  0.15956  1.0000
  H   H3346     1.0  0.61484  0.98633  0.97197  1.0000
  S   S428      1.0  0.89673  0.02711  0.97193  1.0000
  C   C1889     1.0  0.93877  0.16139  0.38784  1.0000
  C   C1890     1.0  0.53624  0.28201  0.41655  1.0000
  Fe  Fe217     1.0  0.65856  0.25176  0.31121  1.0000
  C   C1891     1.0  0.52092  0.25621  0.40614  1.0000
  S   S429      1.0  0.62232  0.25981  0.32169  1.0000
  Fe  Fe218     1.0  0.70076  0.21871  0.30453  1.0000
  S   S430      1.0  0.72120  0.24553  0.29399  1.0000
  S   S431      1.0  0.71661  0.18282  0.30416  1.0000
  Fe  Fe219     1.0  0.70440  0.26352  0.31212  1.0000
  Fe  Fe220     1.0  0.69112  0.26092  0.28358  1.0000
  S   S432      1.0  0.69836  0.27525  0.26013  1.0000
  S   S433      1.0  0.68616  0.23516  0.32356  1.0000
  S   S434      1.0  0.67153  0.23286  0.29298  1.0000
  S   S435      1.0  0.56007  0.18833  0.35406  1.0000
  C   C1892     1.0  0.51365  0.27562  0.32390  1.0000
  Fe  Fe221     1.0  0.85832  0.08738  0.31447  1.0000
  S   S436      1.0  0.88604  0.10370  0.30000  1.0000
  S   S437      1.0  0.85952  0.04999  0.31590  1.0000
  Fe  Fe222     1.0  0.83339  0.13176  0.32184  1.0000
  S   S438      1.0  0.85946  0.15126  0.30842  1.0000
  S   S439      1.0  0.80273  0.15008  0.33392  1.0000
  Fe  Fe223     1.0  0.85869  0.12994  0.29228  1.0000
  S   S440      1.0  0.85649  0.14833  0.26996  1.0000
  Fe  Fe224     1.0  0.88465  0.12365  0.31736  1.0000
  S   S441      1.0  0.91861  0.12571  0.32310  1.0000
  S   S442      1.0  0.83114  0.11217  0.30520  1.0000
  S   S443      1.0  0.85849  0.10558  0.33231  1.0000
  C   C1893     1.0  0.91864  0.98288  0.35957  1.0000
  H   H3347     1.0  0.50740  0.08194  0.45147  1.0000
  H   H3348     1.0  0.68048  0.29538  0.37874  1.0000
  H   H3349     1.0  0.88835  0.10220  0.26347  1.0000
  S   S444      1.0  0.94954  0.20214  0.34745  1.0000
  H   H3350     1.0  0.92611  0.17365  0.38253  1.0000
  C   C1894     1.0  0.92687  0.14763  0.32942  1.0000
  C   C1895     1.0  0.94968  0.14694  0.33007  1.0000
  C   C1896     1.0  0.95693  0.16354  0.33545  1.0000
  C   C1897     1.0  0.94139  0.18101  0.34032  1.0000
  C   C1898     1.0  0.91862  0.18181  0.33954  1.0000
  C   C1899     1.0  0.91137  0.16525  0.33413  1.0000
  H   H3351     1.0  0.96183  0.13350  0.32632  1.0000
  H   H3352     1.0  0.97454  0.16298  0.33568  1.0000
  H   H3353     1.0  0.90650  0.19530  0.34315  1.0000
  H   H3354     1.0  0.89379  0.16604  0.33368  1.0000
  C   C1900     1.0  0.83046  0.11982  0.23721  1.0000
  C   C1901     1.0  0.83362  0.14211  0.23479  1.0000
  C   C1902     1.0  0.84083  0.15087  0.24516  1.0000
  C   C1903     1.0  0.84470  0.13748  0.25808  1.0000
  C   C1904     1.0  0.84051  0.11548  0.26080  1.0000
  C   C1905     1.0  0.83341  0.10670  0.25038  1.0000
  H   H3355     1.0  0.70948  0.19176  0.22201  1.0000
  H   H3356     1.0  0.84392  0.16793  0.24301  1.0000
  H   H3357     1.0  0.84341  0.10502  0.27074  1.0000
  H   H3358     1.0  0.83077  0.08949  0.25238  1.0000
  C   C1906     1.0  0.74008  0.17351  0.31281  1.0000
  C   C1907     1.0  0.75628  0.15622  0.30824  1.0000
  C   C1908     1.0  0.77586  0.14946  0.31433  1.0000
  C   C1909     1.0  0.77869  0.15886  0.32571  1.0000
  C   C1910     1.0  0.76189  0.17530  0.33080  1.0000
  C   C1911     1.0  0.74286  0.18299  0.32416  1.0000
  H   H3359     1.0  0.75403  0.14858  0.29961  1.0000
  H   H3360     1.0  0.78860  0.13684  0.31031  1.0000
  H   H3361     1.0  0.76385  0.18253  0.33968  1.0000
  H   H3362     1.0  0.73028  0.19614  0.32790  1.0000
  C   C1912     1.0  0.60537  0.23955  0.33044  1.0000
  C   C1913     1.0  0.61281  0.21676  0.33070  1.0000
  C   C1914     1.0  0.59877  0.20120  0.33798  1.0000
  C   C1915     1.0  0.57729  0.20829  0.34508  1.0000
  C   C1916     1.0  0.56991  0.23106  0.34482  1.0000
  C   C1917     1.0  0.58381  0.24661  0.33743  1.0000
  H   H3363     1.0  0.62938  0.21114  0.32531  1.0000
  H   H3364     1.0  0.60462  0.18359  0.33813  1.0000
  H   H3365     1.0  0.55348  0.23674  0.35032  1.0000
  H   H3366     1.0  0.57793  0.26422  0.33719  1.0000
  C   C1918     1.0  0.66919  0.25369  0.25112  1.0000
  C   C1919     1.0  0.68398  0.26933  0.24751  1.0000
  C   C1920     1.0  0.68812  0.28003  0.23339  1.0000
  H   H3367     1.0  0.83075  0.15255  0.22488  1.0000
  C   C1921     1.0  0.90617  0.10481  0.26109  1.0000
  S   S445      1.0  0.50504  0.23245  0.35524  1.0000
  H   H3368     1.0  0.56760  0.24639  0.29718  1.0000
  C   C1922     1.0  0.53303  0.26028  0.41607  1.0000
  H   H3369     1.0  0.53959  0.24656  0.42359  1.0000
  H   H3370     1.0  0.66585  0.24536  0.26195  1.0000
  H   H3371     1.0  0.78996  0.06096  0.29394  1.0000
  H   H3372     1.0  0.88164  0.25814  0.37368  1.0000
  C   C1923     1.0  0.66289  0.25945  0.22654  1.0000
  H   H3373     1.0  0.53640  0.24329  0.28824  1.0000
  H   H3374     1.0  0.98399  0.26964  0.36882  1.0000
  H   H3375     1.0  0.78192  0.15973  0.22818  1.0000
  Fe  Fe225     1.0  0.98457  0.20267  0.35198  1.0000
  C   C1924     1.0  0.56356  0.28144  0.36649  1.0000
  C   C1925     1.0  0.53551  0.22611  0.29413  1.0000
  C   C1926     1.0  0.78205  0.09683  0.35402  1.0000
  C   C1927     1.0  0.81784  0.00623  0.35077  1.0000
  C   C1928     1.0  0.82142  0.02698  0.35298  1.0000
  C   C1929     1.0  0.83408  0.04055  0.34236  1.0000
  C   C1930     1.0  0.84320  0.03354  0.32940  1.0000
  C   C1931     1.0  0.83967  0.01276  0.32718  1.0000
  C   C1932     1.0  0.82691  0.99920  0.33779  1.0000
  H   H3376     1.0  0.81448  0.03253  0.36301  1.0000
  H   H3377     1.0  0.83703  0.05632  0.34425  1.0000
  H   H3378     1.0  0.84668  0.00720  0.31716  1.0000
  H   H3379     1.0  0.52168  0.27262  0.33355  1.0000
  H   H3380     1.0  0.75284  0.04863  0.32512  1.0000
  H   H3381     1.0  0.55245  0.28742  0.37581  1.0000
  H   H3382     1.0  0.93501  0.09386  0.34775  1.0000
  H   H3383     1.0  0.52481  0.19787  0.33515  1.0000
  H   H3384     1.0  0.93738  0.13600  0.37623  1.0000
  H   H3385     1.0  0.80038  0.24861  0.23228  1.0000
  C   C1933     1.0  0.79810  0.06610  0.31383  1.0000
  H   H3386     1.0  0.54518  0.15954  0.33441  1.0000
  H   H3387     1.0  0.92502  0.99569  0.36374  1.0000
  H   H3388     1.0  0.93237  0.25279  0.34470  1.0000
  S   S446      1.0  0.49596  0.18033  0.36433  1.0000
  H   H3389     1.0  0.86838  0.98792  0.34747  1.0000
  H   H3390     1.0  0.95866  0.27537  0.35174  1.0000
  C   C1934     1.0  0.53003  0.16551  0.32926  1.0000
  H   H3391     1.0  0.81933  0.05459  0.29540  1.0000
  C   C1935     1.0  0.95049  0.14486  0.37797  1.0000
  H   H3392     1.0  0.72522  0.20284  0.26792  1.0000
  H   H3393     1.0  0.53174  0.15756  0.31973  1.0000
  H   H3394     1.0  0.93392  0.23507  0.36758  1.0000
  C   C1936     1.0  0.96288  0.29687  0.40254  1.0000
  H   H3395     1.0  0.50007  0.13019  0.45753  1.0000
  N   N104      1.0  0.59612  0.22900  0.38770  1.0000
  C   C1937     1.0  0.61935  0.22985  0.37926  1.0000
  C   C1938     1.0  0.59585  0.23444  0.40220  1.0000
  C   C1939     1.0  0.59164  0.20527  0.38969  1.0000
  C   C1940     1.0  0.57796  0.24422  0.38047  1.0000
  H   H3396     1.0  0.73729  0.01708  0.34089  1.0000
  C   C1941     1.0  0.62393  0.22005  0.36531  1.0000
  C   C1942     1.0  0.56984  0.19986  0.39975  1.0000
  C   C1943     1.0  0.60069  0.25789  0.40282  1.0000
  C   C1944     1.0  0.60497  0.25919  0.41758  1.0000
  H   H3397     1.0  0.91439  0.27817  0.34025  1.0000
  H   H3398     1.0  0.89579  0.98699  0.33796  1.0000
  C   C1945     1.0  0.56502  0.17688  0.39876  1.0000
  H   H3399     1.0  0.63224  0.22052  0.38574  1.0000
  H   H3400     1.0  0.62328  0.24707  0.37657  1.0000
  H   H3401     1.0  0.57912  0.23345  0.40885  1.0000
  H   H3402     1.0  0.60796  0.22180  0.40783  1.0000
  H   H3403     1.0  0.60587  0.19342  0.39372  1.0000
  H   H3404     1.0  0.59049  0.20084  0.37930  1.0000
  H   H3405     1.0  0.57155  0.23544  0.37344  1.0000
  H   H3406     1.0  0.56309  0.24871  0.38846  1.0000
  H   H3407     1.0  0.94775  0.28828  0.32144  1.0000
  H   H3408     1.0  0.59261  0.27552  0.37660  1.0000
  H   H3409     1.0  0.62681  0.20157  0.36768  1.0000
  H   H3410     1.0  0.60944  0.22524  0.35959  1.0000
  H   H3411     1.0  0.55524  0.21238  0.39712  1.0000
  H   H3412     1.0  0.57148  0.19956  0.41095  1.0000
  H   H3413     1.0  0.61560  0.26248  0.39524  1.0000
  H   H3414     1.0  0.58586  0.27047  0.40058  1.0000
  H   H3415     1.0  0.59115  0.25353  0.42586  1.0000
  H   H3416     1.0  0.62101  0.24866  0.41974  1.0000
  H   H3417     1.0  0.69915  0.12370  0.32196  1.0000
  H   H3418     1.0  0.74550  0.02457  0.35596  1.0000
  H   H3419     1.0  0.73957  0.09751  0.34664  1.0000
  H   H3420     1.0  0.91891  0.25979  0.39316  1.0000
  C   C1946     1.0  0.66995  0.31012  0.34910  1.0000
  H   H3421     1.0  0.65954  0.22319  0.36104  1.0000
  H   H3422     1.0  0.57904  0.16377  0.40171  1.0000
  H   H3423     1.0  0.54944  0.17334  0.40612  1.0000
  H   H3424     1.0  0.56262  0.17623  0.38782  1.0000
  H   H3425     1.0  0.95114  0.22904  0.39400  1.0000
  H   H3426     1.0  0.61616  0.98247  0.34624  1.0000
  H   H3427     1.0  0.86139  0.22914  0.37019  1.0000
  H   H3428     1.0  0.94986  0.12095  0.35750  1.0000
  H   H3429     1.0  0.51674  0.06032  0.41769  1.0000
  Fe  Fe226     1.0  0.52411  0.19969  0.36359  1.0000
  C   C1947     1.0  0.90941  0.29007  0.36739  1.0000
  H   H3430     1.0  0.76752  0.23700  0.22284  1.0000
  H   H3431     1.0  0.96022  0.11918  0.39459  1.0000
  H   H3432     1.0  0.79837  0.10295  0.37050  1.0000
  H   H3433     1.0  0.49944  0.22997  0.30347  1.0000
  H   H3434     1.0  0.95733  0.15471  0.36784  1.0000
  C   C1948     1.0  0.51557  0.06218  0.42895  1.0000
  H   H3435     1.0  0.92698  0.22226  0.40668  1.0000
  H   H3436     1.0  0.97346  0.29021  0.32716  1.0000
  C   C1949     1.0  0.65880  0.24870  0.24066  1.0000
  C   C1950     1.0  0.92866  0.25090  0.37196  1.0000
  C   C1951     1.0  0.79665  0.25020  0.24369  1.0000
  C   C1952     1.0  0.72313  0.30480  0.32719  1.0000
  C   C1953     1.0  0.91909  0.24537  0.38787  1.0000
  C   C1954     1.0  0.51128  0.22132  0.29546  1.0000
  H   H3437     1.0  0.64839  0.21870  0.34618  1.0000
  H   H3438     1.0  0.59098  0.19788  0.30324  1.0000
  H   H3439     1.0  0.54463  0.26902  0.31012  1.0000
  N   N105      1.0  0.98317  0.11175  0.37566  1.0000
  H   H3440     1.0  0.71105  0.22836  0.24093  1.0000
  H   H3441     1.0  0.81301  0.08020  0.36164  1.0000
  H   H3442     1.0  0.74110  0.29580  0.34491  1.0000
  C   C1955     1.0  0.77688  0.08298  0.31771  1.0000
  C   C1956     1.0  0.73307  0.30942  0.33794  1.0000
  C   C1957     1.0  0.80366  0.06630  0.29784  1.0000
  C   C1958     1.0  0.68598  0.30996  0.38139  1.0000
  H   H3443     1.0  0.81279  0.07037  0.31716  1.0000
  S   S447      1.0  0.49563  0.26978  0.38430  1.0000
  C   C1959     1.0  0.74963  0.02517  0.34429  1.0000
  C   C1960     1.0  0.96908  0.09632  0.37234  1.0000
  H   H3444     1.0  0.93012  0.15261  0.39785  1.0000
  C   C1961     1.0  0.74884  0.04925  0.33663  1.0000
  H   H3445     1.0  0.60561  0.23956  0.28338  1.0000
  C   C1962     1.0  0.73163  0.10467  0.32520  1.0000
  C   C1963     1.0  0.96906  0.12809  0.38469  1.0000
  H   H3446     1.0  0.64747  0.23650  0.24352  1.0000
  H   H3447     1.0  0.95102  0.17058  0.39036  1.0000
  H   H3448     1.0  0.61432  0.22829  0.30036  1.0000
  N   N106      1.0  0.80415  0.20859  0.27904  1.0000
  C   C1964     1.0  0.80286  0.18719  0.27420  1.0000
  C   C1965     1.0  0.82785  0.20791  0.28151  1.0000
  C   C1966     1.0  0.78907  0.20921  0.29326  1.0000
  C   C1967     1.0  0.79675  0.22904  0.26879  1.0000
  C   C1968     1.0  0.80216  0.22743  0.25270  1.0000
  C   C1969     1.0  0.77914  0.18367  0.27264  1.0000
  C   C1970     1.0  0.78740  0.23047  0.30000  1.0000
  C   C1971     1.0  0.84648  0.20863  0.26835  1.0000
  C   C1972     1.0  0.86973  0.20403  0.27272  1.0000
  C   C1973     1.0  0.52769  0.29961  0.40678  1.0000
  C   C1974     1.0  0.78044  0.16507  0.26408  1.0000
  C   C1975     1.0  0.77162  0.22933  0.31418  1.0000
  H   H3449     1.0  0.80945  0.17260  0.28176  1.0000
  H   H3450     1.0  0.81398  0.18557  0.26395  1.0000
  H   H3451     1.0  0.82924  0.22228  0.28634  1.0000
  H   H3452     1.0  0.83262  0.19277  0.28927  1.0000
  H   H3453     1.0  0.79436  0.19439  0.30109  1.0000
  H   H3454     1.0  0.77151  0.20821  0.29238  1.0000
  H   H3455     1.0  0.77820  0.23394  0.27109  1.0000
  H   H3456     1.0  0.80394  0.24344  0.27044  1.0000
  H   H3457     1.0  0.79208  0.21616  0.25003  1.0000
  H   H3458     1.0  0.81991  0.22098  0.24923  1.0000
  H   H3459     1.0  0.76946  0.17876  0.28320  1.0000
  H   H3460     1.0  0.76938  0.19899  0.26760  1.0000
  H   H3461     1.0  0.78089  0.24559  0.29293  1.0000
  H   H3462     1.0  0.80374  0.23268  0.30228  1.0000
  H   H3463     1.0  0.84605  0.19619  0.26169  1.0000
  H   H3464     1.0  0.84478  0.22550  0.26187  1.0000
  H   H3465     1.0  0.88278  0.20496  0.26312  1.0000
  H   H3466     1.0  0.87149  0.21647  0.27913  1.0000
  C   C1976     1.0  0.97781  0.27694  0.37824  1.0000
  C   C1977     1.0  0.78796  0.09060  0.33886  1.0000
  C   C1978     1.0  0.74871  0.10102  0.33562  1.0000
  H   H3467     1.0  0.76330  0.16181  0.26402  1.0000
  H   H3468     1.0  0.78854  0.16988  0.25296  1.0000
  H   H3469     1.0  0.79022  0.14946  0.26888  1.0000
  H   H3470     1.0  0.76974  0.24523  0.31827  1.0000
  H   H3471     1.0  0.75476  0.22666  0.31300  1.0000
  H   H3472     1.0  0.77859  0.21569  0.32207  1.0000
  H   H3473     1.0  0.72637  0.08894  0.32428  1.0000
  H   H3474     1.0  0.60596  0.27665  0.41832  1.0000
  H   H3475     1.0  0.87265  0.18708  0.27901  1.0000
  H   H3476     1.0  0.91293  0.09104  0.24193  1.0000
  H   H3477     1.0  0.51824  0.23946  0.40604  1.0000
  H   H3478     1.0  0.90646  0.30342  0.35817  1.0000
  S   S448      1.0  0.55096  0.28636  0.42955  1.0000
  H   H3479     1.0  0.69619  0.21948  0.22201  1.0000
  H   H3480     1.0  0.71633  0.29045  0.38816  1.0000
  C   C1979     1.0  0.92607  0.26955  0.34775  1.0000
  C   C1980     1.0  0.52680  0.19085  0.32524  1.0000
  H   H3481     1.0  0.52003  0.26719  0.30302  1.0000
  H   H3482     1.0  0.95720  0.30454  0.41194  1.0000
  H   H3483     1.0  0.81379  0.10866  0.35291  1.0000
  S   S449      1.0  0.82335  0.10776  0.22392  1.0000
  H   H3484     1.0  0.90231  0.23675  0.34714  1.0000
  H   H3485     1.0  0.91617  0.09039  0.26689  1.0000
  C   C1981     1.0  0.51183  0.27388  0.39660  1.0000
  H   H3486     1.0  0.88655  0.98573  0.38310  1.0000
  C   C1982     1.0  0.96591  0.29861  0.37725  1.0000
  H   H3487     1.0  0.79417  0.10526  0.33166  1.0000
  H   H3488     1.0  0.49965  0.13538  0.38737  1.0000
  S   S450      1.0  0.72418  0.27663  0.32548  1.0000
  C   C1983     1.0  0.49427  0.07803  0.43323  1.0000
  N   N107      1.0  0.89339  0.98829  0.36028  1.0000
  H   H3489     1.0  0.69652  0.20899  0.26474  1.0000
  H   H3490     1.0  0.82407  0.98334  0.33592  1.0000
  C   C1984     1.0  0.95842  0.30866  0.38936  1.0000
  H   H3491     1.0  0.70646  0.18680  0.24509  1.0000
  H   H3492     1.0  0.90764  0.12009  0.26504  1.0000
  H   H3493     1.0  0.65425  0.28290  0.34590  1.0000
  H   H3494     1.0  0.76355  0.07907  0.31277  1.0000
  C   C1985     1.0  0.80315  0.09714  0.36009  1.0000
  C   C1986     1.0  0.95902  0.28090  0.32935  1.0000
  C   C1987     1.0  0.91473  0.10675  0.24517  1.0000
  H   H3495     1.0  0.98544  0.09695  0.40649  1.0000
  H   H3496     1.0  0.87308  0.29734  0.37422  1.0000
  H   H3497     1.0  0.90199  0.24101  0.38958  1.0000
  C   C1988     1.0  0.89380  0.23649  0.35827  1.0000
  C   C1989     1.0  0.71067  0.12070  0.32987  1.0000
  H   H3498     1.0  0.73521  0.18046  0.24831  1.0000
  H   H3499     1.0  0.56870  0.29610  0.35885  1.0000
  C   C1990     1.0  0.64471  0.22739  0.35551  1.0000
  H   H3500     1.0  0.54597  0.21512  0.28684  1.0000
  H   H3501     1.0  0.51343  0.11559  0.44296  1.0000
  N   N108      1.0  0.54499  0.22290  0.30771  1.0000
  N   N109      1.0  0.76931  0.08368  0.33334  1.0000
  H   H3502     1.0  0.75872  0.06210  0.35291  1.0000
  H   H3503     1.0  0.80635  0.08318  0.29213  1.0000
  S   S451      1.0  0.67593  0.28133  0.30088  1.0000
  H   H3504     1.0  0.64178  0.24558  0.35162  1.0000
  H   H3505     1.0  0.73919  0.11226  0.31447  1.0000
  C   C1991     1.0  0.58430  0.26613  0.37107  1.0000
  H   H3506     1.0  0.97767  0.26571  0.41377  1.0000
  S   S452      1.0  0.51504  0.20405  0.38648  1.0000
  C   C1992     1.0  0.87055  0.23027  0.35914  1.0000
  H   H3507     1.0  0.94464  0.25703  0.37162  1.0000
  H   H3508     1.0  0.78151  0.04956  0.34181  1.0000
  H   H3509     1.0  0.86063  0.24280  0.35203  1.0000
  C   C1993     1.0  0.93375  0.22555  0.39519  1.0000
  H   H3510     1.0  0.80263  0.07725  0.33887  1.0000
  H   H3511     1.0  0.77197  0.11370  0.35370  1.0000
  H   H3512     1.0  0.76657  0.01550  0.34172  1.0000
  H   H3513     1.0  0.50712  0.28912  0.45798  1.0000
  C   C1994     1.0  0.76534  0.06107  0.34159  1.0000
  H   H3514     1.0  0.77228  0.08502  0.36158  1.0000
  H   H3515     1.0  0.79582  0.04887  0.31895  1.0000
  H   H3516     1.0  0.64532  0.30321  0.36736  1.0000
  H   H3517     1.0  0.59592  0.26247  0.36130  1.0000
  H   H3518     1.0  0.70174  0.11364  0.34032  1.0000
  H   H3519     1.0  0.71520  0.13699  0.33059  1.0000
  H   H3520     1.0  0.84839  0.99995  0.37602  1.0000
  C   C1995     1.0  0.98181  0.26484  0.39139  1.0000
  H   H3521     1.0  0.55403  0.27260  0.36130  1.0000
  C   C1996     1.0  0.88710  0.01332  0.35856  1.0000
  H   H3522     1.0  0.87221  0.21382  0.35578  1.0000
  H   H3523     1.0  0.96555  0.26330  0.32813  1.0000
  C   C1997     1.0  0.60838  0.22415  0.29123  1.0000
  C   C1998     1.0  0.89862  0.02672  0.34477  1.0000
  C   C1999     1.0  0.88868  0.29501  0.37888  1.0000
  H   H3524     1.0  0.78016  0.09978  0.31205  1.0000
  H   H3525     1.0  0.51522  0.04548  0.43559  1.0000
  H   H3526     1.0  0.94123  0.30018  0.34517  1.0000
  C   C2000     1.0  0.89373  0.05171  0.34518  1.0000
  C   C2001     1.0  0.88969  0.30957  0.46915  1.0000
  H   H3527     1.0  0.88056  0.09663  0.23016  1.0000
  H   H3528     1.0  0.93279  0.10820  0.24348  1.0000
  C   C2002     1.0  0.49099  0.07993  0.44917  1.0000
  H   H3529     1.0  0.89073  0.01956  0.36777  1.0000
  H   H3530     1.0  0.86880  0.01830  0.35854  1.0000
  C   C2003     1.0  0.97446  0.27493  0.40354  1.0000
  H   H3531     1.0  0.55242  0.18765  0.30656  1.0000
  H   H3532     1.0  0.70868  0.18077  0.27062  1.0000
  H   H3533     1.0  0.98331  0.13426  0.35561  1.0000
  H   H3534     1.0  0.97170  0.10246  0.34906  1.0000
  C   C2004     1.0  0.94163  0.08869  0.35793  1.0000
  C   C2005     1.0  0.54734  0.19874  0.31474  1.0000
  H   H3535     1.0  0.91709  0.02194  0.34308  1.0000
  H   H3536     1.0  0.88757  0.28143  0.38806  1.0000
  C   C2006     1.0  0.52823  0.26289  0.31260  1.0000
  H   H3537     1.0  0.75369  0.11777  0.33462  1.0000
  H   H3538     1.0  0.73146  0.05782  0.33922  1.0000
  C   C2007     1.0  0.56811  0.22972  0.30397  1.0000
  H   H3539     1.0  0.73957  0.21943  0.24305  1.0000
  H   H3540     1.0  0.88340  0.12564  0.23973  1.0000
  C   C2008     1.0  0.94655  0.28228  0.34439  1.0000
  H   H3541     1.0  0.95524  0.09319  0.38134  1.0000
  H   H3542     1.0  0.50853  0.30934  0.38954  1.0000
  C   C2009     1.0  0.95856  0.10362  0.35854  1.0000
  H   H3543     1.0  0.90117  0.05572  0.35375  1.0000
  H   H3544     1.0  0.90106  0.06095  0.33490  1.0000
  H   H3545     1.0  0.87539  0.05748  0.34691  1.0000
  H   H3546     1.0  0.58182  0.21005  0.28661  1.0000
  H   H3547     1.0  0.90320  0.14195  0.24130  1.0000
  C   C2010     1.0  0.72560  0.21510  0.23885  1.0000
  C   C2011     1.0  0.49908  0.12786  0.44667  1.0000
  H   H3548     1.0  0.92730  0.09025  0.36672  1.0000
  H   H3549     1.0  0.80696  0.26209  0.24548  1.0000
  N   N110      1.0  0.91382  0.26737  0.36286  1.0000
  C   C2012     1.0  0.89196  0.25939  0.36300  1.0000
  C   C2013     1.0  0.72000  0.19320  0.24842  1.0000
  C   C2014     1.0  0.71216  0.19674  0.26383  1.0000
  H   H3550     1.0  0.51087  0.19615  0.32103  1.0000
  Fe  Fe227     1.0  0.49462  0.23611  0.37823  1.0000
  H   H3551     1.0  0.92448  0.29328  0.37102  1.0000
  H   H3552     1.0  0.88163  0.27193  0.35606  1.0000
  C   C2015     1.0  0.53106  0.23744  0.31795  1.0000
  C   C2016     1.0  0.90146  0.12721  0.23685  1.0000
  C   C2017     1.0  0.58684  0.21382  0.29612  1.0000
  C   C2018     1.0  0.51529  0.29559  0.39698  1.0000
  H   H3553     1.0  0.57415  0.23146  0.31372  1.0000
  H   H3554     1.0  0.53852  0.23427  0.32783  1.0000
  H   H3555     1.0  0.50190  0.09516  0.38651  1.0000
  H   H3556     1.0  0.63808  0.31134  0.44468  1.0000
  H   H3557     1.0  0.90318  0.22310  0.36518  1.0000
  H   H3558     1.0  0.62177  0.21220  0.28616  1.0000
  H   H3559     1.0  0.56109  0.19499  0.32124  1.0000
  H   H3560     1.0  0.69949  0.29219  0.23054  1.0000
  H   H3561     1.0  0.93283  0.15053  0.22330  1.0000
  H   H3562     1.0  0.98012  0.13784  0.38808  1.0000
  H   H3563     1.0  0.77860  0.25695  0.24634  1.0000
  H   H3564     1.0  0.89224  0.02397  0.33541  1.0000
  H   H3565     1.0  0.93407  0.21044  0.39056  1.0000
  H   H3566     1.0  0.51525  0.16037  0.33685  1.0000
  H   H3567     1.0  0.94970  0.07103  0.35856  1.0000
  S   S453      1.0  0.80216  0.98975  0.36461  1.0000
  C   C2019     1.0  0.49022  0.31213  0.44216  1.0000
  H   H3568     1.0  0.74054  0.16730  0.22851  1.0000
  H   H3569     1.0  0.50268  0.27655  0.44374  1.0000
  H   H3570     1.0  0.97916  0.07962  0.37141  1.0000
  H   H3571     1.0  0.74423  0.25369  0.23217  1.0000
  H   H3572     1.0  0.71972  0.30277  0.36971  1.0000
  H   H3573     1.0  0.51392  0.23309  0.32143  1.0000
  H   H3574     1.0  0.51102  0.20312  0.29826  1.0000
  C   C2020     1.0  0.71144  0.30554  0.38053  1.0000
  H   H3575     1.0  0.88648  0.17274  0.22974  1.0000
  H   H3576     1.0  0.51346  0.22043  0.27292  1.0000
  H   H3577     1.0  0.97804  0.07625  0.39818  1.0000
  H   H3578     1.0  0.49677  0.27042  0.32680  1.0000
  H   H3579     1.0  0.65371  0.30914  0.45893  1.0000
  C   C2021     1.0  0.75181  0.24879  0.22169  1.0000
  H   H3580     1.0  0.51159  0.29375  0.31977  1.0000
  H   H3581     1.0  0.53064  0.06884  0.43003  1.0000
  N   N111      1.0  0.73164  0.21485  0.22309  1.0000
  H   H3582     1.0  0.76479  0.19926  0.22724  1.0000
  H   H3583     1.0  0.51768  0.15532  0.43762  1.0000
  H   H3584     1.0  0.67864  0.31155  0.39257  1.0000
  C   C2022     1.0  0.49508  0.28895  0.45083  1.0000
  H   H3585     1.0  0.64938  0.30838  0.33344  1.0000
  C   C2023     1.0  0.67752  0.27523  0.22295  1.0000
  H   H3586     1.0  0.67620  0.29101  0.33186  1.0000
  C   C2024     1.0  0.66184  0.29735  0.33955  1.0000
  H   H3587     1.0  0.68316  0.29867  0.35435  1.0000
  H   H3588     1.0  0.92708  0.98364  0.34834  1.0000
  C   C2025     1.0  0.50164  0.15007  0.43691  1.0000
  H   H3589     1.0  0.90061  0.31051  0.45862  1.0000
  H   H3590     1.0  0.50184  0.14843  0.42572  1.0000
  C   C2026     1.0  0.50250  0.22894  0.28137  1.0000
  H   H3591     1.0  0.49560  0.09437  0.42636  1.0000
  H   H3592     1.0  0.60357  0.30929  0.39810  1.0000
  H   H3593     1.0  0.96274  0.30777  0.36701  1.0000
  H   H3594     1.0  0.62335  0.31248  0.46243  1.0000
  H   H3595     1.0  0.50166  0.24724  0.27815  1.0000
  C   C2027     1.0  0.85560  0.98209  0.37670  1.0000
  C   C2028     1.0  0.88608  0.98057  0.34833  1.0000
  H   H3596     1.0  0.50549  0.09797  0.47135  1.0000
  Fe  Fe228     1.0  0.79607  0.25895  0.70879  1.0000
  S   S454      1.0  0.77187  0.25509  0.69500  1.0000
  Fe  Fe229     1.0  0.83674  0.23945  0.68904  1.0000
  S   S455      1.0  0.81576  0.23320  0.67425  1.0000
  S   S456      1.0  0.87453  0.23129  0.68581  1.0000
  Fe  Fe230     1.0  0.79742  0.26743  0.67673  1.0000
  H   H3597     1.0  0.51682  0.08822  0.58679  1.0000
  Fe  Fe231     1.0  0.79230  0.22145  0.69377  1.0000
  S   S457      1.0  0.77797  0.18918  0.69899  1.0000
  S   S458      1.0  0.81977  0.27447  0.69060  1.0000
  S   S459      1.0  0.81509  0.22461  0.70851  1.0000
  C   C2029     1.0  0.85936  0.30371  0.66016  1.0000
  C   C2030     1.0  0.96029  0.27372  0.57923  1.0000
  Fe  Fe232     1.0  0.68887  0.14215  0.67449  1.0000
  S   S460      1.0  0.70734  0.10930  0.68324  1.0000
  S   S461      1.0  0.70362  0.17400  0.66616  1.0000
  Fe  Fe233     1.0  0.64481  0.12444  0.67872  1.0000
  S   S462      1.0  0.65951  0.08994  0.68815  1.0000
  S   S463      1.0  0.60774  0.13588  0.67783  1.0000
  Fe  Fe234     1.0  0.67714  0.10724  0.70024  1.0000
  Fe  Fe235     1.0  0.68867  0.09412  0.67063  1.0000
  S   S464      1.0  0.70954  0.06724  0.65856  1.0000
  S   S465      1.0  0.65996  0.14122  0.69237  1.0000
  S   S466      1.0  0.67273  0.12748  0.66028  1.0000
  S   S467      1.0  0.92840  0.17961  0.63653  1.0000
  Fe  Fe236     1.0  0.52918  0.18731  0.62131  1.0000
  S   S468      1.0  0.51751  0.19383  0.60005  1.0000
  S   S469      1.0  0.56511  0.16997  0.62143  1.0000
  C   C2031     1.0  0.73090  0.03696  0.70009  1.0000
  C   C2032     1.0  0.63546  0.98162  0.59125  1.0000
  C   C2033     1.0  0.51045  0.06037  0.56915  1.0000
  H   H3598     1.0  0.73685  0.03210  0.71044  1.0000
  Fe  Fe237     1.0  0.50353  0.22789  0.60567  1.0000
  S   S470      1.0  0.50546  0.26085  0.59071  1.0000
  C   C2034     1.0  0.97797  0.30495  0.58049  1.0000
  S   S471      1.0  0.51674  0.22195  0.62624  1.0000
  H   H3599     1.0  0.94804  0.28126  0.62467  1.0000
  C   C2035     1.0  0.96187  0.05026  0.55503  1.0000
  H   H3600     1.0  0.95039  0.26612  0.57396  1.0000
  C   C2036     1.0  0.56618  0.29733  0.58496  1.0000
  C   C2037     1.0  0.56574  0.27656  0.59377  1.0000
  C   C2038     1.0  0.54712  0.26534  0.59579  1.0000
  C   C2039     1.0  0.52877  0.27481  0.58896  1.0000
  C   C2040     1.0  0.52908  0.29570  0.58026  1.0000
  H   H3601     1.0  0.86798  0.27707  0.64812  1.0000
  H   H3602     1.0  0.57999  0.26897  0.59896  1.0000
  H   H3603     1.0  0.54715  0.24922  0.60247  1.0000
  C   C2041     1.0  0.93220  0.29201  0.62806  1.0000
  H   H3604     1.0  0.98009  0.22521  0.57562  1.0000
  H   H3605     1.0  0.85860  0.15989  0.71244  1.0000
  C   C2042     1.0  0.70112  0.04287  0.65553  1.0000
  C   C2043     1.0  0.71695  0.02787  0.64822  1.0000
  C   C2044     1.0  0.71120  0.00806  0.64579  1.0000
  C   C2045     1.0  0.68950  0.00309  0.65064  1.0000
  C   C2046     1.0  0.67361  0.01814  0.65789  1.0000
  C   C2047     1.0  0.67937  0.03794  0.66035  1.0000
  H   H3606     1.0  0.73382  0.03154  0.64447  1.0000
  H   H3607     1.0  0.65678  0.01440  0.66171  1.0000
  H   H3608     1.0  0.66704  0.04935  0.66598  1.0000
  C   C2048     1.0  0.59614  0.14477  0.66202  1.0000
  C   C2049     1.0  0.60838  0.14108  0.64881  1.0000
  C   C2050     1.0  0.59859  0.14874  0.63647  1.0000
  C   C2051     1.0  0.57650  0.16011  0.63723  1.0000
  C   C2052     1.0  0.56427  0.16380  0.65043  1.0000
  C   C2053     1.0  0.57405  0.15610  0.66277  1.0000
  H   H3609     1.0  0.62533  0.13222  0.64812  1.0000
  H   H3610     1.0  0.60815  0.14583  0.62628  1.0000
  H   H3611     1.0  0.54727  0.17254  0.65113  1.0000
  H   H3612     1.0  0.56446  0.15896  0.67295  1.0000
  C   C2054     1.0  0.78295  0.12185  0.67473  1.0000
  H   H3613     1.0  0.54170  0.06358  0.60220  1.0000
  H   H3614     1.0  0.97001  0.04368  0.60752  1.0000
  N   N112      1.0  0.49617  0.06234  0.59591  1.0000
  C   C2055     1.0  0.75650  0.18602  0.69017  1.0000
  C   C2056     1.0  0.75037  0.20155  0.67856  1.0000
  C   C2057     1.0  0.73401  0.19783  0.67129  1.0000
  C   C2058     1.0  0.72354  0.17875  0.67570  1.0000
  C   C2059     1.0  0.72930  0.16357  0.68753  1.0000
  C   C2060     1.0  0.74583  0.16713  0.69468  1.0000
  H   H3615     1.0  0.75845  0.21623  0.67506  1.0000
  H   H3616     1.0  0.72954  0.20969  0.66219  1.0000
  H   H3617     1.0  0.72114  0.14897  0.69114  1.0000
  H   H3618     1.0  0.75036  0.15514  0.70372  1.0000
  H   H3619     1.0  0.76951  0.13643  0.67549  1.0000
  C   C2061     1.0  0.65438  0.04459  0.71696  1.0000
  H   H3620     1.0  0.93476  0.05665  0.62300  1.0000
  S   S472      1.0  0.59044  0.31015  0.58229  1.0000
  H   H3621     1.0  0.51643  0.07667  0.56724  1.0000
  C   C2062     1.0  0.88897  0.21677  0.67208  1.0000
  C   C2063     1.0  0.91193  0.20904  0.67169  1.0000
  C   C2064     1.0  0.92415  0.19776  0.66078  1.0000
  C   C2065     1.0  0.91344  0.19395  0.65023  1.0000
  C   C2066     1.0  0.89042  0.20160  0.65062  1.0000
  C   C2067     1.0  0.87824  0.21313  0.66146  1.0000
  H   H3622     1.0  0.92027  0.21164  0.67995  1.0000
  H   H3623     1.0  0.94177  0.19156  0.66075  1.0000
  H   H3624     1.0  0.88207  0.19884  0.64243  1.0000
  H   H3625     1.0  0.86066  0.21928  0.66152  1.0000
  H   H3626     1.0  0.97860  0.03423  0.57895  1.0000
  H   H3627     1.0  0.94031  0.25249  0.61884  1.0000
  H   H3628     1.0  0.68107  0.04220  0.62069  1.0000
  H   H3629     1.0  0.88255  0.27322  0.66301  1.0000
  H   H3630     1.0  0.56655  0.26994  0.56400  1.0000
  H   H3631     1.0  0.57359  0.03453  0.59678  1.0000
  H   H3632     1.0  0.49730  0.07084  0.47676  1.0000
  H   H3633     1.0  0.96800  0.99497  0.61153  1.0000
  H   H3634     1.0  0.93615  0.02252  0.61223  1.0000
  H   H3635     1.0  0.49000  0.27494  0.62823  1.0000
  H   H3636     1.0  0.50748  0.00752  0.49825  1.0000
  H   H3637     1.0  0.95684  0.25500  0.67148  1.0000
  H   H3638     1.0  0.95736  0.24859  0.64081  1.0000
  H   H3639     1.0  0.73759  0.22183  0.70793  1.0000
  C   C2068     1.0  0.94921  0.03869  0.56871  1.0000
  C   C2069     1.0  0.96088  0.24516  0.66267  1.0000
  H   H3640     1.0  0.63633  0.99350  0.64197  1.0000
  H   H3641     1.0  0.86459  0.14606  0.69011  1.0000
  C   C2070     1.0  0.96815  0.26198  0.59162  1.0000
  S   S473      1.0  0.49793  0.17404  0.63284  1.0000
  H   H3642     1.0  0.97226  0.06159  0.55742  1.0000
  C   C2071     1.0  0.55188  0.25372  0.54287  1.0000
  C   C2072     1.0  0.87671  0.28551  0.65405  1.0000
  H   H3643     1.0  0.66101  0.01118  0.71194  1.0000
  H   H3644     1.0  0.50248  0.08571  0.49729  1.0000
  C   C2073     1.0  0.51487  0.04507  0.60113  1.0000
  H   H3645     1.0  0.70907  0.21662  0.71110  1.0000
  H   H3646     1.0  0.90953  0.13791  0.65170  1.0000
  H   H3647     1.0  0.68606  0.00324  0.68660  1.0000
  H   H3648     1.0  0.61108  0.25545  0.57133  1.0000
  C   C2074     1.0  0.63040  0.04937  0.71375  1.0000
  H   H3649     1.0  0.71614  0.29817  0.68745  1.0000
  H   H3650     1.0  0.73464  0.07151  0.69918  1.0000
  H   H3651     1.0  0.56218  0.23760  0.54078  1.0000
  C   C2075     1.0  0.58371  0.27037  0.52836  1.0000
  C   C2076     1.0  0.72240  0.22051  0.71609  1.0000
  C   C2077     1.0  0.89656  0.29558  0.64412  1.0000
  C   C2078     1.0  0.70486  0.04082  0.70187  1.0000
  H   H3652     1.0  0.54096  0.25832  0.53454  1.0000
  C   C2079     1.0  0.98140  0.27146  0.59831  1.0000
  H   H3653     1.0  0.53966  0.29437  0.55107  1.0000
  C   C2080     1.0  0.60247  0.24134  0.57090  1.0000
  C   C2081     1.0  0.91571  0.23407  0.61628  1.0000
  H   H3654     1.0  0.95232  0.19941  0.58004  1.0000
  H   H3655     1.0  0.95293  0.22987  0.66594  1.0000
  C   C2082     1.0  0.50098  0.08588  0.59411  1.0000
  H   H3656     1.0  0.92709  0.03933  0.59691  1.0000
  H   H3657     1.0  0.66718  0.03212  0.69732  1.0000
  H   H3658     1.0  0.70017  0.04573  0.69107  1.0000
  N   N113      1.0  0.91662  0.27915  0.63924  1.0000
  H   H3659     1.0  0.88980  0.30623  0.63482  1.0000
  C   C2083     1.0  0.89415  0.13040  0.65643  1.0000
  C   C2084     1.0  0.52193  0.23127  0.55711  1.0000
  H   H3660     1.0  0.88830  0.29182  0.47339  1.0000
  C   C2085     1.0  0.54766  0.30700  0.57829  1.0000
  C   C2086     1.0  0.96542  0.29511  0.57352  1.0000
  H   H3661     1.0  0.71662  0.23676  0.71984  1.0000
  H   H3662     1.0  0.69881  0.05593  0.70694  1.0000
  H   H3663     1.0  0.88630  0.99288  0.58851  1.0000
  H   H3664     1.0  0.73553  0.06355  0.68206  1.0000
  C   C2087     1.0  0.96564  0.18662  0.57574  1.0000
  H   H3665     1.0  0.98136  0.25129  0.55451  1.0000
  H   H3666     1.0  0.90091  0.22672  0.62241  1.0000
  H   H3667     1.0  0.72361  0.99660  0.64024  1.0000
  H   H3668     1.0  0.89805  0.27210  0.62436  1.0000
  H   H3669     1.0  0.90753  0.00793  0.60225  1.0000
  H   H3670     1.0  0.60910  0.99487  0.63716  1.0000
  H   H3671     1.0  0.97423  0.20610  0.55539  1.0000
  C   C2088     1.0  0.70350  0.00047  0.68880  1.0000
  C   C2089     1.0  0.92603  0.24529  0.62565  1.0000
  H   H3672     1.0  0.73822  0.02377  0.69357  1.0000
  N   N114      1.0  0.62831  0.20426  0.64992  1.0000
  C   C2090     1.0  0.64552  0.18444  0.64658  1.0000
  C   C2091     1.0  0.61723  0.19955  0.66519  1.0000
  C   C2092     1.0  0.61041  0.20656  0.64077  1.0000
  C   C2093     1.0  0.63815  0.22569  0.64697  1.0000
  C   C2094     1.0  0.66292  0.22392  0.64910  1.0000
  C   C2095     1.0  0.65534  0.18491  0.63061  1.0000
  C   C2096     1.0  0.58945  0.22429  0.64366  1.0000
  C   C2097     1.0  0.63231  0.19678  0.67662  1.0000
  C   C2098     1.0  0.61950  0.18972  0.69141  1.0000
  C   C2099     1.0  0.66927  0.24688  0.64842  1.0000
  C   C2100     1.0  0.67697  0.16849  0.62835  1.0000
  C   C2101     1.0  0.57532  0.22870  0.63178  1.0000
  H   H3673     1.0  0.63812  0.16881  0.65030  1.0000
  H   H3674     1.0  0.65964  0.18216  0.65257  1.0000
  H   H3675     1.0  0.60357  0.21327  0.66779  1.0000
  H   H3676     1.0  0.60912  0.18433  0.66695  1.0000
  H   H3677     1.0  0.60429  0.19036  0.64187  1.0000
  H   H3678     1.0  0.61750  0.21082  0.62937  1.0000
  H   H3679     1.0  0.63756  0.23403  0.63580  1.0000
  H   H3680     1.0  0.62764  0.23777  0.65357  1.0000
  H   H3681     1.0  0.67453  0.21595  0.64068  1.0000
  H   H3682     1.0  0.66630  0.21384  0.65935  1.0000
  H   H3683     1.0  0.64308  0.18021  0.62507  1.0000
  H   H3684     1.0  0.65887  0.20175  0.62541  1.0000
  H   H3685     1.0  0.59426  0.24030  0.64460  1.0000
  H   H3686     1.0  0.57852  0.21826  0.65361  1.0000
  H   H3687     1.0  0.64728  0.18407  0.67484  1.0000
  H   H3688     1.0  0.63768  0.21290  0.67672  1.0000
  H   H3689     1.0  0.60467  0.20235  0.69395  1.0000
  H   H3690     1.0  0.61383  0.17343  0.69212  1.0000
  H   H3691     1.0  0.63064  0.18791  0.69944  1.0000
  H   H3692     1.0  0.66700  0.25744  0.63804  1.0000
  H   H3693     1.0  0.65887  0.25519  0.65712  1.0000
  H   H3694     1.0  0.68716  0.24502  0.64966  1.0000
  H   H3695     1.0  0.68422  0.17053  0.61691  1.0000
  H   H3696     1.0  0.68954  0.17144  0.63436  1.0000
  H   H3697     1.0  0.67345  0.15115  0.63173  1.0000
  H   H3698     1.0  0.56987  0.21306  0.63065  1.0000
  H   H3699     1.0  0.56013  0.24093  0.63431  1.0000
  H   H3700     1.0  0.58499  0.23556  0.62154  1.0000
  H   H3701     1.0  0.96250  0.27309  0.64600  1.0000
  H   H3702     1.0  0.59248  0.25301  0.52818  1.0000
  H   H3703     1.0  0.83703  0.14242  0.69955  1.0000
  H   H3704     1.0  0.82576  0.28157  0.62560  1.0000
  H   H3705     1.0  0.75913  0.05462  0.69132  1.0000
  H   H3706     1.0  0.59841  0.25544  0.50204  1.0000
  H   H3707     1.0  0.92463  0.29789  0.61821  1.0000
  H   H3708     1.0  0.95773  0.17558  0.57108  1.0000
  H   H3709     1.0  0.71237  0.01372  0.68197  1.0000
  C   C2102     1.0  0.84373  0.28041  0.62070  1.0000
  H   H3710     1.0  0.91060  0.24627  0.60707  1.0000
  H   H3711     1.0  0.58437  0.23059  0.55739  1.0000
  H   H3712     1.0  0.52428  0.26438  0.55941  1.0000
  H   H3713     1.0  0.55515  0.01671  0.59415  1.0000
  H   H3714     1.0  0.86604  0.31036  0.66806  1.0000
  H   H3715     1.0  0.50976  0.98589  0.54290  1.0000
  H   H3716     1.0  0.92419  0.07344  0.60756  1.0000
  C   C2103     1.0  0.74054  0.05801  0.69270  1.0000
  H   H3717     1.0  0.60831  0.24340  0.54829  1.0000
  H   H3718     1.0  0.51127  0.23661  0.54868  1.0000
  C   C2104     1.0  0.91591  0.00487  0.59149  1.0000
  H   H3719     1.0  0.90161  0.30717  0.64997  1.0000
  N   N115      1.0  0.95567  0.01371  0.59267  1.0000
  H   H3720     1.0  0.92488  0.27846  0.66010  1.0000
  H   H3721     1.0  0.91874  0.25299  0.65745  1.0000
  H   H3722     1.0  0.94817  0.98879  0.58203  1.0000
  N   N116      1.0  0.69346  0.02160  0.71021  1.0000
  H   H3723     1.0  0.85357  0.26777  0.62779  1.0000
  H   H3724     1.0  0.70018  0.04520  0.60416  1.0000
  H   H3725     1.0  0.84598  0.27471  0.61031  1.0000
  Fe  Fe238     1.0  0.96520  0.18295  0.63045  1.0000
  C   C2105     1.0  0.49160  0.08890  0.47695  1.0000
  H   H3726     1.0  0.93251  0.23221  0.63402  1.0000
  H   H3727     1.0  0.54124  0.29631  0.53264  1.0000
  H   H3728     1.0  0.98058  0.09845  0.59706  1.0000
  H   H3729     1.0  0.70403  0.02019  0.61694  1.0000
  C   C2106     1.0  0.53603  0.24915  0.55722  1.0000
  H   H3730     1.0  0.89731  0.11916  0.66643  1.0000
  H   H3731     1.0  0.98032  0.27943  0.53080  1.0000
  H   H3732     1.0  0.94204  0.98276  0.60071  1.0000
  H   H3733     1.0  0.53285  0.21530  0.55543  1.0000
  C   C2107     1.0  0.59272  0.27362  0.50153  1.0000
  H   H3734     1.0  0.69439  0.98644  0.71059  1.0000
  N   N117      1.0  0.56654  0.27135  0.54164  1.0000
  C   C2108     1.0  0.97470  0.00156  0.60034  1.0000
  H   H3735     1.0  0.60729  0.28203  0.50131  1.0000
  C   C2109     1.0  0.55645  0.03005  0.60000  1.0000
  H   H3736     1.0  0.66150  0.06029  0.71416  1.0000
  C   C2110     1.0  0.84760  0.15488  0.69352  1.0000
  C   C2111     1.0  0.90824  0.26283  0.63256  1.0000
  H   H3737     1.0  0.91268  0.02046  0.58395  1.0000
  H   H3738     1.0  0.65979  0.00296  0.58965  1.0000
  H   H3739     1.0  0.93814  0.05178  0.57415  1.0000
  C   C2112     1.0  0.55180  0.29372  0.54110  1.0000
  H   H3740     1.0  0.94872  0.07923  0.61292  1.0000
  H   H3741     1.0  0.81781  0.11444  0.66627  1.0000
  C   C2113     1.0  0.57864  0.26751  0.55420  1.0000
  S   S474      1.0  0.98178  0.20329  0.64090  1.0000
  C   C2114     1.0  0.85171  0.30293  0.61890  1.0000
  H   H3742     1.0  0.85974  0.18329  0.69823  1.0000
  C   C2115     1.0  0.93852  0.31269  0.63230  1.0000
  H   H3743     1.0  0.89688  0.25288  0.64056  1.0000
  H   H3744     1.0  0.65159  0.98932  0.56924  1.0000
  C   C2116     1.0  0.96575  0.02423  0.57815  1.0000
  H   H3745     1.0  0.97509  0.01126  0.57197  1.0000
  C   C2117     1.0  0.50253  0.05817  0.55560  1.0000
  S   S475      1.0  0.79112  0.28943  0.65606  1.0000
  C   C2118     1.0  0.59362  0.24457  0.55688  1.0000
  C   C2119     1.0  0.93956  0.06572  0.61215  1.0000
  C   C2120     1.0  0.65288  0.98985  0.59794  1.0000
  C   C2121     1.0  0.66897  0.02654  0.70869  1.0000
  N   N118      1.0  0.64427  0.99865  0.61175  1.0000
  C   C2122     1.0  0.66374  0.00563  0.61632  1.0000
  H   H3746     1.0  0.58587  0.28009  0.49151  1.0000
  C   C2123     1.0  0.94134  0.99674  0.59160  1.0000
  C   C2124     1.0  0.62525  0.01757  0.60959  1.0000
  C   C2125     1.0  0.62119  0.03558  0.61934  1.0000
  C   C2126     1.0  0.67650  0.02254  0.60532  1.0000
  H   H3747     1.0  0.49648  0.30481  0.60808  1.0000
  C   C2127     1.0  0.50024  0.30675  0.61844  1.0000
  H   H3748     1.0  0.67485  0.14143  0.72056  1.0000
  C   C2128     1.0  0.59926  0.05131  0.61770  1.0000
  H   H3749     1.0  0.62091  0.99480  0.58961  1.0000
  C   C2129     1.0  0.53915  0.05055  0.59651  1.0000
  H   H3750     1.0  0.58846  0.24002  0.57993  1.0000
  H   H3751     1.0  0.65848  0.01252  0.62634  1.0000
  H   H3752     1.0  0.84911  0.30757  0.62957  1.0000
  H   H3753     1.0  0.56043  0.26965  0.51374  1.0000
  H   H3754     1.0  0.93890  0.02803  0.56562  1.0000
  H   H3755     1.0  0.98885  0.13400  0.60165  1.0000
  H   H3756     1.0  0.62793  0.02684  0.59855  1.0000
  H   H3757     1.0  0.60931  0.01080  0.61066  1.0000
  H   H3758     1.0  0.63489  0.04587  0.61655  1.0000
  H   H3759     1.0  0.62049  0.02834  0.63068  1.0000
  H   H3760     1.0  0.68774  0.01383  0.59705  1.0000
  H   H3761     1.0  0.66484  0.03592  0.59999  1.0000
  H   H3762     1.0  0.51078  0.22844  0.56750  1.0000
  H   H3763     1.0  0.54295  0.05681  0.58504  1.0000
  C   C2130     1.0  0.95287  0.25893  0.64928  1.0000
  H   H3764     1.0  0.94975  0.06029  0.54828  1.0000
  H   H3765     1.0  0.63024  0.05488  0.70222  1.0000
  C   C2131     1.0  0.92732  0.26741  0.65198  1.0000
  H   H3766     1.0  0.92818  0.22050  0.61221  1.0000
  H   H3767     1.0  0.58475  0.04208  0.62120  1.0000
  H   H3768     1.0  0.59722  0.06443  0.62439  1.0000
  H   H3769     1.0  0.59934  0.05954  0.60650  1.0000
  C   C2132     1.0  0.80532  0.12953  0.66778  1.0000
  H   H3770     1.0  0.56853  0.29647  0.51262  1.0000
  H   H3771     1.0  0.77824  0.11108  0.66821  1.0000
  H   H3772     1.0  0.54556  0.24316  0.56616  1.0000
  H   H3773     1.0  0.89076  0.12061  0.64884  1.0000
  H   H3774     1.0  0.81763  0.13123  0.68662  1.0000
  H   H3775     1.0  0.95916  0.06006  0.59221  1.0000
  H   H3776     1.0  0.49688  0.04179  0.55671  1.0000
  H   H3777     1.0  0.51653  0.05944  0.54656  1.0000
  H   H3778     1.0  0.87921  0.15854  0.66649  1.0000
  H   H3779     1.0  0.51229  0.04166  0.61294  1.0000
  C   C2133     1.0  0.69129  0.03317  0.61224  1.0000
  H   H3780     1.0  0.51013  0.08106  0.61556  1.0000
  H   H3781     1.0  0.56906  0.30648  0.61530  1.0000
  H   H3782     1.0  0.97291  0.03780  0.54898  1.0000
  C   C2134     1.0  0.95462  0.04999  0.60275  1.0000
  C   C2135     1.0  0.57454  0.27827  0.51414  1.0000
  C   C2136     1.0  0.94234  0.03089  0.60136  1.0000
  H   H3783     1.0  0.50698  0.12783  0.59735  1.0000
  N   N119      1.0  0.83250  0.15563  0.67019  1.0000
  C   C2137     1.0  0.83726  0.16871  0.68060  1.0000
  C   C2138     1.0  0.82683  0.17177  0.65717  1.0000
  H   H3784     1.0  0.97365  0.30803  0.62253  1.0000
  C   C2139     1.0  0.85261  0.13902  0.66586  1.0000
  C   C2140     1.0  0.87451  0.14884  0.65935  1.0000
  C   C2141     1.0  0.98598  0.29312  0.59282  1.0000
  C   C2142     1.0  0.84988  0.16987  0.70377  1.0000
  C   C2143     1.0  0.80350  0.18651  0.65895  1.0000
  C   C2144     1.0  0.80093  0.20465  0.64606  1.0000
  H   H3785     1.0  0.71969  0.29273  0.66957  1.0000
  H   H3786     1.0  0.62214  0.03428  0.71734  1.0000
  H   H3787     1.0  0.51804  0.29963  0.61898  1.0000
  H   H3788     1.0  0.82166  0.17901  0.68490  1.0000
  H   H3789     1.0  0.84857  0.18101  0.67523  1.0000
  H   H3790     1.0  0.83956  0.18322  0.65352  1.0000
  H   H3791     1.0  0.82784  0.16291  0.64810  1.0000
  H   H3792     1.0  0.79858  0.15490  0.68147  1.0000
  H   H3793     1.0  0.91110  0.98538  0.57623  1.0000
  H   H3794     1.0  0.85599  0.12570  0.67499  1.0000
  H   H3795     1.0  0.84917  0.13024  0.65773  1.0000
  C   C2145     1.0  0.98292  0.19751  0.56437  1.0000
  H   H3796     1.0  0.87252  0.15992  0.64912  1.0000
  H   H3797     1.0  0.51439  0.02883  0.59792  1.0000
  H   H3798     1.0  0.59722  0.28021  0.52829  1.0000
  H   H3799     1.0  0.86989  0.30064  0.61471  1.0000
  H   H3800     1.0  0.80309  0.13918  0.65720  1.0000
  H   H3801     1.0  0.78985  0.17640  0.66024  1.0000
  H   H3802     1.0  0.80084  0.19472  0.66839  1.0000
  H   H3803     1.0  0.80284  0.19715  0.63633  1.0000
  H   H3804     1.0  0.78399  0.21468  0.64765  1.0000
  H   H3805     1.0  0.81358  0.21596  0.64464  1.0000
  S   S476      1.0  0.95726  0.30838  0.55719  1.0000
  H   H3806     1.0  0.51492  0.30310  0.57494  1.0000
  C   C2146     1.0  0.81321  0.14326  0.67718  1.0000
  H   H3807     1.0  0.51326  0.12089  0.61511  1.0000
  H   H3808     1.0  0.78404  0.11224  0.68551  1.0000
  H   H3809     1.0  0.55389  0.02364  0.61156  1.0000
  C   C2147     1.0  0.70361  0.00019  0.70475  1.0000
  C   C2148     1.0  0.72295  0.30411  0.67623  1.0000
  H   H3810     1.0  0.58987  0.28020  0.55298  1.0000
  C   C2149     1.0  0.51444  0.11429  0.60511  1.0000
  S   S477      1.0  0.97573  0.20027  0.60833  1.0000
  H   H3811     1.0  0.72112  0.99491  0.70691  1.0000
  H   H3812     1.0  0.61459  0.22569  0.57204  1.0000
  H   H3813     1.0  0.53241  0.10939  0.60094  1.0000
  H   H3814     1.0  0.84400  0.29667  0.66550  1.0000
  H   H3815     1.0  0.67640  0.99084  0.61894  1.0000
  H   H3816     1.0  0.96414  0.24553  0.59589  1.0000
  H   H3817     1.0  0.52458  0.04670  0.57079  1.0000
  H   H3818     1.0  0.94269  0.30893  0.64319  1.0000
  H   H3819     1.0  0.49695  0.98589  0.52212  1.0000
  H   H3820     1.0  0.95767  0.98654  0.55397  1.0000
  H   H3821     1.0  0.97389  0.17624  0.58451  1.0000
  C   C2150     1.0  0.50189  0.09430  0.60800  1.0000
  H   H3822     1.0  0.83303  0.17740  0.70856  1.0000
  H   H3823     1.0  0.74137  0.30339  0.67534  1.0000
  C   C2151     1.0  0.90470  0.98743  0.58743  1.0000
  H   H3824     1.0  0.97934  0.24010  0.66055  1.0000
  H   H3825     1.0  0.98638  0.01303  0.60085  1.0000
  H   H3826     1.0  0.53069  0.98806  0.50429  1.0000
  H   H3827     1.0  0.62062  0.06287  0.71943  1.0000
  C   C2152     1.0  0.49140  0.05828  0.58203  1.0000
  C   C2153     1.0  0.51418  0.98956  0.50083  1.0000
  C   C2154     1.0  0.62586  0.98464  0.63757  1.0000
  H   H3828     1.0  0.51675  0.98181  0.49115  1.0000
  Fe  Fe239     1.0  0.83721  0.26169  0.82834  1.0000
  S   S478      1.0  0.85586  0.23893  0.84496  1.0000
  Fe  Fe240     1.0  0.79029  0.26702  0.82134  1.0000
  S   S479      1.0  0.75808  0.25245  0.82902  1.0000
  S   S480      1.0  0.82206  0.24502  0.81471  1.0000
  H   H3829     1.0  0.96873  0.99006  0.94377  1.0000
  H   H3830     1.0  0.94152  0.99543  0.96406  1.0000
  S   S481      1.0  0.51958  0.00792  0.94391  1.0000
  Fe  Fe241     1.0  0.57980  0.01225  0.92434  1.0000
  S   S482      1.0  0.55972  0.03895  0.93635  1.0000
  S   S483      1.0  0.61253  0.02027  0.91105  1.0000
  Fe  Fe242     1.0  0.54978  0.01046  0.95310  1.0000
  Fe  Fe243     1.0  0.53163  0.03417  0.92609  1.0000
  C   C2155     1.0  0.74398  0.16916  0.75046  1.0000
  Fe  Fe244     1.0  0.81396  0.30804  0.81697  1.0000
  S   S484      1.0  0.55221  0.00907  0.91309  1.0000
  H   H3831     1.0  0.68706  0.22203  0.77853  1.0000
  Fe  Fe245     1.0  0.68227  0.11809  0.81969  1.0000
  S   S485      1.0  0.65215  0.13702  0.81024  1.0000
  S   S486      1.0  0.67731  0.08653  0.83531  1.0000
  Fe  Fe246     1.0  0.70951  0.15657  0.80934  1.0000
  S   S487      1.0  0.68102  0.17834  0.79996  1.0000
  S   S488      1.0  0.74350  0.16821  0.80547  1.0000
  Fe  Fe247     1.0  0.65855  0.16516  0.81954  1.0000
  S   S489      1.0  0.63309  0.18705  0.83296  1.0000
  Fe  Fe248     1.0  0.67735  0.14822  0.79130  1.0000
  S   S490      1.0  0.67358  0.15784  0.76801  1.0000
  S   S491      1.0  0.68756  0.14599  0.82982  1.0000
  S   S492      1.0  0.70701  0.12675  0.79993  1.0000
  S   S493      1.0  0.51864  0.20988  0.88009  1.0000
  Fe  Fe249     1.0  0.50690  0.19952  0.86225  1.0000
  S   S494      1.0  0.52841  0.18475  0.84370  1.0000
  C   C2156     1.0  0.84755  0.30243  0.85781  1.0000
  S   S495      1.0  0.75195  0.00156  0.83916  1.0000
  H   H3832     1.0  0.76646  0.14735  0.76436  1.0000
  Fe  Fe250     1.0  0.87739  0.02108  0.92392  1.0000
  S   S496      1.0  0.90601  0.03092  0.90707  1.0000
  S   S497      1.0  0.84327  0.01595  0.91955  1.0000
  Fe  Fe251     1.0  0.90143  0.02795  0.94796  1.0000
  S   S498      1.0  0.93161  0.03779  0.93274  1.0000
  C   C2157     1.0  0.54121  0.12360  0.86164  1.0000
  Fe  Fe252     1.0  0.90717  0.05822  0.91909  1.0000
  S   S499      1.0  0.90675  0.09482  0.90943  1.0000
  Fe  Fe253     1.0  0.92806  0.00957  0.92211  1.0000
  H   H3833     1.0  0.76456  0.30744  0.77575  1.0000
  S   S500      1.0  0.87693  0.05008  0.93499  1.0000
  S   S501      1.0  0.89947  0.99805  0.93835  1.0000
  H   H3834     1.0  0.73391  0.00320  0.91680  1.0000
  S   S502      1.0  0.97318  0.21407  0.89054  1.0000
  S   S503      1.0  0.95109  0.25314  0.85519  1.0000
  H   H3835     1.0  0.67257  0.99541  0.92691  1.0000
  C   C2158     1.0  0.69643  0.01900  0.72550  1.0000
  H   H3836     1.0  0.56598  0.07308  0.90727  1.0000
  H   H3837     1.0  0.62432  0.24114  0.78618  1.0000
  H   H3838     1.0  0.68812  0.25452  0.79376  1.0000
  Fe  Fe254     1.0  0.49353  0.18956  0.89412  1.0000
  C   C2159     1.0  0.93057  0.10852  0.90377  1.0000
  C   C2160     1.0  0.95227  0.09729  0.90472  1.0000
  C   C2161     1.0  0.97062  0.10911  0.90093  1.0000
  C   C2162     1.0  0.96751  0.13213  0.89584  1.0000
  C   C2163     1.0  0.94589  0.14324  0.89454  1.0000
  C   C2164     1.0  0.92750  0.13149  0.89859  1.0000
  H   H3839     1.0  0.95485  0.07958  0.90858  1.0000
  H   H3840     1.0  0.94330  0.16093  0.89059  1.0000
  H   H3841     1.0  0.91077  0.14028  0.89776  1.0000
  H   H3842     1.0  0.89846  0.13422  0.94854  1.0000
  C   C2165     1.0  0.63267  0.23257  0.79534  1.0000
  C   C2166     1.0  0.49449  0.10583  0.90591  1.0000
  C   C2167     1.0  0.83514  0.99728  0.91024  1.0000
  H   H3843     1.0  0.63314  0.27697  0.82452  1.0000
  H   H3844     1.0  0.91617  0.16047  0.92833  1.0000
  C   C2168     1.0  0.69965  0.01347  0.92662  1.0000
  H   H3845     1.0  0.71443  0.01459  0.72656  1.0000
  H   H3846     1.0  0.94495  0.09336  0.93312  1.0000
  H   H3847     1.0  0.80445  0.29020  0.86541  1.0000
  H   H3848     1.0  0.65225  0.28333  0.80881  1.0000
  H   H3849     1.0  0.66687  0.00191  0.73478  1.0000
  C   C2169     1.0  0.69811  0.06295  0.83613  1.0000
  C   C2170     1.0  0.69660  0.04640  0.84820  1.0000
  C   C2171     1.0  0.71297  0.02737  0.84922  1.0000
  C   C2172     1.0  0.73073  0.02473  0.83807  1.0000
  C   C2173     1.0  0.73211  0.04113  0.82595  1.0000
  C   C2174     1.0  0.71587  0.06028  0.82498  1.0000
  H   H3850     1.0  0.68276  0.04836  0.85679  1.0000
  H   H3851     1.0  0.71184  0.01476  0.85859  1.0000
  H   H3852     1.0  0.74579  0.03905  0.81727  1.0000
  H   H3853     1.0  0.71698  0.07288  0.81560  1.0000
  C   C2175     1.0  0.60410  0.18600  0.83573  1.0000
  C   C2176     1.0  0.59001  0.19764  0.84588  1.0000
  C   C2177     1.0  0.56678  0.19739  0.84838  1.0000
  C   C2178     1.0  0.55747  0.18557  0.84068  1.0000
  C   C2179     1.0  0.57152  0.17405  0.83045  1.0000
  C   C2180     1.0  0.59482  0.17419  0.82800  1.0000
  H   H3854     1.0  0.59708  0.20692  0.85184  1.0000
  H   H3855     1.0  0.55610  0.20652  0.85617  1.0000
  H   H3856     1.0  0.56444  0.16496  0.82440  1.0000
  H   H3857     1.0  0.60554  0.16532  0.82007  1.0000
  C   C2181     1.0  0.67989  0.11116  0.73544  1.0000
  H   H3858     1.0  0.62594  0.26199  0.80488  1.0000
  C   C2182     1.0  0.67454  0.14828  0.74154  1.0000
  C   C2183     1.0  0.67632  0.13934  0.75575  1.0000
  C   C2184     1.0  0.68019  0.11620  0.75976  1.0000
  C   C2185     1.0  0.68195  0.10219  0.74963  1.0000
  H   H3859     1.0  0.67164  0.16614  0.73833  1.0000
  H   H3860     1.0  0.68164  0.10912  0.77065  1.0000
  H   H3861     1.0  0.68477  0.08432  0.75283  1.0000
  C   C2186     1.0  0.50900  0.09044  0.91382  1.0000
  C   C2187     1.0  0.52298  0.09822  0.92094  1.0000
  S   S504      1.0  0.80477  0.28253  0.83598  1.0000
  S   S505      1.0  0.84768  0.28827  0.81036  1.0000
  S   S506      1.0  0.57232  0.98411  0.94200  1.0000
  H   H3862     1.0  0.70554  0.02304  0.93336  1.0000
  H   H3863     1.0  0.53442  0.08645  0.92684  1.0000
  H   H3864     1.0  0.71069  0.23695  0.77349  1.0000
  H   H3865     1.0  0.53243  0.12722  0.92621  1.0000
  C   C2188     1.0  0.63574  0.99939  0.90857  1.0000
  C   C2189     1.0  0.65470  0.00462  0.89879  1.0000
  C   C2190     1.0  0.70564  0.22012  0.77637  1.0000
  S   S507      1.0  0.84405  0.26866  0.77492  1.0000
  H   H3866     1.0  0.54988  0.10535  0.95852  1.0000
  H   H3867     1.0  0.65437  0.02097  0.89236  1.0000
  H   H3868     1.0  0.63287  0.00352  0.93788  1.0000
  H   H3869     1.0  0.54863  0.13122  0.85087  1.0000
  C   C2191     1.0  0.75453  0.22902  0.82231  1.0000
  C   C2192     1.0  0.73592  0.21834  0.82833  1.0000
  C   C2193     1.0  0.73197  0.20008  0.82300  1.0000
  C   C2194     1.0  0.74711  0.19193  0.81186  1.0000
  C   C2195     1.0  0.76604  0.20232  0.80602  1.0000
  C   C2196     1.0  0.76962  0.22098  0.81110  1.0000
  H   H3870     1.0  0.72460  0.22432  0.83718  1.0000
  H   H3871     1.0  0.71753  0.19195  0.82770  1.0000
  H   H3872     1.0  0.77785  0.19609  0.79740  1.0000
  H   H3873     1.0  0.78393  0.22920  0.80626  1.0000
  C   C2197     1.0  0.82637  0.26743  0.76284  1.0000
  C   C2198     1.0  0.80304  0.27005  0.76670  1.0000
  C   C2199     1.0  0.78936  0.27058  0.75653  1.0000
  H   H3874     1.0  0.51925  0.17653  0.81609  1.0000
  H   H3875     1.0  0.54788  0.08488  0.94799  1.0000
  C   C2200     1.0  0.83591  0.26456  0.74890  1.0000
  H   H3876     1.0  0.79553  0.27200  0.77745  1.0000
  H   H3877     1.0  0.77133  0.27306  0.75950  1.0000
  H   H3878     1.0  0.58353  0.06310  0.95408  1.0000
  H   H3879     1.0  0.85394  0.26241  0.74586  1.0000
  C   C2201     1.0  0.88300  0.24204  0.84712  1.0000
  C   C2202     1.0  0.89453  0.25825  0.83824  1.0000
  C   C2203     1.0  0.91559  0.26113  0.84070  1.0000
  C   C2204     1.0  0.92552  0.24754  0.85186  1.0000
  C   C2205     1.0  0.91425  0.23091  0.86052  1.0000
  C   C2206     1.0  0.89301  0.22827  0.85820  1.0000
  H   H3880     1.0  0.88715  0.26866  0.82954  1.0000
  H   H3881     1.0  0.92426  0.27396  0.83393  1.0000
  H   H3882     1.0  0.92169  0.22043  0.86919  1.0000
  H   H3883     1.0  0.88422  0.21563  0.86509  1.0000
  H   H3884     1.0  0.95962  0.17788  0.92923  1.0000
  N   N120      1.0  0.81066  0.17929  0.84299  1.0000
  C   C2207     1.0  0.78685  0.17514  0.84420  1.0000
  C   C2208     1.0  0.81091  0.20092  0.84805  1.0000
  C   C2209     1.0  0.82075  0.18175  0.82746  1.0000
  C   C2210     1.0  0.82492  0.16024  0.85088  1.0000
  C   C2211     1.0  0.81567  0.15228  0.86660  1.0000
  C   C2212     1.0  0.78388  0.15449  0.83825  1.0000
  C   C2213     1.0  0.84510  0.18721  0.82373  1.0000
  C   C2214     1.0  0.79218  0.20770  0.86026  1.0000
  C   C2215     1.0  0.79713  0.22738  0.86591  1.0000
  C   C2216     1.0  0.83073  0.13161  0.87277  1.0000
  C   C2217     1.0  0.76047  0.14816  0.84356  1.0000
  C   C2218     1.0  0.85295  0.19055  0.80770  1.0000
  H   H3885     1.0  0.77694  0.18986  0.83850  1.0000
  H   H3886     1.0  0.77823  0.17362  0.85534  1.0000
  H   H3887     1.0  0.82745  0.20109  0.85111  1.0000
  H   H3888     1.0  0.80906  0.21522  0.83928  1.0000
  H   H3889     1.0  0.80999  0.19497  0.82118  1.0000
  H   H3890     1.0  0.82125  0.16620  0.82321  1.0000
  H   H3891     1.0  0.82870  0.14561  0.84527  1.0000
  H   H3892     1.0  0.84161  0.16483  0.85090  1.0000
  H   H3893     1.0  0.79866  0.14780  0.86793  1.0000
  H   H3894     1.0  0.81541  0.16536  0.87298  1.0000
  H   H3895     1.0  0.78604  0.15822  0.82648  1.0000
  H   H3896     1.0  0.79614  0.13973  0.84138  1.0000
  H   H3897     1.0  0.85696  0.17336  0.82850  1.0000
  H   H3898     1.0  0.84650  0.20253  0.82761  1.0000
  H   H3899     1.0  0.77591  0.21295  0.85626  1.0000
  H   H3900     1.0  0.79006  0.19396  0.86926  1.0000
  H   H3901     1.0  0.78328  0.23228  0.87438  1.0000
  H   H3902     1.0  0.81301  0.22290  0.87037  1.0000
  H   H3903     1.0  0.79859  0.24187  0.85727  1.0000
  H   H3904     1.0  0.83133  0.11756  0.86706  1.0000
  H   H3905     1.0  0.84803  0.13519  0.87206  1.0000
  H   H3906     1.0  0.82403  0.12645  0.88413  1.0000
  H   H3907     1.0  0.74738  0.16261  0.84119  1.0000
  H   H3908     1.0  0.75819  0.13468  0.83815  1.0000
  H   H3909     1.0  0.75816  0.14220  0.85517  1.0000
  H   H3910     1.0  0.87007  0.19518  0.80530  1.0000
  H   H3911     1.0  0.85347  0.17497  0.80351  1.0000
  H   H3912     1.0  0.84163  0.20410  0.80218  1.0000
  H   H3913     1.0  0.67600  0.01871  0.75389  1.0000
  C   C2219     1.0  0.81332  0.20223  0.74607  1.0000
  H   H3914     1.0  0.53435  0.13863  0.82684  1.0000
  H   H3915     1.0  0.70765  0.21680  0.75481  1.0000
  H   H3916     1.0  0.58222  0.17592  0.90032  1.0000
  C   C2220     1.0  0.67632  0.13429  0.73144  1.0000
  C   C2221     1.0  0.87303  0.10448  0.94732  1.0000
  H   H3917     1.0  0.87067  0.11092  0.93615  1.0000
  H   H3918     1.0  0.88573  0.30348  0.83824  1.0000
  H   H3919     1.0  0.54195  0.16492  0.88991  1.0000
  C   C2222     1.0  0.72013  0.25888  0.79732  1.0000
  H   H3920     1.0  0.49258  0.15074  0.95179  1.0000
  H   H3921     1.0  0.80039  0.01210  0.91345  1.0000
  C   C2223     1.0  0.77645  0.18746  0.74921  1.0000
  H   H3922     1.0  0.97979  0.02713  0.93424  1.0000
  N   N121      1.0  0.75147  0.19151  0.74909  1.0000
  H   H3923     1.0  0.68899  0.99318  0.89008  1.0000
  H   H3924     1.0  0.54560  0.14491  0.80831  1.0000
  H   H3925     1.0  0.68852  0.27997  0.80014  1.0000
  H   H3926     1.0  0.65497  0.00437  0.85890  1.0000
  C   C2224     1.0  0.65138  0.27618  0.82022  1.0000
  N   N122      1.0  0.78866  0.03991  0.85708  1.0000
  C   C2225     1.0  0.79637  0.01511  0.85829  1.0000
  C   C2226     1.0  0.76449  0.04384  0.86408  1.0000
  C   C2227     1.0  0.78907  0.04946  0.84153  1.0000
  C   C2228     1.0  0.80338  0.05151  0.86319  1.0000
  C   C2229     1.0  0.81460  0.03805  0.87588  1.0000
  H   H3927     1.0  0.98731  0.10039  0.90193  1.0000
  C   C2230     1.0  0.78173  0.07516  0.83791  1.0000
  C   C2231     1.0  0.75971  0.03695  0.88034  1.0000
  C   C2232     1.0  0.73446  0.03935  0.88569  1.0000
  C   C2233     1.0  0.82628  0.05279  0.88213  1.0000
  H   H3928     1.0  0.50582  0.22715  0.82608  1.0000
  C   C2234     1.0  0.75987  0.08117  0.83180  1.0000
  H   H3929     1.0  0.78394  0.00690  0.85503  1.0000
  H   H3930     1.0  0.79693  0.00717  0.86948  1.0000
  H   H3931     1.0  0.75732  0.06173  0.86204  1.0000
  H   H3932     1.0  0.75415  0.03512  0.85929  1.0000
  H   H3933     1.0  0.77896  0.04052  0.83670  1.0000
  H   H3934     1.0  0.80630  0.04631  0.83554  1.0000
  H   H3935     1.0  0.81737  0.05693  0.85489  1.0000
  H   H3936     1.0  0.79366  0.06709  0.86664  1.0000
  H   H3937     1.0  0.82751  0.02425  0.87250  1.0000
  H   H3938     1.0  0.80231  0.03068  0.88448  1.0000
  H   H3939     1.0  0.71415  0.98631  0.91479  1.0000
  H   H3940     1.0  0.83146  0.01940  0.84903  1.0000
  H   H3941     1.0  0.79493  0.08239  0.82978  1.0000
  H   H3942     1.0  0.77995  0.08392  0.84705  1.0000
  H   H3943     1.0  0.76699  0.01945  0.88373  1.0000
  H   H3944     1.0  0.76668  0.04799  0.88557  1.0000
  H   H3945     1.0  0.72634  0.05675  0.88267  1.0000
  H   H3946     1.0  0.72664  0.02802  0.88119  1.0000
  H   H3947     1.0  0.73138  0.03501  0.89741  1.0000
  H   H3948     1.0  0.83473  0.04259  0.89087  1.0000
  H   H3949     1.0  0.83921  0.06030  0.87395  1.0000
  H   H3950     1.0  0.81393  0.06619  0.88654  1.0000
  H   H3951     1.0  0.50766  0.11847  0.87258  1.0000
  H   H3952     1.0  0.94843  0.13102  0.92490  1.0000
  H   H3953     1.0  0.78037  0.17796  0.75957  1.0000
  H   H3954     1.0  0.74589  0.07461  0.83949  1.0000
  H   H3955     1.0  0.75546  0.09954  0.82929  1.0000
  H   H3956     1.0  0.76177  0.07431  0.82183  1.0000
  N   N123      1.0  0.57072  0.13058  0.87587  1.0000
  C   C2235     1.0  0.58686  0.12706  0.86243  1.0000
  C   C2236     1.0  0.57586  0.15067  0.88066  1.0000
  C   C2237     1.0  0.61218  0.12435  0.86332  1.0000
  C   C2238     1.0  0.62660  0.11996  0.84925  1.0000
  H   H3957     1.0  0.58341  0.14146  0.85392  1.0000
  H   H3958     1.0  0.58439  0.11232  0.85834  1.0000
  H   H3959     1.0  0.57716  0.16462  0.87156  1.0000
  H   H3960     1.0  0.59237  0.14692  0.88438  1.0000
  H   H3961     1.0  0.59051  0.10873  0.89063  1.0000
  H   H3962     1.0  0.57914  0.08392  0.87491  1.0000
  H   H3963     1.0  0.61655  0.13980  0.86556  1.0000
  H   H3964     1.0  0.61699  0.11023  0.87161  1.0000
  H   H3965     1.0  0.59387  0.06762  0.89726  1.0000
  H   H3966     1.0  0.62237  0.13361  0.84053  1.0000
  H   H3967     1.0  0.64454  0.11915  0.84999  1.0000
  H   H3968     1.0  0.62429  0.10389  0.84666  1.0000
  H   H3969     1.0  0.56708  0.19361  0.88703  1.0000
  C   C2239     1.0  0.52185  0.12126  0.92053  1.0000
  H   H3970     1.0  0.55772  0.14734  0.90268  1.0000
  C   C2240     1.0  0.71895  0.99548  0.92222  1.0000
  Fe  Fe255     1.0  0.97607  0.22856  0.86720  1.0000
  S   S508      1.0  0.68179  0.09303  0.72304  1.0000
  H   H3971     1.0  0.78512  0.17709  0.74100  1.0000
  H   H3972     1.0  0.64146  0.08214  0.91745  1.0000
  H   H3973     1.0  0.69337  0.98396  0.73405  1.0000
  H   H3974     1.0  0.65620  0.98388  0.96392  1.0000
  H   H3975     1.0  0.69478  0.23219  0.81691  1.0000
  H   H3976     1.0  0.74527  0.22024  0.75961  1.0000
  H   H3977     1.0  0.65331  0.03930  0.72858  1.0000
  C   C2241     1.0  0.94620  0.09622  0.94386  1.0000
  C   C2242     1.0  0.64080  0.24962  0.80188  1.0000
  H   H3978     1.0  0.90569  0.08665  0.94134  1.0000
  S   S509      1.0  0.50844  0.06176  0.91490  1.0000
  C   C2243     1.0  0.74036  0.20338  0.76133  1.0000
  H   H3979     1.0  0.76210  0.20323  0.72667  1.0000
  C   C2244     1.0  0.69461  0.26183  0.80136  1.0000
  H   H3980     1.0  0.81741  0.19200  0.75619  1.0000
  H   H3981     1.0  0.63733  0.23161  0.82279  1.0000
  H   H3982     1.0  0.84537  0.28560  0.88013  1.0000
  H   H3983     1.0  0.82056  0.19280  0.73722  1.0000
  H   H3984     1.0  0.61724  0.04612  0.93754  1.0000
  C   C2245     1.0  0.71448  0.20694  0.76419  1.0000
  H   H3985     1.0  0.98167  0.06827  0.93077  1.0000
  H   H3986     1.0  0.53490  0.13199  0.88296  1.0000
  H   H3987     1.0  0.58546  0.08263  0.96529  1.0000
  H   H3988     1.0  0.65263  0.25831  0.79361  1.0000
  H   H3989     1.0  0.63435  0.06365  0.94232  1.0000
  C   C2246     1.0  0.57888  0.08067  0.95580  1.0000
  H   H3990     1.0  0.51848  0.05078  0.96104  1.0000
  H   H3991     1.0  0.87693  0.29816  0.87708  1.0000
  H   H3992     1.0  0.96068  0.13778  0.93834  1.0000
  H   H3993     1.0  0.91091  0.30273  0.88584  1.0000
  S   S510      1.0  0.79618  0.29451  0.80299  1.0000
  H   H3994     1.0  0.72770  0.26615  0.80454  1.0000
  C   C2247     1.0  0.81710  0.28072  0.87195  1.0000
  H   H3995     1.0  0.74658  0.12327  0.75463  1.0000
  H   H3996     1.0  0.78474  0.21972  0.73680  1.0000
  C   C2248     1.0  0.65364  0.03806  0.93018  1.0000
  C   C2249     1.0  0.94528  0.17659  0.92415  1.0000
  H   H3997     1.0  0.74525  0.22389  0.73585  1.0000
  H   H3998     1.0  0.66328  0.22324  0.81238  1.0000
  C   C2250     1.0  0.67036  0.21888  0.84211  1.0000
  C   C2251     1.0  0.78794  0.20857  0.74680  1.0000
  C   C2252     1.0  0.63221  0.05464  0.93401  1.0000
  H   H3999     1.0  0.82117  0.21754  0.74420  1.0000
  H   H4000     1.0  0.95125  0.12398  0.96208  1.0000
  H   H4001     1.0  0.83414  0.98343  0.86532  1.0000
  H   H4002     1.0  0.93977  0.04336  0.96246  1.0000
  C   C2253     1.0  0.74829  0.15218  0.76399  1.0000
  S   S511      1.0  0.50516  0.16540  0.91295  1.0000
  H   H4003     1.0  0.66746  0.04823  0.92661  1.0000
  H   H4004     1.0  0.65157  0.03166  0.92064  1.0000
  C   C2254     1.0  0.81241  0.99932  0.90886  1.0000
  C   C2255     1.0  0.51212  0.16238  0.81419  1.0000
  C   C2256     1.0  0.79892  0.26812  0.74252  1.0000
  H   H4005     1.0  0.72719  0.24096  0.79783  1.0000
  H   H4006     1.0  0.62044  0.22356  0.80325  1.0000
  H   H4007     1.0  0.90882  0.12471  0.93203  1.0000
  H   H4008     1.0  0.67658  0.04127  0.94886  1.0000
  H   H4009     1.0  0.82550  0.26564  0.86736  1.0000
  C   C2257     1.0  0.81932  0.00806  0.84921  1.0000
  C   C2258     1.0  0.65148  0.23825  0.81519  1.0000
  N   N124      1.0  0.66269  0.25227  0.82214  1.0000
  H   H4010     1.0  0.80826  0.27532  0.88277  1.0000
  H   H4011     1.0  0.67911  0.29116  0.82438  1.0000
  H   H4012     1.0  0.66705  0.25319  0.84369  1.0000
  H   H4013     1.0  0.72363  0.98349  0.93162  1.0000
  H   H4014     1.0  0.97571  0.09877  0.85493  1.0000
  C   C2259     1.0  0.94437  0.13615  0.93555  1.0000
  H   H4015     1.0  0.64131  0.24517  0.84231  1.0000
  H   H4016     1.0  0.92469  0.16608  0.94379  1.0000
  C   C2260     1.0  0.50202  0.11595  0.96023  1.0000
  H   H4017     1.0  0.64203  0.20857  0.85757  1.0000
  H   H4018     1.0  0.74639  0.19456  0.77133  1.0000
  H   H4019     1.0  0.93507  0.19334  0.92241  1.0000
  C   C2261     1.0  0.55342  0.08739  0.95765  1.0000
  H   H4020     1.0  0.52437  0.12703  0.81388  1.0000
  H   H4021     1.0  0.66232  0.21902  0.86491  1.0000
  H   H4022     1.0  0.49964  0.20700  0.80762  1.0000
  H   H4023     1.0  0.72572  0.17101  0.75025  1.0000
  C   C2262     1.0  0.82225  0.26479  0.73878  1.0000
  C   C2263     1.0  0.89799  0.09911  0.94837  1.0000
  H   H4024     1.0  0.66862  0.19172  0.85982  1.0000
  H   H4025     1.0  0.69576  0.02474  0.91677  1.0000
  C   C2264     1.0  0.51593  0.12600  0.86203  1.0000
  H   H4026     1.0  0.66871  0.20797  0.83474  1.0000
  C   C2265     1.0  0.68753  0.25006  0.81665  1.0000
  C   C2266     1.0  0.66016  0.20905  0.85705  1.0000
  S   S512      1.0  0.78127  0.27038  0.72981  1.0000
  C   C2267     1.0  0.93084  0.16003  0.93356  1.0000
  H   H4027     1.0  0.93875  0.08251  0.95117  1.0000
  C   C2268     1.0  0.90942  0.12037  0.94364  1.0000
  C   C2269     1.0  0.66064  0.29238  0.82722  1.0000
  H   H4028     1.0  0.69646  0.25608  0.82379  1.0000
  H   H4029     1.0  0.86439  0.11698  0.95412  1.0000
  C   C2270     1.0  0.68465  0.00074  0.73593  1.0000
  C   C2271     1.0  0.85045  0.98059  0.90428  1.0000
  C   C2272     1.0  0.64003  0.00634  0.94693  1.0000
  C   C2273     1.0  0.62749  0.07221  0.92112  1.0000
  C   C2274     1.0  0.49236  0.23385  0.81954  1.0000
  C   C2275     1.0  0.67867  0.00309  0.93461  1.0000
  C   C2276     1.0  0.66789  0.02654  0.95325  1.0000
  C   C2277     1.0  0.82973  0.98438  0.85466  1.0000
  C   C2278     1.0  0.55887  0.15986  0.89289  1.0000
  C   C2279     1.0  0.54682  0.13550  0.87293  1.0000
  C   C2280     1.0  0.91965  0.29793  0.87554  1.0000
  H   H4030     1.0  0.70797  0.19081  0.76712  1.0000
  H   H4031     1.0  0.64697  0.22027  0.79153  1.0000
  N   N125      1.0  0.93321  0.11869  0.94626  1.0000
  H   H4032     1.0  0.78185  0.21819  0.75565  1.0000
  H   H4033     1.0  0.68850  0.21819  0.84198  1.0000
  H   H4034     1.0  0.72483  0.26745  0.78632  1.0000
  C   C2281     1.0  0.90643  0.30931  0.86364  1.0000
  C   C2282     1.0  0.65956  0.24341  0.83786  1.0000
  N   N126      1.0  0.65977  0.01874  0.94156  1.0000
  H   H4035     1.0  0.65621  0.28885  0.83894  1.0000
  H   H4036     1.0  0.62599  0.01641  0.95296  1.0000
  H   H4037     1.0  0.58558  0.02627  0.96999  1.0000
  H   H4038     1.0  0.68471  0.98898  0.94261  1.0000
  C   C2283     1.0  0.72734  0.20208  0.72849  1.0000
  H   H4039     1.0  0.71169  0.20142  0.73622  1.0000
  H   H4040     1.0  0.72059  0.13415  0.76490  1.0000
  H   H4041     1.0  0.54227  0.15358  0.86891  1.0000
  C   C2284     1.0  0.53014  0.14192  0.81595  1.0000
  H   H4042     1.0  0.54786  0.10564  0.86303  1.0000
  C   C2285     1.0  0.56583  0.18032  0.89648  1.0000
  H   H4043     1.0  0.61182  0.08365  0.92395  1.0000
  H   H4044     1.0  0.82977  0.26285  0.72802  1.0000
  H   H4045     1.0  0.95189  0.17140  0.91366  1.0000
  Fe  Fe256     1.0  0.82922  0.27348  0.79742  1.0000
  H   H4046     1.0  0.55112  0.08906  0.88488  1.0000
  H   H4047     1.0  0.97302  0.01126  0.96169  1.0000
  H   H4048     1.0  0.54872  0.05585  0.97103  1.0000
  H   H4049     1.0  0.56171  0.11431  0.89741  1.0000
  C   C2286     1.0  0.57355  0.11102  0.88764  1.0000
  H   H4050     1.0  0.97324  0.10877  0.87148  1.0000
  H   H4051     1.0  0.81690  0.00858  0.83811  1.0000
  Fe  Fe257     1.0  0.54256  0.98316  0.93177  1.0000
  C   C2287     1.0  0.73907  0.13075  0.76427  1.0000
  C   C2288     1.0  0.50918  0.06779  0.96206  1.0000
  C   C2289     1.0  0.56927  0.08844  0.88498  1.0000
  H   H4052     1.0  0.71228  0.21136  0.78615  1.0000
  H   H4053     1.0  0.75237  0.16111  0.74112  1.0000
  H   H4054     1.0  0.74003  0.15908  0.77372  1.0000
  C   C2290     1.0  0.93376  0.12332  0.96085  1.0000
  C   C2291     1.0  0.57566  0.06967  0.89687  1.0000
  H   H4055     1.0  0.55302  0.18693  0.90496  1.0000
  H   H4056     1.0  0.57182  0.05376  0.89494  1.0000
  H   H4057     1.0  0.51362  0.07782  0.95151  1.0000
  H   H4058     1.0  0.51657  0.11458  0.95168  1.0000
  C   C2292     1.0  0.74725  0.20589  0.73507  1.0000
  C   C2293     1.0  0.50704  0.13664  0.91277  1.0000
  H   H4059     1.0  0.62531  0.06423  0.91229  1.0000
  H   H4060     1.0  0.89960  0.09102  0.95934  1.0000
  C   C2294     1.0  0.83426  0.29532  0.87268  1.0000
  H   H4061     1.0  0.63530  0.04382  0.96295  1.0000
  H   H4062     1.0  0.49589  0.15728  0.83551  1.0000
  H   H4063     1.0  0.74311  0.11851  0.77371  1.0000
  H   H4064     1.0  0.50872  0.14382  0.85976  1.0000
  H   H4065     1.0  0.50905  0.16524  0.80310  1.0000
  H   H4066     1.0  0.92456  0.14013  0.96225  1.0000
  H   H4067     1.0  0.67969  0.99372  0.84752  1.0000
  C   C2295     1.0  0.66911  0.99042  0.85807  1.0000
  H   H4068     1.0  0.88739  0.28376  0.86276  1.0000
  S   S513      1.0  0.95921  0.98729  0.91355  1.0000
  C   C2296     1.0  0.67429  0.98895  0.89748  1.0000
  H   H4069     1.0  0.69099  0.03521  0.72946  1.0000
  H   H4070     1.0  0.85400  0.28717  0.85286  1.0000
  H   H4071     1.0  0.51248  0.11740  0.85384  1.0000
  H   H4072     1.0  0.58683  0.09144  0.94643  1.0000
  C   C2297     1.0  0.88362  0.30082  0.86560  1.0000
  H   H4073     1.0  0.93656  0.30303  0.87326  1.0000
  H   H4074     1.0  0.68090  0.01361  0.95782  1.0000
  H   H4075     1.0  0.86521  0.08913  0.95096  1.0000
  H   H4076     1.0  0.97687  0.07934  0.87124  1.0000
  H   H4077     1.0  0.80430  0.31341  0.74680  1.0000
  S   S514      1.0  0.49016  0.27468  0.87787  1.0000
  H   H4078     1.0  0.78750  0.98670  0.90079  1.0000
  C   C2298     1.0  0.98171  0.09540  0.86531  1.0000
  H   H4079     1.0  0.70285  0.00076  0.75312  1.0000
  H   H4080     1.0  0.67954  0.98987  0.86631  1.0000
  C   C2299     1.0  0.49057  0.15897  0.82502  1.0000
  C   C2300     1.0  0.49358  0.12882  0.90532  1.0000
  H   H4081     1.0  0.97347  0.09315  0.95620  1.0000
  H   H4082     1.0  0.81369  0.31014  0.72145  1.0000
  C   C2301     1.0  0.80504  0.98496  0.90164  1.0000
  C   C2302     1.0  0.65014  0.03238  0.96616  1.0000
  H   H4083     1.0  0.92178  0.27954  0.87638  1.0000
  H   H4084     1.0  0.87260  0.30411  0.77552  1.0000
  C   C2303     1.0  0.68527  0.00246  0.75129  1.0000
  C   C2304     1.0  0.97140  0.09239  0.94524  1.0000
  H   H4085     1.0  0.51018  0.14612  0.96522  1.0000
  H   H4086     1.0  0.67722  0.98896  0.75855  1.0000
  C   C2305     1.0  0.98588  0.99259  0.94443  1.0000
  C   C2306     1.0  0.64517  0.98329  0.95625  1.0000
  H   H4087     1.0  0.91679  0.30544  0.85348  1.0000
  C   C2307     1.0  0.54187  0.07372  0.97116  1.0000
  C   C2308     1.0  0.98281  0.06955  0.94183  1.0000
  C   C2309     1.0  0.49604  0.14040  0.96204  1.0000
  C   C2310     1.0  0.98672  0.99739  0.95935  1.0000
  H   H4088     1.0  0.73163  0.18604  0.72435  1.0000
  H   H4089     1.0  0.97488  0.05616  0.94924  1.0000
  H   H4090     1.0  0.98051  0.10484  0.93772  1.0000
  H   H4091     1.0  0.49901  0.24581  0.81036  1.0000
  H   H4092     1.0  0.82473  0.31023  0.87699  1.0000
  H   H4093     1.0  0.66514  0.05933  0.97035  1.0000
  H   H4094     1.0  0.83477  0.31241  0.85154  1.0000
  Fe  Fe258     1.0  0.57310  0.52212  0.04064  1.0000
  S   S515      1.0  0.56214  0.49469  0.05791  1.0000
  S   S516      1.0  0.59340  0.51321  0.01994  1.0000
  Fe  Fe259     1.0  0.55514  0.55781  0.05953  1.0000
  S   S517      1.0  0.54235  0.53321  0.07801  1.0000
  S   S518      1.0  0.55537  0.59412  0.06015  1.0000
  Fe  Fe260     1.0  0.57530  0.51174  0.07233  1.0000
  S   S519      1.0  0.59522  0.49484  0.08977  1.0000
  Fe  Fe261     1.0  0.53035  0.51854  0.06188  1.0000
  S   S520      1.0  0.58880  0.53722  0.05483  1.0000
  S   S521      1.0  0.54047  0.54513  0.04367  1.0000
  N   N127      1.0  0.79211  0.53350  0.13145  1.0000
  C   C2311     1.0  0.98698  0.51197  0.10280  1.0000
  Fe  Fe262     1.0  0.71267  0.62296  0.15999  1.0000
  S   S522      1.0  0.72566  0.60360  0.14192  1.0000
  S   S523      1.0  0.68864  0.61287  0.17950  1.0000
  S   S524      1.0  0.51954  0.63159  0.11769  1.0000
  H   H4095     1.0  0.64146  0.47220  0.14658  1.0000
  Fe  Fe263     1.0  0.76408  0.47396  0.10367  1.0000
  S   S525      1.0  0.75137  0.45587  0.12530  1.0000
  S   S526      1.0  0.80199  0.47041  0.09667  1.0000
  Fe  Fe264     1.0  0.71629  0.49049  0.09744  1.0000
  S   S527      1.0  0.70023  0.47371  0.11841  1.0000
  S   S528      1.0  0.69617  0.51059  0.08092  1.0000
  Fe  Fe265     1.0  0.72590  0.48687  0.12692  1.0000
  S   S529      1.0  0.71617  0.50236  0.14691  1.0000
  Fe  Fe266     1.0  0.72689  0.44433  0.11484  1.0000
  S   S530      1.0  0.72076  0.40877  0.11551  1.0000
  S   S531      1.0  0.74035  0.50562  0.10609  1.0000
  S   S532      1.0  0.74130  0.46039  0.09303  1.0000
  S   S533      1.0  0.67561  0.34206  0.16659  1.0000
  Fe  Fe267     1.0  0.89673  0.54531  0.06710  1.0000
  S   S534      1.0  0.91804  0.53769  0.08421  1.0000
  S   S535      1.0  0.85856  0.54970  0.07126  1.0000
  Fe  Fe268     1.0  0.93690  0.54927  0.04369  1.0000
  S   S536      1.0  0.96140  0.54218  0.05904  1.0000
  S   S537      1.0  0.95269  0.55229  0.02048  1.0000
  Fe  Fe269     1.0  0.94142  0.51546  0.07035  1.0000
  S   S538      1.0  0.95757  0.48166  0.08011  1.0000
  Fe  Fe270     1.0  0.93689  0.56513  0.07183  1.0000
  S   S539      1.0  0.94624  0.58589  0.08637  1.0000
  S   S540      1.0  0.91855  0.52068  0.05420  1.0000
  S   S541      1.0  0.91367  0.57467  0.05550  1.0000
  H   H4096     1.0  0.52104  0.41673  0.03280  1.0000
  H   H4097     1.0  0.56267  0.63257  0.06965  1.0000
  C   C2312     1.0  0.93656  0.55128  0.00752  1.0000
  C   C2313     1.0  0.94679  0.54171  0.99548  1.0000
  C   C2314     1.0  0.93441  0.54123  0.98480  1.0000
  C   C2315     1.0  0.91189  0.55095  0.98592  1.0000
  C   C2316     1.0  0.90185  0.56099  0.99778  1.0000
  C   C2317     1.0  0.91406  0.56098  0.00863  1.0000
  H   H4098     1.0  0.96428  0.53436  0.99451  1.0000
  H   H4099     1.0  0.66334  0.57141  0.07672  1.0000
  H   H4100     1.0  0.88454  0.56886  0.99855  1.0000
  H   H4101     1.0  0.90626  0.56889  0.01769  1.0000
  C   C2318     1.0  0.96665  0.60389  0.08356  1.0000
  H   H4102     1.0  0.49170  0.39579  0.03122  1.0000
  C   C2319     1.0  0.80187  0.46798  0.13676  1.0000
  H   H4103     1.0  0.51396  0.52932  0.02191  1.0000
  H   H4104     1.0  0.60212  0.60650  0.07547  1.0000
  C   C2320     1.0  0.71974  0.32563  0.19744  1.0000
  H   H4105     1.0  0.50926  0.31719  0.09748  1.0000
  H   H4106     1.0  0.63407  0.56305  0.07049  1.0000
  H   H4107     1.0  0.64621  0.35039  0.12778  1.0000
  C   C2321     1.0  0.78650  0.54478  0.15644  1.0000
  C   C2322     1.0  0.50198  0.32842  0.10535  1.0000
  S   S542      1.0  0.49544  0.50972  0.06419  1.0000
  C   C2323     1.0  0.81746  0.49253  0.08917  1.0000
  C   C2324     1.0  0.84085  0.48875  0.08860  1.0000
  C   C2325     1.0  0.85375  0.50593  0.08281  1.0000
  C   C2326     1.0  0.84330  0.52715  0.07763  1.0000
  C   C2327     1.0  0.81995  0.53085  0.07800  1.0000
  C   C2328     1.0  0.80708  0.51361  0.08371  1.0000
  H   H4108     1.0  0.84904  0.47245  0.09275  1.0000
  H   H4109     1.0  0.87170  0.50285  0.08262  1.0000
  H   H4110     1.0  0.81178  0.54719  0.07392  1.0000
  H   H4111     1.0  0.78916  0.51654  0.08386  1.0000
  C   C2329     1.0  0.70760  0.39076  0.12976  1.0000
  C   C2330     1.0  0.70024  0.39666  0.14321  1.0000
  C   C2331     1.0  0.69025  0.38161  0.15430  1.0000
  C   C2332     1.0  0.68740  0.36060  0.15206  1.0000
  C   C2333     1.0  0.69453  0.35479  0.13855  1.0000
  C   C2334     1.0  0.70470  0.36978  0.12749  1.0000
  H   H4112     1.0  0.70242  0.41274  0.14510  1.0000
  H   H4113     1.0  0.68477  0.38622  0.16472  1.0000
  H   H4114     1.0  0.69229  0.33875  0.13666  1.0000
  H   H4115     1.0  0.71036  0.36511  0.11710  1.0000
  C   C2335     1.0  0.71981  0.57637  0.14366  1.0000
  C   C2336     1.0  0.72117  0.56727  0.13137  1.0000
  C   C2337     1.0  0.71914  0.54482  0.13230  1.0000
  C   C2338     1.0  0.71611  0.53119  0.14551  1.0000
  C   C2339     1.0  0.71355  0.54061  0.15785  1.0000
  C   C2340     1.0  0.71526  0.56322  0.15693  1.0000
  H   H4116     1.0  0.72414  0.57756  0.12110  1.0000
  H   H4117     1.0  0.72024  0.53803  0.12276  1.0000
  H   H4118     1.0  0.71093  0.53023  0.16813  1.0000
  H   H4119     1.0  0.71413  0.57017  0.16646  1.0000
  C   C2341     1.0  0.62259  0.50128  0.08722  1.0000
  C   C2342     1.0  0.63293  0.50036  0.09902  1.0000
  C   C2343     1.0  0.65540  0.50363  0.09720  1.0000
  C   C2344     1.0  0.66760  0.50786  0.08356  1.0000
  C   C2345     1.0  0.65694  0.50984  0.07178  1.0000
  C   C2346     1.0  0.63454  0.50639  0.07360  1.0000
  H   H4120     1.0  0.62360  0.49684  0.10958  1.0000
  H   H4121     1.0  0.66329  0.50282  0.10633  1.0000
  H   H4122     1.0  0.66625  0.51327  0.06120  1.0000
  H   H4123     1.0  0.62685  0.50684  0.06443  1.0000
  C   C2347     1.0  0.54622  0.60362  0.07648  1.0000
  C   C2348     1.0  0.81484  0.54093  0.12758  1.0000
  H   H4124     1.0  0.63603  0.44390  0.15212  1.0000
  C   C2349     1.0  0.53067  0.62070  0.10197  1.0000
  C   C2350     1.0  0.52520  0.60041  0.10036  1.0000
  C   C2351     1.0  0.53281  0.59197  0.08761  1.0000
  C   C2352     1.0  0.76908  0.55656  0.16708  1.0000
  H   H4125     1.0  0.49170  0.62265  0.07271  1.0000
  H   H4126     1.0  0.52796  0.57666  0.08634  1.0000
  C   C2353     1.0  0.54940  0.53449  0.99209  1.0000
  C   C2354     1.0  0.55926  0.53060  0.00441  1.0000
  C   C2355     1.0  0.58099  0.51904  0.00445  1.0000
  C   C2356     1.0  0.59299  0.51172  0.99199  1.0000
  H   H4127     1.0  0.53253  0.54340  0.99217  1.0000
  H   H4128     1.0  0.55018  0.53672  0.01385  1.0000
  H   H4129     1.0  0.60987  0.50285  0.99193  1.0000
  H   H4130     1.0  0.69003  0.46451  0.07794  1.0000
  H   H4131     1.0  0.90470  0.63214  0.08292  1.0000
  C   C2357     1.0  0.64243  0.56811  0.17347  1.0000
  C   C2358     1.0  0.96244  0.51904  0.10880  1.0000
  C   C2359     1.0  0.75478  0.34663  0.14755  1.0000
  H   H4132     1.0  0.51461  0.59143  0.10889  1.0000
  C   C2360     1.0  0.50569  0.44977  0.02304  1.0000
  C   C2361     1.0  0.94405  0.60401  0.97769  1.0000
  C   C2362     1.0  0.76741  0.36409  0.15093  1.0000
  H   H4133     1.0  0.94308  0.59997  0.00646  1.0000
  H   H4134     1.0  0.56417  0.59741  0.15845  1.0000
  H   H4135     1.0  0.93396  0.63960  0.11968  1.0000
  H   H4136     1.0  0.63265  0.62884  0.14284  1.0000
  C   C2363     1.0  0.76626  0.38513  0.13976  1.0000
  H   H4137     1.0  0.98941  0.49368  0.10295  1.0000
  C   C2364     1.0  0.63677  0.57327  0.14238  1.0000
  H   H4138     1.0  0.98553  0.48757  0.97143  1.0000
  H   H4139     1.0  0.65348  0.52827  0.14058  1.0000
  H   H4140     1.0  0.73778  0.35523  0.14570  1.0000
  H   H4141     1.0  0.76372  0.34236  0.13716  1.0000
  H   H4142     1.0  0.51106  0.33958  0.02941  1.0000
  H   H4143     1.0  0.55104  0.45179  0.97456  1.0000
  H   H4144     1.0  0.59572  0.64516  0.11407  1.0000
  H   H4145     1.0  0.92889  0.63865  0.07003  1.0000
  H   H4146     1.0  0.93201  0.61888  0.98024  1.0000
  C   C2365     1.0  0.49300  0.48144  0.06567  1.0000
  H   H4147     1.0  0.78539  0.35729  0.15097  1.0000
  H   H4148     1.0  0.76017  0.36921  0.16136  1.0000
  H   H4149     1.0  0.73428  0.32650  0.20246  1.0000
  H   H4150     1.0  0.87461  0.47712  0.98854  1.0000
  C   C2366     1.0  0.54430  0.63221  0.09088  1.0000
  H   H4151     1.0  0.86443  0.50267  0.97781  1.0000
  H   H4152     1.0  0.80793  0.50490  0.14467  1.0000
  H   H4153     1.0  0.94803  0.63627  0.14208  1.0000
  C   C2367     1.0  0.66685  0.61619  0.13691  1.0000
  C   C2368     1.0  0.60740  0.60827  0.10016  1.0000
  C   C2369     1.0  0.56138  0.52720  0.97963  1.0000
  H   H4154     1.0  0.74820  0.31819  0.13057  1.0000
  H   H4155     1.0  0.53456  0.48460  0.98711  1.0000
  H   H4156     1.0  0.77650  0.39678  0.14190  1.0000
  H   H4157     1.0  0.77276  0.38110  0.12895  1.0000
  H   H4158     1.0  0.74873  0.39375  0.14009  1.0000
  H   H4159     1.0  0.70576  0.43682  0.08072  1.0000
  H   H4160     1.0  0.97913  0.44971  0.98205  1.0000
  C   C2370     1.0  0.77720  0.56141  0.11042  1.0000
  C   C2371     1.0  0.76452  0.56305  0.09810  1.0000
  H   H4161     1.0  0.76331  0.53212  0.12220  1.0000
  H   H4162     1.0  0.76058  0.54304  0.14452  1.0000
  H   H4163     1.0  0.77627  0.56528  0.13781  1.0000
  H   H4164     1.0  0.76743  0.57347  0.11717  1.0000
  H   H4165     1.0  0.79374  0.56671  0.10591  1.0000
  H   H4166     1.0  0.76195  0.58056  0.09262  1.0000
  H   H4167     1.0  0.77418  0.55258  0.09030  1.0000
  H   H4168     1.0  0.74786  0.55763  0.10195  1.0000
  H   H4169     1.0  0.77624  0.55624  0.17677  1.0000
  H   H4170     1.0  0.76381  0.57421  0.16250  1.0000
  C   C2372     1.0  0.96413  0.60186  0.98566  1.0000
  H   H4171     1.0  0.60657  0.60321  0.11184  1.0000
  C   C2373     1.0  0.64465  0.58728  0.09460  1.0000
  C   C2374     1.0  0.49517  0.63068  0.06148  1.0000
  H   H4172     1.0  0.62484  0.57110  0.17888  1.0000
  H   H4173     1.0  0.86068  0.54134  0.12058  1.0000
  C   C2375     1.0  0.56143  0.46074  0.97903  1.0000
  H   H4174     1.0  0.69208  0.44617  0.06533  1.0000
  H   H4175     1.0  0.63713  0.61332  0.12874  1.0000
  H   H4176     1.0  0.52388  0.46893  0.07380  1.0000
  H   H4177     1.0  0.60859  0.61167  0.16294  1.0000
  H   H4178     1.0  0.80192  0.55251  0.15483  1.0000
  H   H4179     1.0  0.94228  0.53339  0.97571  1.0000
  H   H4180     1.0  0.67834  0.60098  0.13457  1.0000
  H   H4181     1.0  0.95138  0.51431  0.10244  1.0000
  C   C2376     1.0  0.78016  0.53732  0.11878  1.0000
  H   H4182     1.0  0.51863  0.42935  0.07720  1.0000
  H   H4183     1.0  0.66435  0.44954  0.14537  1.0000
  H   H4184     1.0  0.95025  0.62733  0.99892  1.0000
  H   H4185     1.0  0.65578  0.55183  0.09255  1.0000
  C   C2377     1.0  0.79390  0.50927  0.13841  1.0000
  H   H4186     1.0  0.69084  0.58319  0.08870  1.0000
  H   H4187     1.0  0.69657  0.55420  0.08716  1.0000
  N   N128      1.0  0.62054  0.58968  0.09252  1.0000
  H   H4188     1.0  0.63988  0.36200  0.11028  1.0000
  N   N129      1.0  0.52595  0.46137  0.01723  1.0000
  C   C2378     1.0  0.51805  0.48617  0.01521  1.0000
  C   C2379     1.0  0.53654  0.45418  0.00309  1.0000
  H   H4189     1.0  0.97455  0.60573  0.06093  1.0000
  C   C2380     1.0  0.54198  0.45427  0.02781  1.0000
  C   C2381     1.0  0.56260  0.46640  0.02507  1.0000
  H   H4190     1.0  0.66634  0.58464  0.15798  1.0000
  H   H4191     1.0  0.95866  0.51042  0.11988  1.0000
  C   C2382     1.0  0.54767  0.47156  0.99140  1.0000
  C   C2383     1.0  0.58327  0.51588  0.97957  1.0000
  C   C2384     1.0  0.57893  0.45523  0.03531  1.0000
  H   H4192     1.0  0.65318  0.54987  0.19302  1.0000
  C   C2385     1.0  0.56982  0.61302  0.15232  1.0000
  H   H4193     1.0  0.53235  0.49553  0.01113  1.0000
  H   H4194     1.0  0.54914  0.43889  0.00467  1.0000
  H   H4195     1.0  0.52373  0.44941  0.99799  1.0000
  H   H4196     1.0  0.51799  0.41807  0.01462  1.0000
  H   H4197     1.0  0.53308  0.45607  0.03872  1.0000
  H   H4198     1.0  0.54866  0.43626  0.02831  1.0000
  H   H4199     1.0  0.55736  0.48402  0.02659  1.0000
  H   H4200     1.0  0.57207  0.46572  0.01429  1.0000
  H   H4201     1.0  0.51579  0.49224  0.03699  1.0000
  H   H4202     1.0  0.82411  0.53042  0.10656  1.0000
  C   C2386     1.0  0.95656  0.60920  0.00015  1.0000
  H   H4203     1.0  0.67530  0.56085  0.18018  1.0000
  H   H4204     1.0  0.55896  0.48003  0.99536  1.0000
  H   H4205     1.0  0.68507  0.64608  0.22029  1.0000
  H   H4206     1.0  0.58968  0.61168  0.09828  1.0000
  C   C2387     1.0  0.68453  0.56701  0.09236  1.0000
  H   H4207     1.0  0.57022  0.45355  0.04646  1.0000
  H   H4208     1.0  0.58668  0.43844  0.03292  1.0000
  H   H4209     1.0  0.59251  0.46539  0.03415  1.0000
  H   H4210     1.0  0.78885  0.52663  0.11087  1.0000
  H   H4211     1.0  0.59450  0.59635  0.13778  1.0000
  C   C2388     1.0  0.98646  0.62656  0.09362  1.0000
  H   H4212     1.0  0.67146  0.55827  0.14518  1.0000
  H   H4213     1.0  0.49105  0.62354  0.04111  1.0000
  C   C2389     1.0  0.50933  0.46463  0.07081  1.0000
  C   C2390     1.0  0.79678  0.49153  0.12864  1.0000
  H   H4214     1.0  0.66913  0.63117  0.11459  1.0000
  N   N130      1.0  0.63480  0.59313  0.14968  1.0000
  H   H4215     1.0  0.55868  0.62005  0.14427  1.0000
  S   S543      1.0  0.72102  0.61170  0.21086  1.0000
  C   C2391     1.0  0.66129  0.56825  0.08845  1.0000
  C   C2392     1.0  0.67198  0.63505  0.12471  1.0000
  H   H4216     1.0  0.50687  0.49082  0.00700  1.0000
  C   C2393     1.0  0.85240  0.54128  0.11140  1.0000
  H   H4217     1.0  0.63727  0.59216  0.04869  1.0000
  H   H4218     1.0  0.93494  0.58979  0.98270  1.0000
  C   C2394     1.0  0.65734  0.56435  0.18487  1.0000
  C   C2395     1.0  0.59406  0.60840  0.14492  1.0000
  C   C2396     1.0  0.62173  0.58464  0.05274  1.0000
  C   C2397     1.0  0.64806  0.58807  0.16180  1.0000
  H   H4219     1.0  0.62801  0.56010  0.14953  1.0000
  H   H4220     1.0  0.75412  0.54794  0.17021  1.0000
  S   S544      1.0  0.73395  0.63693  0.17143  1.0000
  C   C2398     1.0  0.61845  0.59579  0.07695  1.0000
  H   H4221     1.0  0.64513  0.55254  0.16892  1.0000
  H   H4222     1.0  0.98439  0.54143  0.08655  1.0000
  H   H4223     1.0  0.49708  0.35627  0.08826  1.0000
  C   C2399     1.0  0.97787  0.61138  0.07007  1.0000
  H   H4224     1.0  0.61956  0.63598  0.08440  1.0000
  C   C2400     1.0  0.66022  0.54063  0.13167  1.0000
  C   C2401     1.0  0.65060  0.36263  0.11813  1.0000
  H   H4225     1.0  0.60692  0.59711  0.05031  1.0000
  H   H4226     1.0  0.62243  0.57047  0.04712  1.0000
  H   H4227     1.0  0.62798  0.57786  0.13304  1.0000
  H   H4228     1.0  0.78604  0.32359  0.16367  1.0000
  C   C2402     1.0  0.49164  0.31530  0.04314  1.0000
  C   C2403     1.0  0.97119  0.61143  0.09532  1.0000
  C   C2404     1.0  0.98360  0.47008  0.07127  1.0000
  H   H4229     1.0  0.51356  0.62977  0.05828  1.0000
  C   C2405     1.0  0.64185  0.61313  0.13925  1.0000
  C   C2406     1.0  0.77791  0.54721  0.14212  1.0000
  C   C2407     1.0  0.61127  0.56856  0.09950  1.0000
  C   C2408     1.0  0.58548  0.57022  0.10076  1.0000
  C   C2409     1.0  0.57824  0.54744  0.10258  1.0000
  H   H4230     1.0  0.61535  0.56333  0.11044  1.0000
  H   H4231     1.0  0.61939  0.55436  0.09396  1.0000
  H   H4232     1.0  0.57690  0.57818  0.11006  1.0000
  H   H4233     1.0  0.57948  0.58047  0.09120  1.0000
  H   H4234     1.0  0.58503  0.53586  0.11150  1.0000
  H   H4235     1.0  0.55965  0.54916  0.10469  1.0000
  H   H4236     1.0  0.58421  0.54042  0.09264  1.0000
  H   H4237     1.0  0.52946  0.31506  0.12632  1.0000
  C   C2410     1.0  0.72760  0.31717  0.18331  1.0000
  H   H4238     1.0  0.97091  0.60563  0.00608  1.0000
  H   H4239     1.0  0.84482  0.48759  0.99052  1.0000
  H   H4240     1.0  0.84784  0.55865  0.10608  1.0000
  H   H4241     1.0  0.83739  0.51215  0.12041  1.0000
  H   H4242     1.0  0.65465  0.57923  0.19015  1.0000
  C   C2411     1.0  0.50632  0.44224  0.07273  1.0000
  H   H4243     1.0  0.80345  0.45576  0.12950  1.0000
  C   C2412     1.0  0.61038  0.59911  0.15583  1.0000
  C   C2413     1.0  0.61973  0.57633  0.06868  1.0000
  C   C2414     1.0  0.83161  0.52976  0.11610  1.0000
  H   H4244     1.0  0.98621  0.49774  0.05419  1.0000
  H   H4245     1.0  0.81304  0.55931  0.12424  1.0000
  H   H4246     1.0  0.67082  0.62063  0.14659  1.0000
  H   H4247     1.0  0.63207  0.62991  0.10033  1.0000
  H   H4248     1.0  0.78101  0.49256  0.12438  1.0000
  H   H4249     1.0  0.66849  0.57357  0.12768  1.0000
  H   H4250     1.0  0.82340  0.53752  0.13702  1.0000
  H   H4251     1.0  0.68408  0.56231  0.10398  1.0000
  H   H4252     1.0  0.75420  0.33755  0.17803  1.0000
  H   H4253     1.0  0.96279  0.60555  0.10583  1.0000
  C   C2415     1.0  0.66072  0.56236  0.13683  1.0000
  Fe  Fe271     1.0  0.70799  0.62964  0.19075  1.0000
  H   H4254     1.0  0.49617  0.59939  0.05435  1.0000
  H   H4255     1.0  0.57602  0.44895  0.98250  1.0000
  H   H4256     1.0  0.68984  0.63719  0.12360  1.0000
  H   H4257     1.0  0.81044  0.49383  0.11957  1.0000
  H   H4258     1.0  0.66846  0.35777  0.11366  1.0000
  H   H4259     1.0  0.70915  0.31413  0.20474  1.0000
  H   H4260     1.0  0.86597  0.64200  0.15739  1.0000
  H   H4261     1.0  0.64577  0.60304  0.16703  1.0000
  C   C2416     1.0  0.61631  0.63094  0.09608  1.0000
  C   C2417     1.0  0.51004  0.42392  0.02473  1.0000
  H   H4262     1.0  0.63138  0.60623  0.07124  1.0000
  H   H4263     1.0  0.81791  0.46575  0.14089  1.0000
  H   H4264     1.0  0.86458  0.53225  0.10367  1.0000
  H   H4265     1.0  0.78807  0.46454  0.14568  1.0000
  C   C2418     1.0  0.50526  0.49587  0.02851  1.0000
  H   H4266     1.0  0.77844  0.50627  0.14618  1.0000
  H   H4267     1.0  0.79027  0.52711  0.16137  1.0000
  N   N131      1.0  0.86648  0.50116  0.02678  1.0000
  C   C2419     1.0  0.86205  0.52630  0.02417  1.0000
  C   C2420     1.0  0.86007  0.49224  0.01490  1.0000
  C   C2421     1.0  0.85171  0.49329  0.04051  1.0000
  C   C2422     1.0  0.89050  0.49236  0.02861  1.0000
  C   C2423     1.0  0.90860  0.49805  0.01570  1.0000
  C   C2424     1.0  0.86875  0.53797  0.03512  1.0000
  C   C2425     1.0  0.84905  0.46822  0.04353  1.0000
  C   C2426     1.0  0.86441  0.50566  0.99963  1.0000
  C   C2427     1.0  0.86186  0.49235  0.98850  1.0000
  C   C2428     1.0  0.93214  0.49173  0.01959  1.0000
  C   C2429     1.0  0.85899  0.56269  0.03330  1.0000
  C   C2430     1.0  0.83624  0.46190  0.05843  1.0000
  H   H4268     1.0  0.84394  0.53209  0.02353  1.0000
  H   H4269     1.0  0.87114  0.53331  0.01381  1.0000
  H   H4270     1.0  0.86841  0.47471  0.01471  1.0000
  H   H4271     1.0  0.84169  0.49169  0.01686  1.0000
  H   H4272     1.0  0.83445  0.50292  0.04092  1.0000
  H   H4273     1.0  0.85812  0.49642  0.04980  1.0000
  H   H4274     1.0  0.89453  0.49799  0.03790  1.0000
  H   H4275     1.0  0.89310  0.47392  0.03124  1.0000
  H   H4276     1.0  0.90627  0.51601  0.01144  1.0000
  H   H4277     1.0  0.90796  0.48848  0.00728  1.0000
  H   H4278     1.0  0.86275  0.53062  0.04614  1.0000
  H   H4279     1.0  0.88727  0.53658  0.03364  1.0000
  H   H4280     1.0  0.86549  0.45729  0.04276  1.0000
  H   H4281     1.0  0.83948  0.46438  0.03595  1.0000
  H   H4282     1.0  0.85201  0.52116  0.99869  1.0000
  H   H4283     1.0  0.88127  0.51065  0.99679  1.0000
  H   H4284     1.0  0.64988  0.54359  0.12311  1.0000
  H   H4285     1.0  0.56809  0.62524  0.15957  1.0000
  H   H4286     1.0  0.49175  0.45054  0.97493  1.0000
  H   H4287     1.0  0.93526  0.47388  0.02435  1.0000
  H   H4288     1.0  0.94477  0.49472  0.00991  1.0000
  H   H4289     1.0  0.93442  0.50213  0.02716  1.0000
  H   H4290     1.0  0.86576  0.57098  0.04037  1.0000
  H   H4291     1.0  0.86348  0.57098  0.02222  1.0000
  H   H4292     1.0  0.84045  0.56481  0.03624  1.0000
  H   H4293     1.0  0.81971  0.47271  0.06001  1.0000
  H   H4294     1.0  0.83331  0.44435  0.06006  1.0000
  H   H4295     1.0  0.84608  0.46347  0.06654  1.0000
  N   N132      1.0  0.64868  0.42774  0.11069  1.0000
  C   C2431     1.0  0.64977  0.43046  0.12563  1.0000
  C   C2432     1.0  0.65435  0.40339  0.10906  1.0000
  C   C2433     1.0  0.66640  0.43987  0.10090  1.0000
  C   C2434     1.0  0.62628  0.43787  0.10635  1.0000
  C   C2435     1.0  0.60564  0.42833  0.11546  1.0000
  C   C2436     1.0  0.64296  0.45437  0.12920  1.0000
  C   C2437     1.0  0.66944  0.43800  0.08495  1.0000
  C   C2438     1.0  0.64683  0.38593  0.12204  1.0000
  H   H4296     1.0  0.52799  0.63649  0.17341  1.0000
  C   C2439     1.0  0.58384  0.44272  0.11186  1.0000
  C   C2440     1.0  0.64641  0.45495  0.14426  1.0000
  C   C2441     1.0  0.69063  0.44693  0.07677  1.0000
  H   H4297     1.0  0.66706  0.42413  0.12799  1.0000
  H   H4298     1.0  0.63878  0.42025  0.13359  1.0000
  H   H4299     1.0  0.64747  0.40055  0.09988  1.0000
  H   H4300     1.0  0.67290  0.39852  0.10654  1.0000
  H   H4301     1.0  0.68294  0.43409  0.10450  1.0000
  H   H4302     1.0  0.66279  0.45795  0.10124  1.0000
  H   H4303     1.0  0.62351  0.45619  0.10602  1.0000
  H   H4304     1.0  0.62599  0.43576  0.09531  1.0000
  H   H4305     1.0  0.60549  0.42744  0.12694  1.0000
  H   H4306     1.0  0.60550  0.41146  0.11320  1.0000
  H   H4307     1.0  0.65305  0.46623  0.12201  1.0000
  H   H4308     1.0  0.62498  0.46041  0.12852  1.0000
  H   H4309     1.0  0.65500  0.44802  0.08017  1.0000
  H   H4310     1.0  0.67093  0.42057  0.08326  1.0000
  H   H4311     1.0  0.65676  0.38526  0.13055  1.0000
  H   H4312     1.0  0.62894  0.38989  0.12654  1.0000
  H   H4313     1.0  0.58317  0.44455  0.10036  1.0000
  H   H4314     1.0  0.56927  0.43490  0.11793  1.0000
  H   H4315     1.0  0.58242  0.45952  0.11471  1.0000
  H   H4316     1.0  0.72946  0.34894  0.17060  1.0000
  C   C2442     1.0  0.55219  0.62359  0.07822  1.0000
  H   H4317     1.0  0.60426  0.56855  0.07199  1.0000
  H   H4318     1.0  0.65185  0.60266  0.08953  1.0000
  H   H4319     1.0  0.60377  0.58437  0.16261  1.0000
  H   H4320     1.0  0.64554  0.58515  0.10612  1.0000
  H   H4321     1.0  0.67751  0.53335  0.12741  1.0000
  H   H4322     1.0  0.49244  0.45611  0.01624  1.0000
  C   C2443     1.0  0.74160  0.33331  0.17253  1.0000
  H   H4323     1.0  0.98521  0.51613  0.08064  1.0000
  C   C2444     1.0  0.49879  0.52111  0.02506  1.0000
  H   H4324     1.0  0.51556  0.33522  0.10834  1.0000
  H   H4325     1.0  0.97214  0.58415  0.98744  1.0000
  H   H4326     1.0  0.59831  0.62426  0.13837  1.0000
  H   H4327     1.0  0.49816  0.45347  0.03382  1.0000
  H   H4328     1.0  0.95879  0.53731  0.10872  1.0000
  H   H4329     1.0  0.97020  0.63979  0.12721  1.0000
  S   S545      1.0  0.89570  0.55115  0.97276  1.0000
  H   H4330     1.0  0.71234  0.31603  0.17917  1.0000
  H   H4331     1.0  0.54195  0.31915  0.15190  1.0000
  H   H4332     1.0  0.70945  0.34237  0.19585  1.0000
  H   H4333     1.0  0.50634  0.32320  0.13888  1.0000
  H   H4334     1.0  0.98595  0.44003  0.08666  1.0000
  C   C2445     1.0  0.51352  0.32484  0.03782  1.0000
  N   N133      1.0  0.75284  0.32593  0.15857  1.0000
  H   H4335     1.0  0.97782  0.34762  0.06460  1.0000
  H   H4336     1.0  0.72148  0.32198  0.15323  1.0000
  H   H4337     1.0  0.51893  0.33021  0.04673  1.0000
  H   H4338     1.0  0.97702  0.61191  0.97950  1.0000
  H   H4339     1.0  0.51545  0.38414  0.97152  1.0000
  C   C2446     1.0  0.91153  0.64528  0.07462  1.0000
  H   H4340     1.0  0.50095  0.64605  0.08480  1.0000
  Fe  Fe272     1.0  0.67778  0.61024  0.32410  1.0000
  S   S546      1.0  0.67272  0.58834  0.30938  1.0000
  S   S547      1.0  0.65350  0.61888  0.34359  1.0000
  Fe  Fe273     1.0  0.72463  0.61713  0.30851  1.0000
  S   S548      1.0  0.72328  0.59565  0.29269  1.0000
  Fe  Fe274     1.0  0.68830  0.61343  0.29208  1.0000
  H   H4341     1.0  0.64578  0.38138  0.43433  1.0000
  Fe  Fe275     1.0  0.70831  0.57223  0.31129  1.0000
  S   S549      1.0  0.72238  0.53542  0.31181  1.0000
  S   S550      1.0  0.71238  0.59243  0.32721  1.0000
  N   N134      1.0  0.65445  0.33492  0.36885  1.0000
  H   H4342     1.0  0.70524  0.31919  0.30983  1.0000
  Fe  Fe276     1.0  0.89747  0.39339  0.41409  1.0000
  S   S551      1.0  0.92655  0.39376  0.39618  1.0000
  S   S552      1.0  0.86103  0.40845  0.41245  1.0000
  Fe  Fe277     1.0  0.92609  0.36592  0.43549  1.0000
  S   S553      1.0  0.95686  0.36265  0.41898  1.0000
  Fe  Fe278     1.0  0.94694  0.39923  0.41183  1.0000
  H   H4343     1.0  0.85674  0.35349  0.41535  1.0000
  Fe  Fe279     1.0  0.93469  0.35730  0.40461  1.0000
  S   S554      1.0  0.94357  0.33589  0.38733  1.0000
  S   S555      1.0  0.91708  0.40273  0.42909  1.0000
  S   S556      1.0  0.90465  0.35663  0.42176  1.0000
  Fe  Fe280     1.0  0.52546  0.36404  0.44318  1.0000
  S   S557      1.0  0.53282  0.33000  0.45607  1.0000
  Fe  Fe281     1.0  0.57331  0.36230  0.42794  1.0000
  H   H4344     1.0  0.83201  0.37783  0.43935  1.0000
  S   S558      1.0  0.59482  0.38280  0.41087  1.0000
  C   C2447     1.0  0.86797  0.41793  0.45952  1.0000
  H   H4345     1.0  0.50264  0.63193  0.36294  1.0000
  Fe  Fe282     1.0  0.56427  0.34117  0.45895  1.0000
  S   S559      1.0  0.54252  0.35317  0.42255  1.0000
  S   S560      1.0  0.55550  0.37600  0.44759  1.0000
  H   H4346     1.0  0.97681  0.35039  0.44752  1.0000
  Fe  Fe283     1.0  0.72993  0.42540  0.36670  1.0000
  S   S561      1.0  0.75707  0.41031  0.35090  1.0000
  S   S562      1.0  0.71827  0.46223  0.36739  1.0000
  Fe  Fe284     1.0  0.72084  0.38005  0.38345  1.0000
  S   S563      1.0  0.74778  0.36150  0.36917  1.0000
  S   S564      1.0  0.70076  0.35952  0.40153  1.0000
  Fe  Fe285     1.0  0.76867  0.38751  0.37012  1.0000
  S   S565      1.0  0.80586  0.37776  0.37198  1.0000
  Fe  Fe286     1.0  0.73393  0.38554  0.35146  1.0000
  S   S566      1.0  0.72333  0.37726  0.33212  1.0000
  S   S567      1.0  0.74274  0.40407  0.38588  1.0000
  S   S568      1.0  0.70581  0.40268  0.36572  1.0000
  H   H4347     1.0  0.89052  0.33063  0.37564  1.0000
  H   H4348     1.0  0.57965  0.43931  0.45434  1.0000
  C   C2448     1.0  0.71306  0.34468  0.31979  1.0000
  C   C2449     1.0  0.72316  0.34924  0.33051  1.0000
  C   C2450     1.0  0.73294  0.33148  0.33968  1.0000
  H   H4349     1.0  0.56990  0.41281  0.45778  1.0000
  H   H4350     1.0  0.49087  0.46888  0.39389  1.0000
  C   C2451     1.0  0.84672  0.38564  0.46130  1.0000
  H   H4351     1.0  0.74084  0.33471  0.34793  1.0000
  H   H4352     1.0  0.58211  0.33327  0.39657  1.0000
  C   C2452     1.0  0.62420  0.37590  0.40837  1.0000
  C   C2453     1.0  0.63715  0.39015  0.39860  1.0000
  C   C2454     1.0  0.66064  0.38520  0.39635  1.0000
  C   C2455     1.0  0.67134  0.36590  0.40383  1.0000
  C   C2456     1.0  0.65840  0.35146  0.41347  1.0000
  C   C2457     1.0  0.63487  0.35644  0.41573  1.0000
  H   H4353     1.0  0.62899  0.40524  0.39287  1.0000
  H   H4354     1.0  0.67042  0.39661  0.38908  1.0000
  H   H4355     1.0  0.66661  0.33639  0.41918  1.0000
  H   H4356     1.0  0.62501  0.34513  0.42304  1.0000
  C   C2458     1.0  0.84588  0.40000  0.40106  1.0000
  C   C2459     1.0  0.85658  0.38676  0.39087  1.0000
  C   C2460     1.0  0.84406  0.38013  0.38211  1.0000
  C   C2461     1.0  0.82070  0.38657  0.38341  1.0000
  C   C2462     1.0  0.80995  0.39975  0.39364  1.0000
  C   C2463     1.0  0.82251  0.40655  0.40234  1.0000
  H   H4357     1.0  0.87454  0.38157  0.38975  1.0000
  H   H4358     1.0  0.85255  0.36990  0.37427  1.0000
  H   H4359     1.0  0.79196  0.40448  0.39495  1.0000
  H   H4360     1.0  0.81405  0.41671  0.41021  1.0000
  H   H4361     1.0  0.75086  0.62106  0.24682  1.0000
  H   H4362     1.0  0.60897  0.33176  0.37412  1.0000
  H   H4363     1.0  0.68123  0.34572  0.37621  1.0000
  H   H4364     1.0  0.66610  0.39465  0.33103  1.0000
  C   C2464     1.0  0.96134  0.45597  0.41604  1.0000
  C   C2465     1.0  0.96370  0.47630  0.41964  1.0000
  H   H4365     1.0  0.58952  0.42024  0.44187  1.0000
  H   H4366     1.0  0.95179  0.42485  0.44378  1.0000
  H   H4367     1.0  0.94484  0.45173  0.41664  1.0000
  H   H4368     1.0  0.94891  0.48768  0.42296  1.0000
  C   C2466     1.0  0.63749  0.35163  0.46550  1.0000
  C   C2467     1.0  0.60031  0.32773  0.39675  1.0000
  H   H4369     1.0  0.58488  0.60540  0.40310  1.0000
  C   C2468     1.0  0.70366  0.60669  0.25356  1.0000
  C   C2469     1.0  0.71391  0.60280  0.23988  1.0000
  H   H4370     1.0  0.60464  0.33321  0.40595  1.0000
  H   H4371     1.0  0.70867  0.59548  0.26277  1.0000
  H   H4372     1.0  0.72695  0.58867  0.23864  1.0000
  C   C2470     1.0  0.72221  0.51598  0.32770  1.0000
  C   C2471     1.0  0.73591  0.49518  0.32757  1.0000
  C   C2472     1.0  0.73527  0.47880  0.33979  1.0000
  C   C2473     1.0  0.72054  0.48291  0.35214  1.0000
  C   C2474     1.0  0.70735  0.50392  0.35241  1.0000
  C   C2475     1.0  0.70818  0.52043  0.34024  1.0000
  H   H4373     1.0  0.74703  0.49175  0.31795  1.0000
  H   H4374     1.0  0.74613  0.46300  0.33971  1.0000
  H   H4375     1.0  0.69613  0.50732  0.36200  1.0000
  H   H4376     1.0  0.69763  0.53643  0.34047  1.0000
  H   H4377     1.0  0.68020  0.36170  0.34696  1.0000
  H   H4378     1.0  0.87336  0.32036  0.39189  1.0000
  H   H4379     1.0  0.68864  0.42782  0.27719  1.0000
  H   H4380     1.0  0.86192  0.46033  0.37965  1.0000
  H   H4381     1.0  0.63060  0.36208  0.36018  1.0000
  C   C2476     1.0  0.58177  0.59509  0.36838  1.0000
  H   H4382     1.0  0.64363  0.34241  0.39007  1.0000
  H   H4383     1.0  0.67792  0.32385  0.34225  1.0000
  H   H4384     1.0  0.50775  0.37390  0.39628  1.0000
  H   H4385     1.0  0.65388  0.34380  0.46876  1.0000
  C   C2477     1.0  0.53839  0.62968  0.36316  1.0000
  H   H4386     1.0  0.98822  0.39625  0.43628  1.0000
  Fe  Fe287     1.0  0.55194  0.31999  0.43557  1.0000
  H   H4387     1.0  0.55389  0.63050  0.35524  1.0000
  H   H4388     1.0  0.80099  0.38489  0.46744  1.0000
  S   S569      1.0  0.92797  0.34892  0.45822  1.0000
  N   N135      1.0  0.84642  0.36266  0.45828  1.0000
  H   H4389     1.0  0.54671  0.58809  0.40067  1.0000
  H   H4390     1.0  0.53576  0.64425  0.36869  1.0000
  H   H4391     1.0  0.97179  0.38869  0.45277  1.0000
  H   H4392     1.0  0.58920  0.61015  0.36281  1.0000
  C   C2478     1.0  0.84570  0.36457  0.44269  1.0000
  H   H4393     1.0  0.57709  0.64628  0.40311  1.0000
  H   H4394     1.0  0.98352  0.44180  0.45864  1.0000
  H   H4395     1.0  0.65745  0.40097  0.45837  1.0000
  H   H4396     1.0  0.75190  0.53186  0.34793  1.0000
  H   H4397     1.0  0.77083  0.59789  0.27353  1.0000
  C   C2479     1.0  0.68025  0.63913  0.24320  1.0000
  C   C2480     1.0  0.56649  0.62072  0.38543  1.0000
  H   H4398     1.0  0.78557  0.43826  0.37806  1.0000
  H   H4399     1.0  0.56306  0.54029  0.40852  1.0000
  H   H4400     1.0  0.81484  0.46596  0.34346  1.0000
  H   H4401     1.0  0.68084  0.41128  0.43393  1.0000
  H   H4402     1.0  0.81304  0.48181  0.38796  1.0000
  H   H4403     1.0  0.66966  0.37389  0.45525  1.0000
  C   C2481     1.0  0.68693  0.62499  0.25527  1.0000
  H   H4404     1.0  0.98729  0.61714  0.39705  1.0000
  H   H4405     1.0  0.50580  0.38594  0.41211  1.0000
  H   H4406     1.0  0.61004  0.56364  0.35317  1.0000
  C   C2482     1.0  0.98914  0.39111  0.44781  1.0000
  C   C2483     1.0  0.95572  0.42928  0.45349  1.0000
  H   H4407     1.0  0.79708  0.42277  0.35898  1.0000
  N   N136      1.0  0.56217  0.60117  0.37965  1.0000
  C   C2484     1.0  0.84373  0.34295  0.43757  1.0000
  H   H4408     1.0  0.86697  0.40153  0.44226  1.0000
  C   C2485     1.0  0.62712  0.63521  0.34212  1.0000
  H   H4409     1.0  0.62151  0.34974  0.44741  1.0000
  C   C2486     1.0  0.50124  0.42152  0.43045  1.0000
  H   H4410     1.0  0.65748  0.35691  0.33907  1.0000
  H   H4411     1.0  0.80785  0.49845  0.35408  1.0000
  H   H4412     1.0  0.82654  0.35980  0.41986  1.0000
  H   H4413     1.0  0.56869  0.63505  0.37677  1.0000
  H   H4414     1.0  0.94286  0.45496  0.46668  1.0000
  H   H4415     1.0  0.74933  0.46107  0.40900  1.0000
  S   S570      1.0  0.69058  0.63656  0.30678  1.0000
  H   H4416     1.0  0.50657  0.31697  0.43662  1.0000
  H   H4417     1.0  0.62731  0.63268  0.32035  1.0000
  C   C2487     1.0  0.59188  0.63860  0.39622  1.0000
  H   H4418     1.0  0.56656  0.59613  0.34945  1.0000
  H   H4419     1.0  0.82146  0.40638  0.33954  1.0000
  H   H4420     1.0  0.53359  0.55178  0.40944  1.0000
  C   C2488     1.0  0.55404  0.56056  0.38886  1.0000
  H   H4421     1.0  0.50963  0.45255  0.41807  1.0000
  C   C2489     1.0  0.59898  0.57647  0.34695  1.0000
  C   C2490     1.0  0.58745  0.61682  0.39285  1.0000
  H   H4422     1.0  0.94615  0.46521  0.44785  1.0000
  C   C2491     1.0  0.76866  0.59945  0.26229  1.0000
  C   C2492     1.0  0.98652  0.49074  0.46448  1.0000
  H   H4423     1.0  0.60265  0.60970  0.38607  1.0000
  C   C2493     1.0  0.69033  0.63510  0.22951  1.0000
  H   H4424     1.0  0.63835  0.39545  0.34135  1.0000
  H   H4425     1.0  0.49583  0.33983  0.41071  1.0000
  C   C2494     1.0  0.57712  0.58409  0.35639  1.0000
  H   H4426     1.0  0.84276  0.45138  0.39540  1.0000
  C   C2495     1.0  0.54019  0.60791  0.37409  1.0000
  H   H4427     1.0  0.70542  0.35829  0.31265  1.0000
  H   H4428     1.0  0.60804  0.59080  0.34216  1.0000
  C   C2496     1.0  0.65028  0.31853  0.36029  1.0000
  C   C2497     1.0  0.61508  0.64433  0.35392  1.0000
  H   H4429     1.0  0.60653  0.63527  0.40187  1.0000
  C   C2498     1.0  0.86765  0.34787  0.46219  1.0000
  C   C2499     1.0  0.58462  0.42147  0.45331  1.0000
  C   C2500     1.0  0.61212  0.38655  0.45986  1.0000
  H   H4430     1.0  0.67167  0.40535  0.41874  1.0000
  H   H4431     1.0  0.73623  0.61934  0.26471  1.0000
  H   H4432     1.0  0.76485  0.53240  0.36295  1.0000
  H   H4433     1.0  0.69041  0.33218  0.36136  1.0000
  C   C2501     1.0  0.81654  0.42475  0.33826  1.0000
  H   H4434     1.0  0.57562  0.57712  0.39642  1.0000
  C   C2502     1.0  0.51858  0.63195  0.35532  1.0000
  C   C2503     1.0  0.76156  0.64160  0.25978  1.0000
  H   H4435     1.0  0.53926  0.56355  0.38340  1.0000
  H   H4436     1.0  0.76560  0.45872  0.37042  1.0000
  H   H4437     1.0  0.68646  0.38319  0.42987  1.0000
  H   H4438     1.0  0.53642  0.59460  0.36917  1.0000
  H   H4439     1.0  0.83184  0.49176  0.37255  1.0000
  N   N137      1.0  0.70513  0.44513  0.31245  1.0000
  C   C2504     1.0  0.70288  0.42951  0.30283  1.0000
  C   C2505     1.0  0.72816  0.43908  0.31662  1.0000
  C   C2506     1.0  0.68832  0.44104  0.32584  1.0000
  C   C2507     1.0  0.70082  0.46944  0.30594  1.0000
  C   C2508     1.0  0.70728  0.47544  0.28960  1.0000
  C   C2509     1.0  0.67891  0.43057  0.29960  1.0000
  C   C2510     1.0  0.68946  0.45383  0.33786  1.0000
  C   C2511     1.0  0.74840  0.44189  0.30464  1.0000
  C   C2512     1.0  0.77043  0.43331  0.31035  1.0000
  C   C2513     1.0  0.70679  0.50054  0.28503  1.0000
  C   C2514     1.0  0.67930  0.41912  0.28696  1.0000
  C   C2515     1.0  0.66858  0.45328  0.34922  1.0000
  H   H4440     1.0  0.70840  0.41191  0.30758  1.0000
  H   H4441     1.0  0.71432  0.43215  0.29260  1.0000
  H   H4442     1.0  0.72997  0.44945  0.32424  1.0000
  H   H4443     1.0  0.73048  0.42160  0.32227  1.0000
  H   H4444     1.0  0.69029  0.42296  0.33039  1.0000
  H   H4445     1.0  0.67094  0.44566  0.32343  1.0000
  H   H4446     1.0  0.68271  0.47634  0.30838  1.0000
  H   H4447     1.0  0.70954  0.47946  0.31092  1.0000
  H   H4448     1.0  0.69522  0.47029  0.28417  1.0000
  H   H4449     1.0  0.72416  0.46719  0.28557  1.0000
  H   H4450     1.0  0.66857  0.42181  0.30887  1.0000
  H   H4451     1.0  0.67045  0.44800  0.29737  1.0000
  H   H4452     1.0  0.69108  0.47155  0.33373  1.0000
  H   H4453     1.0  0.70405  0.44596  0.34320  1.0000
  H   H4454     1.0  0.74823  0.43257  0.29603  1.0000
  H   H4455     1.0  0.74852  0.45980  0.30028  1.0000
  H   H4456     1.0  0.78478  0.43556  0.30162  1.0000
  H   H4457     1.0  0.77178  0.44274  0.31869  1.0000
  H   H4458     1.0  0.77148  0.41530  0.31484  1.0000
  H   H4459     1.0  0.71064  0.50456  0.27330  1.0000
  H   H4460     1.0  0.68998  0.50969  0.28861  1.0000
  H   H4461     1.0  0.71953  0.50639  0.28957  1.0000
  H   H4462     1.0  0.59555  0.58399  0.37336  1.0000
  H   H4463     1.0  0.68733  0.40146  0.28899  1.0000
  H   H4464     1.0  0.66189  0.41950  0.28521  1.0000
  H   H4465     1.0  0.65342  0.46188  0.34468  1.0000
  H   H4466     1.0  0.66638  0.43587  0.35393  1.0000
  H   H4467     1.0  0.67048  0.46197  0.35781  1.0000
  C   C2516     1.0  0.60406  0.41135  0.46138  1.0000
  H   H4468     1.0  0.80081  0.36954  0.45347  1.0000
  S   S571      1.0  0.58424  0.32824  0.43945  1.0000
  H   H4469     1.0  0.56870  0.55205  0.38234  1.0000
  H   H4470     1.0  0.61200  0.38487  0.44875  1.0000
  C   C2517     1.0  0.64843  0.35863  0.36175  1.0000
  H   H4471     1.0  0.55173  0.62655  0.39311  1.0000
  C   C2518     1.0  0.76739  0.52605  0.35276  1.0000
  H   H4472     1.0  0.78668  0.46032  0.34737  1.0000
  H   H4473     1.0  0.78527  0.59953  0.25539  1.0000
  H   H4474     1.0  0.66156  0.39991  0.34900  1.0000
  C   C2519     1.0  0.65171  0.39387  0.43883  1.0000
  S   S572      1.0  0.67416  0.63089  0.27225  1.0000
  H   H4475     1.0  0.76480  0.63878  0.27092  1.0000
  C   C2520     1.0  0.67408  0.39871  0.42987  1.0000
  H   H4476     1.0  0.85890  0.31512  0.46085  1.0000
  H   H4477     1.0  0.56835  0.56954  0.36055  1.0000
  H   H4478     1.0  0.59528  0.56919  0.33824  1.0000
  H   H4479     1.0  0.75724  0.49463  0.36233  1.0000
  H   H4480     1.0  0.71803  0.61322  0.35530  1.0000
  C   C2521     1.0  0.70354  0.62470  0.35984  1.0000
  H   H4481     1.0  0.78796  0.45963  0.39612  1.0000
  C   C2522     1.0  0.54866  0.54443  0.40261  1.0000
  H   H4482     1.0  0.85172  0.47815  0.39286  1.0000
  C   C2523     1.0  0.65653  0.39047  0.34181  1.0000
  H   H4483     1.0  0.73917  0.45945  0.39312  1.0000
  C   C2524     1.0  0.65399  0.38613  0.45472  1.0000
  H   H4484     1.0  0.65193  0.34639  0.44392  1.0000
  C   C2525     1.0  0.70725  0.61692  0.22781  1.0000
  H   H4485     1.0  0.82194  0.44353  0.37792  1.0000
  H   H4486     1.0  0.92335  0.45020  0.45630  1.0000
  H   H4487     1.0  0.76932  0.48323  0.38852  1.0000
  H   H4488     1.0  0.82568  0.42631  0.35813  1.0000
  H   H4489     1.0  0.65013  0.37035  0.36875  1.0000
  H   H4490     1.0  0.91642  0.39594  0.46105  1.0000
  H   H4491     1.0  0.60877  0.35622  0.38166  1.0000
  C   C2526     1.0  0.61810  0.63958  0.32955  1.0000
  H   H4492     1.0  0.88342  0.38552  0.45515  1.0000
  H   H4493     1.0  0.83080  0.43267  0.33180  1.0000
  C   C2527     1.0  0.66193  0.36550  0.34692  1.0000
  H   H4494     1.0  0.80186  0.42931  0.33264  1.0000
  S   S573      1.0  0.75681  0.63139  0.30623  1.0000
  H   H4495     1.0  0.82886  0.33560  0.44350  1.0000
  C   C2528     1.0  0.86642  0.32280  0.46782  1.0000
  C   C2529     1.0  0.63949  0.33201  0.38310  1.0000
  N   N138      1.0  0.63448  0.37662  0.46444  1.0000
  H   H4496     1.0  0.79196  0.49978  0.37113  1.0000
  H   H4497     1.0  0.63950  0.40940  0.43750  1.0000
  H   H4498     1.0  0.76158  0.58471  0.26116  1.0000
  H   H4499     1.0  0.61787  0.42138  0.45744  1.0000
  H   H4500     1.0  0.71747  0.31985  0.38321  1.0000
  C   C2530     1.0  0.49643  0.38382  0.40389  1.0000
  H   H4501     1.0  0.78147  0.53309  0.34541  1.0000
  C   C2531     1.0  0.63814  0.31734  0.45472  1.0000
  H   H4502     1.0  0.51771  0.41230  0.42759  1.0000
  H   H4503     1.0  0.83584  0.45869  0.36249  1.0000
  H   H4504     1.0  0.77339  0.49550  0.34472  1.0000
  H   H4505     1.0  0.75799  0.43635  0.40097  1.0000
  H   H4506     1.0  0.97056  0.50253  0.46534  1.0000
  C   C2532     1.0  0.55978  0.58230  0.39195  1.0000
  C   C2533     1.0  0.75270  0.62063  0.25798  1.0000
  C   C2534     1.0  0.63706  0.34263  0.45185  1.0000
  N   N139      1.0  0.79944  0.46669  0.36531  1.0000
  C   C2535     1.0  0.79375  0.49170  0.36168  1.0000
  C   C2536     1.0  0.82128  0.46033  0.37122  1.0000
  C   C2537     1.0  0.80265  0.45733  0.35170  1.0000
  C   C2538     1.0  0.78081  0.45657  0.37547  1.0000
  C   C2539     1.0  0.77401  0.46490  0.38990  1.0000
  C   C2540     1.0  0.77200  0.50063  0.35518  1.0000
  C   C2541     1.0  0.81067  0.43186  0.35285  1.0000
  C   C2542     1.0  0.82717  0.47655  0.37983  1.0000
  C   C2543     1.0  0.84712  0.46591  0.38735  1.0000
  C   C2544     1.0  0.75389  0.45477  0.39874  1.0000
  H   H4507     1.0  0.95066  0.41652  0.46247  1.0000
  C   C2545     1.0  0.98107  0.43075  0.45148  1.0000
  H   H4508     1.0  0.83206  0.39750  0.45796  1.0000
  H   H4509     1.0  0.70718  0.62844  0.36981  1.0000
  H   H4510     1.0  0.52607  0.61026  0.38302  1.0000
  H   H4511     1.0  0.49097  0.40057  0.39808  1.0000
  H   H4512     1.0  0.88155  0.34898  0.45302  1.0000
  C   C2546     1.0  0.82592  0.35427  0.46741  1.0000
  C   C2547     1.0  0.84154  0.34734  0.42188  1.0000
  C   C2548     1.0  0.61383  0.33786  0.38292  1.0000
  C   C2549     1.0  0.80290  0.36800  0.46470  1.0000
  S   S574      1.0  0.50845  0.64616  0.40449  1.0000
  H   H4513     1.0  0.88255  0.42589  0.45362  1.0000
  H   H4514     1.0  0.86114  0.37033  0.43630  1.0000
  H   H4515     1.0  0.69713  0.64121  0.33928  1.0000
  H   H4516     1.0  0.59882  0.37699  0.46609  1.0000
  C   C2550     1.0  0.94121  0.45132  0.45622  1.0000
  H   H4517     1.0  0.68853  0.61615  0.36225  1.0000
  H   H4518     1.0  0.83982  0.33168  0.41850  1.0000
  C   C2551     1.0  0.86749  0.39674  0.45377  1.0000
  H   H4519     1.0  0.98753  0.48223  0.45528  1.0000
  C   C2552     1.0  0.98503  0.48191  0.41909  1.0000
  C   C2553     1.0  0.67841  0.33164  0.37144  1.0000
  H   H4520     1.0  0.54511  0.52876  0.40012  1.0000
  H   H4521     1.0  0.49165  0.46105  0.37681  1.0000
  S   S575      1.0  0.98712  0.50710  0.42436  1.0000
  H   H4522     1.0  0.98486  0.44019  0.44060  1.0000
  H   H4523     1.0  0.49196  0.35067  0.42676  1.0000
  C   C2554     1.0  0.49664  0.44434  0.42509  1.0000
  H   H4524     1.0  0.52076  0.61814  0.34917  1.0000
  H   H4525     1.0  0.77835  0.64190  0.25307  1.0000
  C   C2555     1.0  0.71293  0.32254  0.31816  1.0000
  H   H4526     1.0  0.49700  0.55924  0.43621  1.0000
  H   H4527     1.0  0.85246  0.42997  0.45815  1.0000
  C   C2556     1.0  0.69984  0.64605  0.34915  1.0000
  H   H4528     1.0  0.62203  0.64103  0.36365  1.0000
  H   H4529     1.0  0.50164  0.56267  0.45336  1.0000
  H   H4530     1.0  0.50328  0.60039  0.41516  1.0000
  H   H4531     1.0  0.82519  0.33700  0.46618  1.0000
  H   H4532     1.0  0.97450  0.37499  0.38511  1.0000
  H   H4533     1.0  0.85912  0.33069  0.43871  1.0000
  H   H4534     1.0  0.63569  0.32574  0.35474  1.0000
  H   H4535     1.0  0.50292  0.44117  0.39081  1.0000
  S   S576      1.0  0.97839  0.41562  0.40694  1.0000
  C   C2557     1.0  0.98037  0.44139  0.41148  1.0000
  C   C2558     1.0  0.88908  0.31637  0.38447  1.0000
  H   H4536     1.0  0.86968  0.41393  0.47092  1.0000
  H   H4537     1.0  0.53061  0.31628  0.40682  1.0000
  H   H4538     1.0  0.64263  0.31452  0.38860  1.0000
  H   H4539     1.0  0.87371  0.35378  0.47072  1.0000
  C   C2559     1.0  0.92041  0.38653  0.47103  1.0000
  H   H4540     1.0  0.78406  0.34005  0.47121  1.0000
  H   H4541     1.0  0.90342  0.31420  0.39029  1.0000
  Fe  Fe288     1.0  0.92642  0.38723  0.56251  1.0000
  S   S577      1.0  0.91843  0.36413  0.54965  1.0000
  S   S578      1.0  0.90545  0.39855  0.58224  1.0000
  H   H4542     1.0  0.52596  0.41283  0.53947  1.0000
  Fe  Fe289     1.0  0.93569  0.38518  0.53062  1.0000
  S   S579      1.0  0.92364  0.40048  0.50965  1.0000
  Fe  Fe290     1.0  0.95316  0.34605  0.55199  1.0000
  S   S580      1.0  0.94037  0.41014  0.54348  1.0000
  S   S581      1.0  0.96017  0.36797  0.56595  1.0000
  H   H4543     1.0  0.84668  0.34342  0.62836  1.0000
  Fe  Fe291     1.0  0.76073  0.46803  0.62665  1.0000
  S   S582      1.0  0.75114  0.46372  0.60604  1.0000
  S   S583      1.0  0.76296  0.50327  0.63031  1.0000
  Fe  Fe292     1.0  0.76585  0.41792  0.63702  1.0000
  S   S584      1.0  0.75794  0.40963  0.61729  1.0000
  S   S585      1.0  0.77087  0.39306  0.65683  1.0000
  Fe  Fe293     1.0  0.77967  0.43527  0.60598  1.0000
  S   S586      1.0  0.80091  0.42927  0.58501  1.0000
  Fe  Fe294     1.0  0.72990  0.43819  0.61859  1.0000
  S   S587      1.0  0.69405  0.43376  0.61690  1.0000
  S   S588      1.0  0.79050  0.44082  0.62567  1.0000
  S   S589      1.0  0.73660  0.44536  0.63920  1.0000
  H   H4544     1.0  0.97198  0.38331  0.47579  1.0000
  H   H4545     1.0  0.51605  0.60754  0.58595  1.0000
  H   H4546     1.0  0.53892  0.53405  0.51255  1.0000
  C   C2560     1.0  0.50828  0.36704  0.58332  1.0000
  C   C2561     1.0  0.50031  0.34856  0.59540  1.0000
  H   H4547     1.0  0.50095  0.38382  0.58586  1.0000
  H   H4548     1.0  0.67075  0.62787  0.68154  1.0000
  C   C2562     1.0  0.98219  0.59829  0.59200  1.0000
  Fe  Fe295     1.0  0.62082  0.38360  0.57007  1.0000
  S   S590      1.0  0.59317  0.37105  0.58678  1.0000
  S   S591      1.0  0.65512  0.39001  0.57369  1.0000
  Fe  Fe296     1.0  0.59540  0.38117  0.54568  1.0000
  S   S592      1.0  0.56646  0.36847  0.56078  1.0000
  S   S593      1.0  0.59207  0.39134  0.52225  1.0000
  Fe  Fe297     1.0  0.56950  0.39410  0.57350  1.0000
  S   S594      1.0  0.53628  0.41210  0.58305  1.0000
  Fe  Fe298     1.0  0.59214  0.34647  0.57269  1.0000
  S   S595      1.0  0.59693  0.40851  0.55768  1.0000
  S   S596      1.0  0.62141  0.35721  0.55665  1.0000
  Fe  Fe299     1.0  0.81682  0.57211  0.67722  1.0000
  S   S597      1.0  0.82942  0.59796  0.65933  1.0000
  S   S598      1.0  0.80660  0.53886  0.67525  1.0000
  Fe  Fe300     1.0  0.82036  0.60029  0.70005  1.0000
  H   H4549     1.0  0.89767  0.31616  0.47648  1.0000
  Fe  Fe301     1.0  0.80658  0.62285  0.67169  1.0000
  H   H4550     1.0  0.81950  0.35227  0.62399  1.0000
  Fe  Fe302     1.0  0.85441  0.60073  0.67290  1.0000
  S   S599      1.0  0.89170  0.60081  0.66538  1.0000
  S   S600      1.0  0.79256  0.59709  0.68877  1.0000
  S   S601      1.0  0.84365  0.57297  0.69015  1.0000
  H   H4551     1.0  0.71500  0.33814  0.67908  1.0000
  H   H4552     1.0  0.95608  0.39812  0.59135  1.0000
  H   H4553     1.0  0.65429  0.39756  0.49776  1.0000
  C   C2563     1.0  0.93702  0.42706  0.59908  1.0000
  H   H4554     1.0  0.91642  0.56786  0.64852  1.0000
  H   H4555     1.0  0.53491  0.32309  0.62990  1.0000
  S   S602      1.0  0.96983  0.36534  0.53196  1.0000
  H   H4556     1.0  0.76500  0.62541  0.64607  1.0000
  H   H4557     1.0  0.97671  0.47109  0.56359  1.0000
  H   H4558     1.0  0.54193  0.33725  0.52606  1.0000
  C   C2564     1.0  0.58067  0.34741  0.49196  1.0000
  C   C2565     1.0  0.59334  0.33833  0.50287  1.0000
  C   C2566     1.0  0.59605  0.35132  0.51264  1.0000
  C   C2567     1.0  0.58630  0.37368  0.51151  1.0000
  C   C2568     1.0  0.57355  0.38279  0.50062  1.0000
  C   C2569     1.0  0.57050  0.36966  0.49100  1.0000
  H   H4559     1.0  0.84542  0.38514  0.47294  1.0000
  H   H4560     1.0  0.60627  0.34426  0.52078  1.0000
  H   H4561     1.0  0.56618  0.40016  0.49956  1.0000
  H   H4562     1.0  0.98869  0.47201  0.52659  1.0000
  H   H4563     1.0  0.63252  0.39966  0.47900  1.0000
  H   H4564     1.0  0.94667  0.56200  0.62877  1.0000
  H   H4565     1.0  0.64126  0.37484  0.64648  1.0000
  C   C2570     1.0  0.90608  0.33125  0.58625  1.0000
  H   H4566     1.0  0.82698  0.35341  0.47881  1.0000
  C   C2571     1.0  0.51951  0.48682  0.56714  1.0000
  C   C2572     1.0  0.54175  0.47610  0.56515  1.0000
  C   C2573     1.0  0.54697  0.45315  0.56983  1.0000
  C   C2574     1.0  0.52998  0.44079  0.57668  1.0000
  C   C2575     1.0  0.50767  0.45147  0.57863  1.0000
  C   C2576     1.0  0.50240  0.47443  0.57377  1.0000
  H   H4567     1.0  0.55504  0.48562  0.56006  1.0000
  H   H4568     1.0  0.56420  0.44516  0.56840  1.0000
  H   H4569     1.0  0.75832  0.57807  0.71319  1.0000
  C   C2577     1.0  0.65350  0.37942  0.50020  1.0000
  H   H4570     1.0  0.97884  0.43258  0.60028  1.0000
  H   H4571     1.0  0.56066  0.37687  0.48267  1.0000
  C   C2578     1.0  0.79672  0.37214  0.58470  1.0000
  S   S603      1.0  0.57908  0.33049  0.47950  1.0000
  H   H4572     1.0  0.72080  0.62934  0.67004  1.0000
  H   H4573     1.0  0.91671  0.45828  0.53672  1.0000
  C   C2579     1.0  0.50803  0.52061  0.52199  1.0000
  H   H4574     1.0  0.76998  0.60931  0.63194  1.0000
  H   H4575     1.0  0.91342  0.32352  0.57669  1.0000
  C   C2580     1.0  0.77679  0.51226  0.64239  1.0000
  C   C2581     1.0  0.78057  0.53457  0.64004  1.0000
  C   C2582     1.0  0.79020  0.54281  0.64972  1.0000
  C   C2583     1.0  0.79568  0.52905  0.66214  1.0000
  C   C2584     1.0  0.79189  0.50675  0.66451  1.0000
  C   C2585     1.0  0.78270  0.49836  0.65469  1.0000
  H   H4576     1.0  0.77609  0.54554  0.63061  1.0000
  H   H4577     1.0  0.79337  0.55981  0.64756  1.0000
  H   H4578     1.0  0.79607  0.49585  0.67404  1.0000
  H   H4579     1.0  0.77978  0.48124  0.65679  1.0000
  C   C2586     1.0  0.68382  0.41987  0.60548  1.0000
  C   C2587     1.0  0.66059  0.41961  0.60706  1.0000
  C   C2588     1.0  0.65153  0.41001  0.59775  1.0000
  C   C2589     1.0  0.66557  0.40076  0.58656  1.0000
  C   C2590     1.0  0.68884  0.40070  0.58515  1.0000
  C   C2591     1.0  0.69793  0.41003  0.59456  1.0000
  H   H4580     1.0  0.64944  0.42715  0.61543  1.0000
  H   H4581     1.0  0.63362  0.41023  0.59903  1.0000
  H   H4582     1.0  0.69992  0.39359  0.57658  1.0000
  H   H4583     1.0  0.71580  0.41007  0.59314  1.0000
  C   C2592     1.0  0.92472  0.38565  0.49561  1.0000
  C   C2593     1.0  0.93145  0.36261  0.49695  1.0000
  C   C2594     1.0  0.93235  0.35158  0.48542  1.0000
  H   H4584     1.0  0.66809  0.37094  0.50538  1.0000
  H   H4585     1.0  0.78524  0.60022  0.64663  1.0000
  C   C2595     1.0  0.91903  0.39748  0.48264  1.0000
  H   H4586     1.0  0.93584  0.35329  0.50689  1.0000
  H   H4587     1.0  0.54251  0.35096  0.59994  1.0000
  C   C2596     1.0  0.88060  0.33237  0.58885  1.0000
  H   H4588     1.0  0.59799  0.41279  0.47273  1.0000
  C   C2597     1.0  0.87684  0.40895  0.58215  1.0000
  C   C2598     1.0  0.86608  0.40695  0.57113  1.0000
  C   C2599     1.0  0.84286  0.41402  0.57188  1.0000
  C   C2600     1.0  0.83031  0.42294  0.58367  1.0000
  C   C2601     1.0  0.84125  0.42573  0.59439  1.0000
  C   C2602     1.0  0.86443  0.41859  0.59368  1.0000
  H   H4589     1.0  0.87556  0.39968  0.56215  1.0000
  H   H4590     1.0  0.83453  0.41210  0.56344  1.0000
  H   H4591     1.0  0.83179  0.43293  0.60340  1.0000
  H   H4592     1.0  0.87271  0.42037  0.60218  1.0000
  C   C2603     1.0  0.77912  0.34948  0.66896  1.0000
  C   C2604     1.0  0.77755  0.36437  0.65626  1.0000
  C   C2605     1.0  0.78083  0.35612  0.64351  1.0000
  H   H4593     1.0  0.77664  0.35579  0.67885  1.0000
  H   H4594     1.0  0.77981  0.36752  0.63367  1.0000
  H   H4595     1.0  0.74449  0.34558  0.60362  1.0000
  N   N140      1.0  0.70968  0.35905  0.64953  1.0000
  C   C2606     1.0  0.72372  0.36633  0.63547  1.0000
  C   C2607     1.0  0.70869  0.37564  0.65923  1.0000
  C   C2608     1.0  0.72166  0.33708  0.65619  1.0000
  C   C2609     1.0  0.68639  0.35603  0.64803  1.0000
  H   H4596     1.0  0.93093  0.60279  0.63479  1.0000
  H   H4597     1.0  0.83674  0.34938  0.58515  1.0000
  H   H4598     1.0  0.87433  0.34206  0.57917  1.0000
  C   C2610     1.0  0.69879  0.40001  0.65412  1.0000
  C   C2611     1.0  0.70019  0.41493  0.66465  1.0000
  H   H4599     1.0  0.49051  0.59547  0.57298  1.0000
  C   C2612     1.0  0.83308  0.35794  0.59457  1.0000
  H   H4600     1.0  0.98742  0.51788  0.50715  1.0000
  H   H4601     1.0  0.73936  0.37118  0.63725  1.0000
  H   H4602     1.0  0.71530  0.38175  0.62957  1.0000
  H   H4603     1.0  0.69830  0.37078  0.66966  1.0000
  H   H4604     1.0  0.72585  0.37568  0.66146  1.0000
  N   N141      1.0  0.98392  0.47150  0.50521  1.0000
  C   C2613     1.0  0.92653  0.62499  0.65781  1.0000
  H   H4605     1.0  0.68080  0.40129  0.65344  1.0000
  H   H4606     1.0  0.67457  0.35824  0.65803  1.0000
  C   C2614     1.0  0.73970  0.35874  0.61040  1.0000
  H   H4607     1.0  0.53329  0.45632  0.51561  1.0000
  H   H4608     1.0  0.97671  0.53165  0.53003  1.0000
  H   H4609     1.0  0.52347  0.49243  0.53502  1.0000
  H   H4610     1.0  0.69348  0.32802  0.67281  1.0000
  H   H4611     1.0  0.98571  0.61370  0.61684  1.0000
  H   H4612     1.0  0.70801  0.40673  0.64372  1.0000
  H   H4613     1.0  0.91365  0.59928  0.68981  1.0000
  H   H4614     1.0  0.49803  0.33255  0.63125  1.0000
  H   H4615     1.0  0.69037  0.40954  0.67518  1.0000
  H   H4616     1.0  0.71791  0.41443  0.66586  1.0000
  H   H4617     1.0  0.53236  0.53184  0.53164  1.0000
  H   H4618     1.0  0.96748  0.57380  0.60798  1.0000
  H   H4619     1.0  0.91347  0.32102  0.59539  1.0000
  H   H4620     1.0  0.93076  0.61858  0.69214  1.0000
  C   C2615     1.0  0.92692  0.36349  0.47239  1.0000
  H   H4621     1.0  0.98776  0.57099  0.62455  1.0000
  H   H4622     1.0  0.96220  0.63605  0.60100  1.0000
  H   H4623     1.0  0.87164  0.64695  0.65775  1.0000
  C   C2616     1.0  0.54803  0.33589  0.53627  1.0000
  N   N142      1.0  0.50819  0.34720  0.60936  1.0000
  H   H4624     1.0  0.88014  0.61917  0.70227  1.0000
  C   C2617     1.0  0.71181  0.32795  0.67165  1.0000
  C   C2618     1.0  0.78518  0.33305  0.64352  1.0000
  H   H4625     1.0  0.57105  0.31443  0.54875  1.0000
  H   H4626     1.0  0.96708  0.57684  0.63986  1.0000
  S   S604      1.0  0.83267  0.62794  0.68356  1.0000
  H   H4627     1.0  0.55579  0.62903  0.66949  1.0000
  H   H4628     1.0  0.53690  0.32343  0.60283  1.0000
  H   H4629     1.0  0.83995  0.37384  0.59074  1.0000
  C   C2619     1.0  0.83745  0.35340  0.61993  1.0000
  H   H4630     1.0  0.57580  0.32044  0.62822  1.0000
  N   N143      1.0  0.84474  0.34397  0.60632  1.0000
  C   C2620     1.0  0.94719  0.62922  0.60739  1.0000
  H   H4631     1.0  0.72671  0.37158  0.60589  1.0000
  C   C2621     1.0  0.53305  0.33883  0.60760  1.0000
  H   H4632     1.0  0.68616  0.33864  0.64662  1.0000
  C   C2622     1.0  0.97946  0.42016  0.59334  1.0000
  H   H4633     1.0  0.84028  0.31464  0.59861  1.0000
  C   C2623     1.0  0.49957  0.61709  0.58529  1.0000
  C   C2624     1.0  0.54384  0.33422  0.62125  1.0000
  C   C2625     1.0  0.84089  0.37778  0.61916  1.0000
  C   C2626     1.0  0.89637  0.64279  0.70955  1.0000
  C   C2627     1.0  0.83168  0.38603  0.63325  1.0000
  H   H4634     1.0  0.83200  0.38894  0.61106  1.0000
  H   H4635     1.0  0.85894  0.37943  0.61662  1.0000
  C   C2628     1.0  0.65397  0.37007  0.48670  1.0000
  S   S605      1.0  0.51288  0.64525  0.59955  1.0000
  H   H4636     1.0  0.92422  0.32655  0.63196  1.0000
  H   H4637     1.0  0.83544  0.40312  0.63255  1.0000
  H   H4638     1.0  0.81321  0.38675  0.63563  1.0000
  H   H4639     1.0  0.83934  0.37503  0.64205  1.0000
  C   C2629     1.0  0.52517  0.53583  0.52166  1.0000
  C   C2630     1.0  0.65112  0.36901  0.63672  1.0000
  H   H4640     1.0  0.64919  0.35146  0.63689  1.0000
  H   H4641     1.0  0.95795  0.39968  0.60941  1.0000
  H   H4642     1.0  0.87367  0.36099  0.59911  1.0000
  H   H4643     1.0  0.85453  0.31756  0.65170  1.0000
  H   H4644     1.0  0.79781  0.35819  0.57881  1.0000
  C   C2631     1.0  0.86969  0.34368  0.60193  1.0000
  C   C2632     1.0  0.97138  0.60599  0.62346  1.0000
  H   H4645     1.0  0.56324  0.64353  0.65175  1.0000
  H   H4646     1.0  0.63797  0.37653  0.50780  1.0000
  C   C2633     1.0  0.54946  0.64182  0.66092  1.0000
  H   H4647     1.0  0.49418  0.52378  0.53083  1.0000
  N   N144      1.0  0.95366  0.60571  0.61471  1.0000
  H   H4648     1.0  0.54773  0.32305  0.57157  1.0000
  H   H4649     1.0  0.65342  0.35195  0.48994  1.0000
  H   H4650     1.0  0.80274  0.37737  0.60474  1.0000
  H   H4651     1.0  0.54535  0.41858  0.54955  1.0000
  C   C2634     1.0  0.53833  0.42383  0.53952  1.0000
  C   C2635     1.0  0.63372  0.38146  0.47919  1.0000
  H   H4652     1.0  0.79915  0.34957  0.60412  1.0000
  C   C2636     1.0  0.51843  0.45652  0.52419  1.0000
  S   S606      1.0  0.51398  0.51570  0.56124  1.0000
  C   C2637     1.0  0.78370  0.32643  0.66897  1.0000
  H   H4653     1.0  0.52672  0.36579  0.58152  1.0000
  H   H4654     1.0  0.97677  0.57788  0.57730  1.0000
  C   C2638     1.0  0.98060  0.58331  0.63172  1.0000
  H   H4655     1.0  0.76737  0.36706  0.47183  1.0000
  H   H4656     1.0  0.91379  0.41530  0.48152  1.0000
  C   C2639     1.0  0.98740  0.47369  0.47805  1.0000
  N   N145      1.0  0.69039  0.47981  0.57616  1.0000
  C   C2640     1.0  0.71259  0.46613  0.57889  1.0000
  C   C2641     1.0  0.67785  0.48822  0.58955  1.0000
  C   C2642     1.0  0.67656  0.46469  0.57227  1.0000
  C   C2643     1.0  0.69316  0.49875  0.56396  1.0000
  C   C2644     1.0  0.70886  0.51513  0.56491  1.0000
  C   C2645     1.0  0.72669  0.45462  0.56659  1.0000
  C   C2646     1.0  0.65207  0.47495  0.57036  1.0000
  C   C2647     1.0  0.69198  0.49424  0.59955  1.0000
  C   C2648     1.0  0.67701  0.50549  0.61139  1.0000
  C   C2649     1.0  0.71239  0.53150  0.55107  1.0000
  C   C2650     1.0  0.74980  0.44379  0.57015  1.0000
  C   C2651     1.0  0.63949  0.45771  0.56728  1.0000
  H   H4657     1.0  0.70982  0.45287  0.58820  1.0000
  H   H4658     1.0  0.72347  0.47621  0.58197  1.0000
  H   H4659     1.0  0.66506  0.50293  0.58692  1.0000
  H   H4660     1.0  0.66828  0.47529  0.59640  1.0000
  H   H4661     1.0  0.67575  0.44951  0.58046  1.0000
  H   H4662     1.0  0.68452  0.45874  0.56216  1.0000
  H   H4663     1.0  0.69896  0.49221  0.55379  1.0000
  H   H4664     1.0  0.67669  0.50919  0.56274  1.0000
  H   H4665     1.0  0.72565  0.50647  0.56695  1.0000
  H   H4666     1.0  0.70113  0.52517  0.57335  1.0000
  H   H4667     1.0  0.71840  0.44119  0.56472  1.0000
  H   H4668     1.0  0.72926  0.46672  0.55666  1.0000
  H   H4669     1.0  0.65179  0.48884  0.56128  1.0000
  H   H4670     1.0  0.64251  0.48128  0.58001  1.0000
  H   H4671     1.0  0.70160  0.47889  0.60471  1.0000
  H   H4672     1.0  0.70415  0.50533  0.59392  1.0000
  H   H4673     1.0  0.66742  0.52145  0.60693  1.0000
  H   H4674     1.0  0.66517  0.49437  0.61776  1.0000
  H   H4675     1.0  0.68756  0.50902  0.61854  1.0000
  H   H4676     1.0  0.72330  0.54338  0.55212  1.0000
  H   H4677     1.0  0.72072  0.52252  0.54217  1.0000
  H   H4678     1.0  0.69613  0.54115  0.54857  1.0000
  H   H4679     1.0  0.75942  0.43503  0.56144  1.0000
  H   H4680     1.0  0.75946  0.45658  0.57148  1.0000
  H   H4681     1.0  0.74824  0.43146  0.58008  1.0000
  H   H4682     1.0  0.64843  0.45045  0.55779  1.0000
  H   H4683     1.0  0.63772  0.44411  0.57647  1.0000
  H   H4684     1.0  0.62241  0.46567  0.56530  1.0000
  Fe  Fe303     1.0  0.97354  0.38930  0.54579  1.0000
  C   C2652     1.0  0.78657  0.31819  0.65626  1.0000
  C   C2653     1.0  0.93290  0.59801  0.62412  1.0000
  H   H4685     1.0  0.50914  0.36826  0.62450  1.0000
  H   H4686     1.0  0.96754  0.41037  0.48114  1.0000
  H   H4687     1.0  0.93776  0.43896  0.60612  1.0000
  C   C2654     1.0  0.73068  0.34858  0.62550  1.0000
  H   H4688     1.0  0.50966  0.45681  0.49747  1.0000
  C   C2655     1.0  0.93106  0.57282  0.62622  1.0000
  C   C2656     1.0  0.91212  0.56663  0.63816  1.0000
  H   H4689     1.0  0.77880  0.37918  0.58747  1.0000
  H   H4690     1.0  0.53091  0.62961  0.55378  1.0000
  C   C2657     1.0  0.93630  0.64447  0.65282  1.0000
  H   H4691     1.0  0.67008  0.37248  0.47966  1.0000
  C   C2658     1.0  0.52725  0.44812  0.53849  1.0000
  H   H4692     1.0  0.51683  0.55342  0.52054  1.0000
  H   H4693     1.0  0.90970  0.54919  0.63845  1.0000
  C   C2659     1.0  0.91573  0.61053  0.69691  1.0000
  H   H4694     1.0  0.89610  0.57774  0.63661  1.0000
  H   H4695     1.0  0.62438  0.34472  0.47391  1.0000
  H   H4696     1.0  0.97712  0.61432  0.58524  1.0000
  C   C2660     1.0  0.95854  0.32095  0.62208  1.0000
  C   C2661     1.0  0.68490  0.63514  0.67442  1.0000
  H   H4697     1.0  0.72201  0.32381  0.64986  1.0000
  H   H4698     1.0  0.51523  0.38090  0.60664  1.0000
  H   H4699     1.0  0.75476  0.36631  0.61030  1.0000
  H   H4700     1.0  0.64427  0.37943  0.62742  1.0000
  H   H4701     1.0  0.92737  0.56874  0.61634  1.0000
  C   C2662     1.0  0.70731  0.62113  0.67721  1.0000
  H   H4702     1.0  0.78461  0.35523  0.48528  1.0000
  H   H4703     1.0  0.92206  0.64062  0.62520  1.0000
  H   H4704     1.0  0.91743  0.60666  0.61983  1.0000
  C   C2663     1.0  0.80718  0.36393  0.59817  1.0000
  C   C2664     1.0  0.98005  0.39540  0.47935  1.0000
  C   C2665     1.0  0.50129  0.36531  0.56938  1.0000
  H   H4705     1.0  0.53484  0.49391  0.51670  1.0000
  H   H4706     1.0  0.50921  0.44362  0.52262  1.0000
  H   H4707     1.0  0.92193  0.44886  0.51983  1.0000
  H   H4708     1.0  0.93565  0.62929  0.59981  1.0000
  N   N146      1.0  0.72999  0.58143  0.67670  1.0000
  C   C2666     1.0  0.70848  0.59698  0.67458  1.0000
  C   C2667     1.0  0.72852  0.55842  0.67410  1.0000
  C   C2668     1.0  0.73272  0.57967  0.69203  1.0000
  C   C2669     1.0  0.75018  0.59029  0.66752  1.0000
  C   C2670     1.0  0.75017  0.59494  0.65133  1.0000
  H   H4709     1.0  0.97199  0.46590  0.48015  1.0000
  C   C2671     1.0  0.75081  0.56063  0.69755  1.0000
  C   C2672     1.0  0.71530  0.55683  0.66231  1.0000
  C   C2673     1.0  0.71742  0.53275  0.66002  1.0000
  C   C2674     1.0  0.76878  0.60825  0.64357  1.0000
  H   H4710     1.0  0.95429  0.64373  0.65150  1.0000
  H   H4711     1.0  0.69407  0.58994  0.68167  1.0000
  H   H4712     1.0  0.70485  0.59841  0.66370  1.0000
  H   H4713     1.0  0.74567  0.54880  0.67189  1.0000
  H   H4714     1.0  0.71985  0.54883  0.68383  1.0000
  H   H4715     1.0  0.71659  0.57726  0.69918  1.0000
  H   H4716     1.0  0.73707  0.59546  0.69389  1.0000
  H   H4717     1.0  0.75284  0.60576  0.67080  1.0000
  H   H4718     1.0  0.76573  0.57838  0.66912  1.0000
  H   H4719     1.0  0.73422  0.60463  0.64847  1.0000
  H   H4720     1.0  0.75334  0.57897  0.64722  1.0000
  H   H4721     1.0  0.67687  0.38893  0.63494  1.0000
  H   H4722     1.0  0.76733  0.56149  0.69081  1.0000
  H   H4723     1.0  0.74635  0.54400  0.69771  1.0000
  H   H4724     1.0  0.69716  0.56272  0.66543  1.0000
  H   H4725     1.0  0.72110  0.56687  0.65204  1.0000
  H   H4726     1.0  0.70832  0.53205  0.65133  1.0000
  H   H4727     1.0  0.73525  0.52578  0.65699  1.0000
  H   H4728     1.0  0.71024  0.52225  0.66981  1.0000
  C   C2675     1.0  0.67580  0.37115  0.63552  1.0000
  H   H4729     1.0  0.97797  0.43019  0.58269  1.0000
  H   H4730     1.0  0.76650  0.63935  0.69100  1.0000
  H   H4731     1.0  0.98969  0.57978  0.52368  1.0000
  H   H4732     1.0  0.69323  0.43239  0.66071  1.0000
  C   C2676     1.0  0.49729  0.48576  0.50823  1.0000
  H   H4733     1.0  0.80540  0.38537  0.57765  1.0000
  C   C2677     1.0  0.49529  0.33159  0.62042  1.0000
  H   H4734     1.0  0.97275  0.43652  0.55547  1.0000
  H   H4735     1.0  0.94835  0.59093  0.59752  1.0000
  H   H4736     1.0  0.91427  0.47827  0.52081  1.0000
  H   H4737     1.0  0.93736  0.33373  0.48658  1.0000
  H   H4738     1.0  0.98972  0.43897  0.49886  1.0000
  C   C2678     1.0  0.95891  0.47125  0.50819  1.0000
  C   C2679     1.0  0.94866  0.46450  0.52392  1.0000
  H   H4739     1.0  0.54011  0.45792  0.53949  1.0000
  H   H4740     1.0  0.68451  0.36633  0.62524  1.0000
  C   C2680     1.0  0.89486  0.62811  0.69859  1.0000
  H   H4741     1.0  0.98717  0.37930  0.63572  1.0000
  C   C2681     1.0  0.92389  0.46238  0.52534  1.0000
  H   H4742     1.0  0.97897  0.50132  0.48974  1.0000
  H   H4743     1.0  0.49445  0.44201  0.58393  1.0000
  C   C2682     1.0  0.51877  0.49574  0.52424  1.0000
  H   H4744     1.0  0.68284  0.63625  0.66321  1.0000
  H   H4745     1.0  0.71635  0.34019  0.62517  1.0000
  H   H4746     1.0  0.55224  0.42180  0.53054  1.0000
  H   H4747     1.0  0.73950  0.33837  0.65616  1.0000
  N   N147      1.0  0.50430  0.47926  0.52278  1.0000
  H   H4748     1.0  0.94957  0.48779  0.50433  1.0000
  H   H4749     1.0  0.95440  0.45958  0.50217  1.0000
  H   H4750     1.0  0.94965  0.47712  0.53038  1.0000
  H   H4751     1.0  0.95770  0.44845  0.52855  1.0000
  H   H4752     1.0  0.74424  0.33568  0.62935  1.0000
  H   H4753     1.0  0.96190  0.50908  0.51695  1.0000
  H   H4754     1.0  0.91072  0.34821  0.58443  1.0000
  C   C2683     1.0  0.96222  0.59133  0.60333  1.0000
  C   C2684     1.0  0.90318  0.62577  0.65959  1.0000
  H   H4755     1.0  0.97718  0.50375  0.53955  1.0000
  H   H4756     1.0  0.54385  0.35005  0.62499  1.0000
  H   H4757     1.0  0.78726  0.32668  0.63369  1.0000
  H   H4758     1.0  0.93710  0.60923  0.66028  1.0000
  C   C2685     1.0  0.53619  0.64368  0.55723  1.0000
  H   H4759     1.0  0.93534  0.43631  0.58826  1.0000
  H   H4760     1.0  0.92183  0.41900  0.60327  1.0000
  C   C2686     1.0  0.98462  0.51411  0.52979  1.0000
  H   H4761     1.0  0.55688  0.35026  0.53559  1.0000
  H   H4762     1.0  0.96463  0.61688  0.63162  1.0000
  H   H4763     1.0  0.91833  0.60029  0.70732  1.0000
  H   H4764     1.0  0.50857  0.34892  0.56617  1.0000
  H   H4765     1.0  0.70880  0.62143  0.68834  1.0000
  C   C2687     1.0  0.75337  0.56189  0.71268  1.0000
  C   C2688     1.0  0.98888  0.44218  0.55340  1.0000
  C   C2689     1.0  0.98027  0.50667  0.51662  1.0000
  H   H4766     1.0  0.73743  0.55985  0.72003  1.0000
  H   H4767     1.0  0.51353  0.44924  0.54764  1.0000
  C   C2690     1.0  0.95788  0.40932  0.59857  1.0000
  C   C2691     1.0  0.49306  0.63635  0.59160  1.0000
  H   H4768     1.0  0.50125  0.52561  0.51190  1.0000
  C   C2692     1.0  0.50419  0.36971  0.61392  1.0000
  H   H4769     1.0  0.50756  0.37857  0.56093  1.0000
  C   C2693     1.0  0.49333  0.46685  0.50100  1.0000
  H   H4770     1.0  0.57815  0.33344  0.60990  1.0000
  H   H4771     1.0  0.53353  0.33679  0.54499  1.0000
  H   H4772     1.0  0.89544  0.63112  0.71981  1.0000
  H   H4773     1.0  0.82360  0.33665  0.71733  1.0000
  H   H4774     1.0  0.87871  0.33585  0.61096  1.0000
  H   H4775     1.0  0.51031  0.49406  0.50051  1.0000
  H   H4776     1.0  0.95488  0.32502  0.61104  1.0000
  H   H4777     1.0  0.89299  0.63790  0.68803  1.0000
  H   H4778     1.0  0.98215  0.32134  0.57609  1.0000
  H   H4779     1.0  0.60149  0.32125  0.50362  1.0000
  C   C2694     1.0  0.56818  0.32297  0.61846  1.0000
  H   H4780     1.0  0.50603  0.33257  0.59135  1.0000
  H   H4781     1.0  0.61836  0.37648  0.48624  1.0000
  H   H4782     1.0  0.87701  0.31513  0.59019  1.0000
  C   C2695     1.0  0.93602  0.64655  0.61720  1.0000
  H   H4783     1.0  0.96219  0.33618  0.62508  1.0000
  C   C2696     1.0  0.98968  0.48470  0.49065  1.0000
  H   H4784     1.0  0.53550  0.63624  0.65744  1.0000
  H   H4785     1.0  0.82057  0.32111  0.61349  1.0000
  C   C2697     1.0  0.78362  0.35682  0.47384  1.0000
  H   H4786     1.0  0.53995  0.63809  0.56820  1.0000
  C   C2698     1.0  0.83857  0.32085  0.60882  1.0000
  H   H4787     1.0  0.85612  0.32083  0.47854  1.0000
  C   C2699     1.0  0.98682  0.38457  0.49369  1.0000
  H   H4788     1.0  0.85202  0.64359  0.71573  1.0000
  H   H4789     1.0  0.76668  0.54837  0.71621  1.0000
  H   H4790     1.0  0.97181  0.37963  0.50108  1.0000
  C   C2700     1.0  0.88962  0.64620  0.65649  1.0000
  H   H4791     1.0  0.78464  0.31505  0.67884  1.0000
  H   H4792     1.0  0.57805  0.31404  0.53009  1.0000
  H   H4793     1.0  0.98929  0.41595  0.62025  1.0000
  H   H4794     1.0  0.49229  0.48773  0.48024  1.0000
  H   H4795     1.0  0.98918  0.37681  0.58729  1.0000
  C   C2701     1.0  0.56408  0.31417  0.53909  1.0000
  Fe  Fe304     1.0  0.56799  0.52411  0.94352  1.0000
  S   S607      1.0  0.54779  0.52190  0.92690  1.0000
  C   C2702     1.0  0.82911  0.61013  0.73396  1.0000
  Fe  Fe305     1.0  0.61299  0.51140  0.92491  1.0000
  S   S608      1.0  0.59607  0.50822  0.90715  1.0000
  S   S609      1.0  0.65040  0.50049  0.92525  1.0000
  Fe  Fe306     1.0  0.57366  0.53993  0.91182  1.0000
  S   S610      1.0  0.56772  0.56579  0.89240  1.0000
  Fe  Fe307     1.0  0.57177  0.49062  0.92374  1.0000
  S   S611      1.0  0.56501  0.45621  0.92269  1.0000
  S   S612      1.0  0.59234  0.54444  0.92861  1.0000
  S   S613      1.0  0.59011  0.49165  0.94136  1.0000
  H   H4796     1.0  0.75532  0.53563  0.93954  1.0000
  H   H4797     1.0  0.59264  0.51021  0.97001  1.0000
  C   C2703     1.0  0.81647  0.32361  0.73994  1.0000
  C   C2704     1.0  0.93873  0.63575  0.91613  1.0000
  H   H4798     1.0  0.83189  0.53541  0.74727  1.0000
  S   S614      1.0  0.81164  0.34573  0.81433  1.0000
  H   H4799     1.0  0.80250  0.62730  0.74757  1.0000
  H   H4800     1.0  0.50897  0.40949  0.92197  1.0000
  H   H4801     1.0  0.71736  0.53687  0.94653  1.0000
  S   S615      1.0  0.81670  0.60932  0.82923  1.0000
  S   S616      1.0  0.94892  0.46702  0.93777  1.0000
  Fe  Fe308     1.0  0.94008  0.55154  0.92295  1.0000
  S   S617      1.0  0.90487  0.56433  0.93187  1.0000
  S   S618      1.0  0.96401  0.57308  0.90848  1.0000
  Fe  Fe309     1.0  0.93461  0.50357  0.93505  1.0000
  S   S619      1.0  0.89853  0.51267  0.94477  1.0000
  Fe  Fe310     1.0  0.89533  0.53584  0.92427  1.0000
  S   S620      1.0  0.86633  0.54401  0.91179  1.0000
  Fe  Fe311     1.0  0.91101  0.54019  0.95164  1.0000
  S   S621      1.0  0.93034  0.52455  0.91394  1.0000
  S   S622      1.0  0.94735  0.52951  0.94339  1.0000
  Fe  Fe312     1.0  0.76085  0.48141  0.86991  1.0000
  S   S623      1.0  0.77293  0.45089  0.88458  1.0000
  S   S624      1.0  0.72480  0.49857  0.87011  1.0000
  Fe  Fe313     1.0  0.80763  0.48482  0.85325  1.0000
  S   S625      1.0  0.82327  0.45416  0.86654  1.0000
  S   S626      1.0  0.83061  0.50386  0.83594  1.0000
  Fe  Fe314     1.0  0.79354  0.43874  0.86499  1.0000
  S   S627      1.0  0.79521  0.40145  0.86515  1.0000
  Fe  Fe315     1.0  0.80172  0.46854  0.88490  1.0000
  S   S628      1.0  0.81595  0.46681  0.90497  1.0000
  S   S629      1.0  0.77947  0.46833  0.85013  1.0000
  S   S630      1.0  0.78805  0.50010  0.87180  1.0000
  H   H4802     1.0  0.87971  0.54846  0.78670  1.0000
  C   C2705     1.0  0.85134  0.52267  0.91092  1.0000
  C   C2706     1.0  0.83423  0.52745  0.90258  1.0000
  C   C2707     1.0  0.82368  0.51039  0.90037  1.0000
  C   C2708     1.0  0.82915  0.48861  0.90725  1.0000
  C   C2709     1.0  0.84527  0.48408  0.91629  1.0000
  C   C2710     1.0  0.85670  0.50094  0.91788  1.0000
  H   H4803     1.0  0.82966  0.54431  0.89742  1.0000
  H   H4804     1.0  0.81123  0.51410  0.89343  1.0000
  H   H4805     1.0  0.84947  0.46728  0.92172  1.0000
  H   H4806     1.0  0.86975  0.49707  0.92442  1.0000
  C   C2711     1.0  0.96013  0.60202  0.90837  1.0000
  C   C2712     1.0  0.49577  0.58474  0.87975  1.0000
  C   C2713     1.0  0.94098  0.61281  0.91595  1.0000
  H   H4807     1.0  0.88150  0.33121  0.76987  1.0000
  H   H4808     1.0  0.92797  0.60346  0.92169  1.0000
  C   C2714     1.0  0.82123  0.58001  0.83116  1.0000
  C   C2715     1.0  0.84058  0.56836  0.82427  1.0000
  C   C2716     1.0  0.84336  0.54496  0.82586  1.0000
  C   C2717     1.0  0.82693  0.53312  0.83445  1.0000
  C   C2718     1.0  0.80774  0.54479  0.84145  1.0000
  C   C2719     1.0  0.80493  0.56812  0.83982  1.0000
  H   H4809     1.0  0.85330  0.57736  0.81766  1.0000
  H   H4810     1.0  0.85823  0.53604  0.82038  1.0000
  H   H4811     1.0  0.79481  0.53592  0.84792  1.0000
  H   H4812     1.0  0.78993  0.57702  0.84521  1.0000
  H   H4813     1.0  0.85245  0.34745  0.83450  1.0000
  H   H4814     1.0  0.49204  0.59474  0.88844  1.0000
  C   C2720     1.0  0.86612  0.60583  0.74056  1.0000
  C   C2721     1.0  0.85738  0.61737  0.75199  1.0000
  C   C2722     1.0  0.83435  0.62510  0.75445  1.0000
  C   C2723     1.0  0.82029  0.62133  0.74555  1.0000
  H   H4815     1.0  0.51645  0.48877  0.94424  1.0000
  H   H4816     1.0  0.78401  0.62644  0.80224  1.0000
  C   C2724     1.0  0.80669  0.36106  0.82856  1.0000
  C   C2725     1.0  0.80850  0.38386  0.82564  1.0000
  C   C2726     1.0  0.80491  0.39656  0.83667  1.0000
  C   C2727     1.0  0.79947  0.38653  0.85076  1.0000
  C   C2728     1.0  0.79762  0.36371  0.85367  1.0000
  C   C2729     1.0  0.80117  0.35104  0.84265  1.0000
  H   H4817     1.0  0.81275  0.39177  0.81478  1.0000
  H   H4818     1.0  0.80640  0.41408  0.83428  1.0000
  H   H4819     1.0  0.79330  0.35583  0.86454  1.0000
  H   H4820     1.0  0.79938  0.33361  0.84504  1.0000
  C   C2730     1.0  0.53823  0.45207  0.92063  1.0000
  C   C2731     1.0  0.84557  0.33215  0.77733  1.0000
  H   H4821     1.0  0.81664  0.55804  0.73672  1.0000
  H   H4822     1.0  0.50093  0.49471  0.96108  1.0000
  C   C2732     1.0  0.96738  0.58424  0.95938  1.0000
  C   C2733     1.0  0.52182  0.46998  0.91694  1.0000
  H   H4823     1.0  0.62073  0.39906  0.88204  1.0000
  C   C2734     1.0  0.50865  0.48115  0.95488  1.0000
  C   C2735     1.0  0.90906  0.62044  0.95793  1.0000
  H   H4824     1.0  0.52539  0.48683  0.91540  1.0000
  C   C2736     1.0  0.97427  0.58030  0.94376  1.0000
  H   H4825     1.0  0.87060  0.62926  0.88571  1.0000
  Fe  Fe316     1.0  0.83902  0.63024  0.81292  1.0000
  C   C2737     1.0  0.67079  0.50024  0.90978  1.0000
  C   C2738     1.0  0.66654  0.51272  0.89673  1.0000
  C   C2739     1.0  0.68330  0.51211  0.88468  1.0000
  C   C2740     1.0  0.70437  0.49902  0.88556  1.0000
  C   C2741     1.0  0.70846  0.48627  0.89855  1.0000
  C   C2742     1.0  0.69181  0.48704  0.91063  1.0000
  H   H4826     1.0  0.65041  0.52295  0.89595  1.0000
  H   H4827     1.0  0.67993  0.52190  0.87464  1.0000
  H   H4828     1.0  0.72437  0.47563  0.89919  1.0000
  H   H4829     1.0  0.69505  0.47710  0.92066  1.0000
  C   C2743     1.0  0.54820  0.59049  0.89282  1.0000
  C   C2744     1.0  0.53453  0.59573  0.90532  1.0000
  C   C2745     1.0  0.51905  0.61559  0.90500  1.0000
  H   H4830     1.0  0.88730  0.35004  0.81685  1.0000
  C   C2746     1.0  0.92570  0.60806  0.87573  1.0000
  C   C2747     1.0  0.54629  0.60521  0.88008  1.0000
  H   H4831     1.0  0.53584  0.58446  0.91521  1.0000
  H   H4832     1.0  0.52865  0.62410  0.84474  1.0000
  H   H4833     1.0  0.98143  0.60049  0.85860  1.0000
  H   H4834     1.0  0.55665  0.60106  0.87039  1.0000
  H   H4835     1.0  0.51086  0.64113  0.83262  1.0000
  C   C2748     1.0  0.89144  0.60943  0.90067  1.0000
  C   C2749     1.0  0.87036  0.60849  0.91187  1.0000
  H   H4836     1.0  0.79292  0.49019  0.81726  1.0000
  H   H4837     1.0  0.93046  0.60994  0.88582  1.0000
  H   H4838     1.0  0.90192  0.59272  0.90185  1.0000
  C   C2750     1.0  0.85658  0.33839  0.87797  1.0000
  C   C2751     1.0  0.89759  0.61662  0.86004  1.0000
  H   H4839     1.0  0.89343  0.61284  0.94147  1.0000
  N   N148      1.0  0.95000  0.60438  0.96188  1.0000
  H   H4840     1.0  0.86107  0.59537  0.91060  1.0000
  H   H4841     1.0  0.77005  0.51093  0.81199  1.0000
  H   H4842     1.0  0.82039  0.51441  0.80554  1.0000
  C   C2752     1.0  0.86994  0.32142  0.77775  1.0000
  H   H4843     1.0  0.88381  0.59917  0.95918  1.0000
  H   H4844     1.0  0.68303  0.52065  0.94560  1.0000
  H   H4845     1.0  0.88385  0.59954  0.73867  1.0000
  C   C2753     1.0  0.53345  0.43026  0.92250  1.0000
  H   H4846     1.0  0.50501  0.59402  0.84826  1.0000
  H   H4847     1.0  0.87405  0.32084  0.78844  1.0000
  H   H4848     1.0  0.85922  0.62479  0.91107  1.0000
  S   S631      1.0  0.87592  0.62225  0.76261  1.0000
  H   H4849     1.0  0.92380  0.58563  0.96148  1.0000
  H   H4850     1.0  0.51032  0.59024  0.87214  1.0000
  H   H4851     1.0  0.82576  0.57078  0.75706  1.0000
  H   H4852     1.0  0.87881  0.60064  0.88403  1.0000
  H   H4853     1.0  0.86969  0.57558  0.79189  1.0000
  H   H4854     1.0  0.52701  0.61528  0.82842  1.0000
  C   C2754     1.0  0.88522  0.61564  0.88554  1.0000
  H   H4855     1.0  0.86834  0.35029  0.85622  1.0000
  H   H4856     1.0  0.80184  0.53725  0.74832  1.0000
  H   H4857     1.0  0.51771  0.55930  0.89141  1.0000
  H   H4858     1.0  0.59693  0.59596  0.90081  1.0000
  C   C2755     1.0  0.97988  0.47718  0.96507  1.0000
  N   N149      1.0  0.90342  0.62194  0.87333  1.0000
  C   C2756     1.0  0.53095  0.62505  0.87978  1.0000
  H   H4859     1.0  0.84326  0.36108  0.89308  1.0000
  H   H4860     1.0  0.87169  0.59932  0.84543  1.0000
  C   C2757     1.0  0.50866  0.38761  0.96141  1.0000
  H   H4861     1.0  0.87503  0.60451  0.92262  1.0000
  H   H4862     1.0  0.82738  0.63402  0.76318  1.0000
  H   H4863     1.0  0.79974  0.33429  0.78140  1.0000
  C   C2758     1.0  0.95940  0.62510  0.95402  1.0000
  H   H4864     1.0  0.49252  0.41484  0.94794  1.0000
  H   H4865     1.0  0.85042  0.32124  0.82969  1.0000
  H   H4866     1.0  0.98709  0.49066  0.92600  1.0000
  C   C2759     1.0  0.79918  0.33292  0.77025  1.0000
  H   H4867     1.0  0.78948  0.58574  0.80689  1.0000
  H   H4868     1.0  0.84341  0.58444  0.77479  1.0000
  C   C2760     1.0  0.88907  0.61481  0.95280  1.0000
  C   C2761     1.0  0.50286  0.56052  0.88617  1.0000
  H   H4869     1.0  0.86423  0.34669  0.80885  1.0000
  C   C2762     1.0  0.49106  0.46764  0.95328  1.0000
  H   H4870     1.0  0.85416  0.55826  0.76843  1.0000
  H   H4871     1.0  0.90098  0.62134  0.90304  1.0000
  C   C2763     1.0  0.84312  0.36034  0.88180  1.0000
  H   H4872     1.0  0.97846  0.59567  0.93653  1.0000
  H   H4873     1.0  0.79614  0.57279  0.75800  1.0000
  H   H4874     1.0  0.84142  0.53701  0.79127  1.0000
  C   C2764     1.0  0.92943  0.60181  0.95636  1.0000
  H   H4875     1.0  0.93336  0.60114  0.94489  1.0000
  H   H4876     1.0  0.77209  0.34042  0.75718  1.0000
  H   H4877     1.0  0.81479  0.59605  0.79769  1.0000
  H   H4878     1.0  0.59253  0.62217  0.87894  1.0000
  H   H4879     1.0  0.79009  0.52428  0.95772  1.0000
  C   C2765     1.0  0.65053  0.31652  0.82252  1.0000
  H   H4880     1.0  0.92431  0.59007  0.87701  1.0000
  H   H4881     1.0  0.81439  0.52825  0.94437  1.0000
  N   N150      1.0  0.65001  0.44605  0.89668  1.0000
  C   C2766     1.0  0.63569  0.46784  0.89215  1.0000
  C   C2767     1.0  0.65015  0.44314  0.91244  1.0000
  C   C2768     1.0  0.67375  0.44770  0.88924  1.0000
  C   C2769     1.0  0.64248  0.42629  0.89291  1.0000
  C   C2770     1.0  0.61697  0.42768  0.89279  1.0000
  C   C2771     1.0  0.63769  0.47582  0.87590  1.0000
  C   C2772     1.0  0.69220  0.42867  0.89413  1.0000
  C   C2773     1.0  0.62723  0.44264  0.92227  1.0000
  C   C2774     1.0  0.62975  0.44138  0.93773  1.0000
  C   C2775     1.0  0.61115  0.40514  0.89178  1.0000
  C   C2776     1.0  0.61897  0.49476  0.87221  1.0000
  C   C2777     1.0  0.71445  0.42988  0.88403  1.0000
  H   H4882     1.0  0.64002  0.48132  0.89675  1.0000
  H   H4883     1.0  0.61774  0.46733  0.89651  1.0000
  H   H4884     1.0  0.66064  0.42723  0.91610  1.0000
  H   H4885     1.0  0.65795  0.45662  0.91480  1.0000
  H   H4886     1.0  0.67867  0.46358  0.89044  1.0000
  H   H4887     1.0  0.67492  0.44836  0.87762  1.0000
  H   H4888     1.0  0.65091  0.42319  0.88213  1.0000
  H   H4889     1.0  0.64797  0.41085  0.90016  1.0000
  H   H4890     1.0  0.61190  0.43966  0.88350  1.0000
  H   H4891     1.0  0.60638  0.43333  0.90233  1.0000
  H   H4892     1.0  0.65384  0.48225  0.87177  1.0000
  H   H4893     1.0  0.63719  0.46200  0.87027  1.0000
  H   H4894     1.0  0.68727  0.41213  0.89463  1.0000
  H   H4895     1.0  0.69530  0.43014  0.90477  1.0000
  H   H4896     1.0  0.61515  0.45775  0.91950  1.0000
  H   H4897     1.0  0.62021  0.42761  0.92175  1.0000
  H   H4898     1.0  0.64130  0.42620  0.94127  1.0000
  H   H4899     1.0  0.63624  0.45630  0.93912  1.0000
  H   H4900     1.0  0.61311  0.44080  0.94455  1.0000
  H   H4901     1.0  0.59295  0.40685  0.89139  1.0000
  H   H4902     1.0  0.60226  0.48943  0.87614  1.0000
  H   H4903     1.0  0.61997  0.50945  0.87694  1.0000
  H   H4904     1.0  0.62074  0.49982  0.86053  1.0000
  H   H4905     1.0  0.90356  0.62290  0.96911  1.0000
  H   H4906     1.0  0.71283  0.42733  0.87330  1.0000
  H   H4907     1.0  0.71993  0.44629  0.88316  1.0000
  Fe  Fe317     1.0  0.86481  0.63728  0.78295  1.0000
  S   S632      1.0  0.87471  0.61928  0.80382  1.0000
  H   H4908     1.0  0.80345  0.51081  0.79321  1.0000
  H   H4909     1.0  0.78640  0.51570  0.82444  1.0000
  H   H4910     1.0  0.85042  0.37476  0.87511  1.0000
  H   H4911     1.0  0.94993  0.62985  0.86399  1.0000
  C   C2778     1.0  0.79577  0.53005  0.94629  1.0000
  H   H4912     1.0  0.50854  0.61955  0.91470  1.0000
  H   H4913     1.0  0.88051  0.62404  0.83437  1.0000
  H   H4914     1.0  0.75971  0.32513  0.78920  1.0000
  C   C2779     1.0  0.87582  0.33835  0.81641  1.0000
  C   C2780     1.0  0.78823  0.51619  0.93717  1.0000
  H   H4915     1.0  0.79476  0.52229  0.92595  1.0000
  H   H4916     1.0  0.79165  0.62645  0.78340  1.0000
  H   H4917     1.0  0.88444  0.57340  0.77428  1.0000
  H   H4918     1.0  0.79425  0.33499  0.72412  1.0000
  H   H4919     1.0  0.91322  0.63624  0.95125  1.0000
  H   H4920     1.0  0.87368  0.33720  0.88048  1.0000
  H   H4921     1.0  0.61489  0.39274  0.90123  1.0000
  N   N151      1.0  0.75268  0.50830  0.92928  1.0000
  C   C2781     1.0  0.72779  0.50935  0.93434  1.0000
  C   C2782     1.0  0.76328  0.48419  0.92990  1.0000
  C   C2783     1.0  0.76226  0.51770  0.93969  1.0000
  C   C2784     1.0  0.75830  0.52166  0.91467  1.0000
  C   C2785     1.0  0.74269  0.52264  0.90366  1.0000
  C   C2786     1.0  0.71476  0.53276  0.93639  1.0000
  C   C2787     1.0  0.75549  0.47037  0.92060  1.0000
  C   C2788     1.0  0.76360  0.44551  0.92470  1.0000
  C   C2789     1.0  0.74847  0.53973  0.89047  1.0000
  H   H4922     1.0  0.95629  0.62847  0.94283  1.0000
  H   H4923     1.0  0.72453  0.49808  0.94466  1.0000
  H   H4924     1.0  0.71966  0.50292  0.92707  1.0000
  H   H4925     1.0  0.78171  0.48281  0.92650  1.0000
  H   H4926     1.0  0.76075  0.47543  0.94108  1.0000
  H   H4927     1.0  0.75712  0.50929  0.95074  1.0000
  H   H4928     1.0  0.75875  0.53927  0.91548  1.0000
  H   H4929     1.0  0.77553  0.51529  0.90970  1.0000
  H   H4930     1.0  0.72477  0.52767  0.90777  1.0000
  H   H4931     1.0  0.74454  0.50637  0.90020  1.0000
  H   H4932     1.0  0.72054  0.54584  0.92766  1.0000
  H   H4933     1.0  0.79633  0.49874  0.94001  1.0000
  H   H4934     1.0  0.73708  0.47232  0.92162  1.0000
  H   H4935     1.0  0.76280  0.47526  0.90936  1.0000
  H   H4936     1.0  0.78215  0.44215  0.92380  1.0000
  H   H4937     1.0  0.75602  0.43938  0.93573  1.0000
  H   H4938     1.0  0.75860  0.43608  0.91749  1.0000
  H   H4939     1.0  0.76665  0.53698  0.88622  1.0000
  H   H4940     1.0  0.73899  0.53829  0.88211  1.0000
  H   H4941     1.0  0.74380  0.55686  0.89302  1.0000
  C   C2790     1.0  0.75926  0.32477  0.77789  1.0000
  H   H4942     1.0  0.52973  0.63615  0.86989  1.0000
  H   H4943     1.0  0.62157  0.60922  0.89473  1.0000
  N   N152      1.0  0.88591  0.51412  0.86404  1.0000
  C   C2791     1.0  0.88757  0.49275  0.87457  1.0000
  C   C2792     1.0  0.90690  0.52426  0.86272  1.0000
  C   C2793     1.0  0.86536  0.52949  0.86933  1.0000
  C   C2794     1.0  0.88375  0.50999  0.84963  1.0000
  C   C2795     1.0  0.90230  0.49259  0.84311  1.0000
  C   C2796     1.0  0.86961  0.47767  0.87537  1.0000
  C   C2797     1.0  0.86171  0.55312  0.86046  1.0000
  C   C2798     1.0  0.91002  0.53301  0.87603  1.0000
  C   C2799     1.0  0.93244  0.54161  0.87366  1.0000
  C   C2800     1.0  0.89701  0.48833  0.82923  1.0000
  C   C2801     1.0  0.87398  0.45608  0.88576  1.0000
  C   C2802     1.0  0.84108  0.56747  0.86727  1.0000
  H   H4944     1.0  0.88617  0.49642  0.88550  1.0000
  H   H4945     1.0  0.90440  0.48257  0.87251  1.0000
  H   H4946     1.0  0.92198  0.51180  0.86021  1.0000
  H   H4947     1.0  0.90790  0.53813  0.85357  1.0000
  H   H4948     1.0  0.86565  0.53140  0.88038  1.0000
  H   H4949     1.0  0.84996  0.52210  0.86980  1.0000
  H   H4950     1.0  0.86712  0.50509  0.84990  1.0000
  H   H4951     1.0  0.88402  0.52561  0.84180  1.0000
  H   H4952     1.0  0.90402  0.47639  0.85031  1.0000
  H   H4953     1.0  0.91872  0.49869  0.84074  1.0000
  H   H4954     1.0  0.85261  0.48624  0.87897  1.0000
  H   H4955     1.0  0.86960  0.47288  0.86498  1.0000
  H   H4956     1.0  0.85891  0.55220  0.84972  1.0000
  H   H4957     1.0  0.87629  0.56183  0.85945  1.0000
  H   H4958     1.0  0.89664  0.54698  0.87857  1.0000
  H   H4959     1.0  0.90974  0.51966  0.88544  1.0000
  H   H4960     1.0  0.93357  0.55514  0.86435  1.0000
  H   H4961     1.0  0.93407  0.54830  0.88316  1.0000
  H   H4962     1.0  0.94659  0.52790  0.87196  1.0000
  H   H4963     1.0  0.88104  0.48140  0.83117  1.0000
  H   H4964     1.0  0.89554  0.50400  0.82146  1.0000
  H   H4965     1.0  0.91064  0.47612  0.82460  1.0000
  H   H4966     1.0  0.86032  0.44608  0.88673  1.0000
  H   H4967     1.0  0.89013  0.44605  0.88196  1.0000
  H   H4968     1.0  0.87444  0.45965  0.89644  1.0000
  H   H4969     1.0  0.83776  0.58362  0.86016  1.0000
  H   H4970     1.0  0.82604  0.55908  0.86899  1.0000
  H   H4971     1.0  0.84386  0.57085  0.87755  1.0000
  H   H4972     1.0  0.90008  0.59823  0.86042  1.0000
  C   C2803     1.0  0.50086  0.46607  0.91500  1.0000
  N   N153      1.0  0.81629  0.34547  0.76024  1.0000
  C   C2804     1.0  0.81446  0.34638  0.74487  1.0000
  C   C2805     1.0  0.81444  0.36874  0.76357  1.0000
  H   H4973     1.0  0.89141  0.32943  0.84068  1.0000
  C   C2806     1.0  0.85782  0.33748  0.86202  1.0000
  C   C2807     1.0  0.77441  0.34038  0.76820  1.0000
  C   C2808     1.0  0.97741  0.45800  0.93162  1.0000
  N   N154      1.0  0.86652  0.31525  0.85715  1.0000
  C   C2809     1.0  0.79902  0.38771  0.75555  1.0000
  C   C2810     1.0  0.79564  0.40907  0.76189  1.0000
  H   H4974     1.0  0.86045  0.62034  0.86589  1.0000
  H   H4975     1.0  0.95833  0.64597  0.97011  1.0000
  H   H4976     1.0  0.58784  0.63954  0.83718  1.0000
  H   H4977     1.0  0.78904  0.54795  0.94349  1.0000
  H   H4978     1.0  0.79832  0.35609  0.74230  1.0000
  H   H4979     1.0  0.80906  0.36878  0.77518  1.0000
  H   H4980     1.0  0.83120  0.37436  0.76108  1.0000
  H   H4981     1.0  0.90413  0.32757  0.86334  1.0000
  C   C2811     1.0  0.60343  0.61205  0.89911  1.0000
  C   C2812     1.0  0.96696  0.59623  0.86680  1.0000
  H   H4982     1.0  0.68593  0.53103  0.92677  1.0000
  H   H4983     1.0  0.85904  0.59329  0.72283  1.0000
  H   H4984     1.0  0.76840  0.35717  0.77105  1.0000
  H   H4985     1.0  0.83361  0.31417  0.74007  1.0000
  H   H4986     1.0  0.96137  0.48131  0.96580  1.0000
  H   H4987     1.0  0.65701  0.32769  0.82794  1.0000
  H   H4988     1.0  0.84361  0.34888  0.78031  1.0000
  H   H4989     1.0  0.80685  0.39149  0.74427  1.0000
  H   H4990     1.0  0.78230  0.38332  0.75579  1.0000
  H   H4991     1.0  0.81201  0.41457  0.76150  1.0000
  H   H4992     1.0  0.78506  0.42251  0.75573  1.0000
  H   H4993     1.0  0.78708  0.40641  0.77307  1.0000
  C   C2813     1.0  0.94606  0.61298  0.86409  1.0000
  H   H4994     1.0  0.54612  0.41633  0.92529  1.0000
  H   H4995     1.0  0.52212  0.47024  0.96016  1.0000
  H   H4996     1.0  0.51073  0.42222  0.95835  1.0000
  C   C2814     1.0  0.68957  0.53363  0.93704  1.0000
  C   C2815     1.0  0.87339  0.62586  0.85695  1.0000
  C   C2816     1.0  0.83930  0.33322  0.76246  1.0000
  H   H4997     1.0  0.49641  0.37617  0.96201  1.0000
  H   H4998     1.0  0.97114  0.59650  0.87733  1.0000
  N   N155      1.0  0.81006  0.55673  0.78653  1.0000
  C   C2817     1.0  0.79875  0.58066  0.78439  1.0000
  C   C2818     1.0  0.80980  0.54599  0.77384  1.0000
  C   C2819     1.0  0.79666  0.54447  0.79938  1.0000
  C   C2820     1.0  0.83360  0.55475  0.78947  1.0000
  C   C2821     1.0  0.85020  0.56671  0.77787  1.0000
  C   C2822     1.0  0.79768  0.59393  0.79657  1.0000
  C   C2823     1.0  0.80344  0.51878  0.80247  1.0000
  C   C2824     1.0  0.81189  0.56091  0.75899  1.0000
  C   C2825     1.0  0.81579  0.54695  0.74716  1.0000
  C   C2826     1.0  0.87233  0.56590  0.78307  1.0000
  C   C2827     1.0  0.78411  0.61709  0.79356  1.0000
  C   C2828     1.0  0.78714  0.50836  0.81478  1.0000
  H   H4999     1.0  0.78129  0.58129  0.78250  1.0000
  H   H5000     1.0  0.80711  0.59049  0.77474  1.0000
  H   H5001     1.0  0.82323  0.53126  0.77338  1.0000
  H   H5002     1.0  0.79372  0.53940  0.77496  1.0000
  H   H5003     1.0  0.77849  0.54794  0.79845  1.0000
  H   H5004     1.0  0.79808  0.55038  0.80922  1.0000
  H   H5005     1.0  0.83325  0.56087  0.79947  1.0000
  H   H5006     1.0  0.84087  0.34398  0.85915  1.0000
  C   C2829     1.0  0.97661  0.61446  0.90051  1.0000
  H   H5007     1.0  0.63197  0.31875  0.82534  1.0000
  C   C2830     1.0  0.85210  0.60227  0.73155  1.0000
  H   H5008     1.0  0.57263  0.63066  0.89346  1.0000
  H   H5009     1.0  0.90889  0.62332  0.85043  1.0000
  H   H5010     1.0  0.96431  0.57911  0.86637  1.0000
  C   C2831     1.0  0.51243  0.42635  0.92065  1.0000
  H   H5011     1.0  0.82541  0.36175  0.88027  1.0000
  H   H5012     1.0  0.72764  0.41670  0.88807  1.0000
  H   H5013     1.0  0.98310  0.58541  0.96309  1.0000
  C   C2832     1.0  0.51723  0.63035  0.89222  1.0000
  S   S633      1.0  0.54811  0.53190  0.96454  1.0000
  H   H5014     1.0  0.82763  0.35545  0.73790  1.0000
  H   H5015     1.0  0.97313  0.42346  0.93599  1.0000
  C   C2833     1.0  0.49608  0.44426  0.91687  1.0000
  H   H5016     1.0  0.96050  0.57463  0.94018  1.0000
  H   H5017     1.0  0.60111  0.61764  0.90953  1.0000
  H   H5018     1.0  0.68055  0.55017  0.93922  1.0000
  H   H5019     1.0  0.85241  0.34081  0.75438  1.0000
  C   C2834     1.0  0.87765  0.31944  0.84184  1.0000
  C   C2835     1.0  0.81171  0.32667  0.72478  1.0000
  C   C2836     1.0  0.57640  0.64530  0.84648  1.0000
  C   C2837     1.0  0.86913  0.61776  0.84398  1.0000
  C   C2838     1.0  0.86222  0.33197  0.83102  1.0000
  H   H5020     1.0  0.94304  0.61195  0.85340  1.0000
  H   H5021     1.0  0.84874  0.32470  0.88500  1.0000
  H   H5022     1.0  0.52268  0.38422  0.95268  1.0000
  C   C2839     1.0  0.51726  0.62380  0.83720  1.0000
  H   H5023     1.0  0.85156  0.62394  0.84230  1.0000
  C   C2840     1.0  0.49778  0.61145  0.84462  1.0000
  H   H5024     1.0  0.96145  0.56883  0.96574  1.0000
  H   H5025     1.0  0.98752  0.48133  0.95382  1.0000
  H   H5026     1.0  0.76650  0.61586  0.79302  1.0000
  H   H5027     1.0  0.84116  0.31561  0.76090  1.0000
  C   C2841     1.0  0.59059  0.62919  0.88885  1.0000
  H   H5028     1.0  0.92408  0.64396  0.92224  1.0000
  H   H5029     1.0  0.65524  0.32147  0.81089  1.0000
  H   H5030     1.0  0.87470  0.62844  0.95392  1.0000
  H   H5031     1.0  0.50750  0.54983  0.87781  1.0000
  H   H5032     1.0  0.56784  0.47387  0.97055  1.0000
  C   C2842     1.0  0.97407  0.63752  0.90033  1.0000
  H   H5033     1.0  0.97801  0.62252  0.95313  1.0000
  H   H5034     1.0  0.74170  0.33022  0.77598  1.0000
  S   S634      1.0  0.81066  0.60577  0.72313  1.0000
  H   H5035     1.0  0.49960  0.45483  0.94679  1.0000
  C   C2843     1.0  0.98496  0.43511  0.93231  1.0000
  H   H5036     1.0  0.88572  0.32326  0.81244  1.0000
  H   H5037     1.0  0.49557  0.62603  0.86360  1.0000
  C   C2844     1.0  0.49769  0.41191  0.95849  1.0000
  H   H5038     1.0  0.56973  0.63074  0.85334  1.0000
  S   S635      1.0  0.82861  0.64602  0.79191  1.0000
  H   H5039     1.0  0.80348  0.31478  0.76981  1.0000
  H   H5040     1.0  0.87075  0.64433  0.85478  1.0000
  H   H5041     1.0  0.97791  0.44281  0.96527  1.0000
  H   H5042     1.0  0.83481  0.32198  0.78552  1.0000
  H   H5043     1.0  0.60361  0.64398  0.85782  1.0000
  C   C2845     1.0  0.90453  0.64655  0.87100  1.0000
  C   C2846     1.0  0.95102  0.64686  0.96040  1.0000
  H   H5044     1.0  0.97792  0.64667  0.80037  1.0000
  H   H5045     1.0  0.98698  0.64694  0.89436  1.0000
  H   H5046     1.0  0.92626  0.64533  0.88696  1.0000
  C   C2847     1.0  0.98630  0.45245  0.97066  1.0000
  H   H5047     1.0  0.97641  0.38474  0.97137  1.0000
  C   C2848     1.0  0.93263  0.74875  0.16830  1.0000
  H   H5048     1.0  0.82746  0.95480  0.15024  1.0000
  C   C2849     1.0  0.81009  0.70160  0.16219  1.0000
  C   C2850     1.0  0.69515  0.94892  0.11419  1.0000
  C   C2851     1.0  0.56167  0.68873  0.19837  1.0000
  S   S636      1.0  0.72487  0.70095  0.15665  1.0000
  H   H5049     1.0  0.97465  0.93196  0.03459  1.0000
  C   C2852     1.0  0.52782  0.72623  0.18660  1.0000
  S   S637      1.0  0.54287  0.68861  0.10215  1.0000
  C   C2853     1.0  0.53898  0.94487  0.98544  1.0000
  H   H5050     1.0  0.82892  0.80908  0.21409  1.0000
  C   C2854     1.0  0.80808  0.86755  0.18371  1.0000
  H   H5051     1.0  0.52309  0.71875  0.19789  1.0000
  Fe  Fe318     1.0  0.55133  0.69875  0.12119  1.0000
  H   H5052     1.0  0.95632  0.71150  0.05919  1.0000
  Fe  Fe319     1.0  0.51335  0.71599  0.10366  1.0000
  C   C2855     1.0  0.80071  0.73249  0.13431  1.0000
  H   H5053     1.0  0.86167  0.71599  0.19723  1.0000
  C   C2856     1.0  0.80675  0.69359  0.18899  1.0000
  Fe  Fe320     1.0  0.79926  0.77268  0.17706  1.0000
  S   S638      1.0  0.80836  0.80242  0.18368  1.0000
  S   S639      1.0  0.76908  0.75710  0.18866  1.0000
  Fe  Fe321     1.0  0.84600  0.76092  0.15975  1.0000
  S   S640      1.0  0.85828  0.78969  0.16507  1.0000
  S   S641      1.0  0.86763  0.73086  0.15138  1.0000
  Fe  Fe322     1.0  0.84078  0.78035  0.18726  1.0000
  C   C2857     1.0  0.81911  0.71195  0.13644  1.0000
  Fe  Fe323     1.0  0.82476  0.80942  0.16078  1.0000
  S   S642      1.0  0.82739  0.84323  0.14673  1.0000
  S   S643      1.0  0.83045  0.75057  0.18213  1.0000
  S   S644      1.0  0.81352  0.78077  0.15393  1.0000
  H   H5054     1.0  0.54768  0.86521  0.01091  1.0000
  Fe  Fe324     1.0  0.52075  0.66766  0.11806  1.0000
  H   H5055     1.0  0.76062  0.95911  0.06082  1.0000
  H   H5056     1.0  0.52024  0.87537  0.01952  1.0000
  H   H5057     1.0  0.73733  0.92198  0.11318  1.0000
  H   H5058     1.0  0.49244  0.67306  0.08896  1.0000
  S   S645      1.0  0.75816  0.93336  0.13957  1.0000
  S   S646      1.0  0.58757  0.70044  0.12191  1.0000
  H   H5059     1.0  0.92106  0.66234  0.12900  1.0000
  S   S647      1.0  0.96028  0.73776  0.11020  1.0000
  C   C2858     1.0  0.54337  0.71741  0.16239  1.0000
  H   H5060     1.0  0.92720  0.70559  0.08036  1.0000
  C   C2859     1.0  0.79132  0.68619  0.14701  1.0000
  C   C2860     1.0  0.79073  0.67853  0.13282  1.0000
  H   H5061     1.0  0.54446  0.88636  0.02187  1.0000
  C   C2861     1.0  0.80928  0.75029  0.12235  1.0000
  H   H5062     1.0  0.49023  0.74812  0.20239  1.0000
  H   H5063     1.0  0.76903  0.79125  0.20662  1.0000
  N   N156      1.0  0.81297  0.69334  0.14825  1.0000
  H   H5064     1.0  0.57252  0.71311  0.18085  1.0000
  C   C2862     1.0  0.80718  0.86753  0.14438  1.0000
  C   C2863     1.0  0.78557  0.86918  0.15227  1.0000
  C   C2864     1.0  0.77064  0.88938  0.15058  1.0000
  C   C2865     1.0  0.77709  0.90801  0.14093  1.0000
  C   C2866     1.0  0.79843  0.90612  0.13277  1.0000
  C   C2867     1.0  0.81340  0.88603  0.13453  1.0000
  H   H5065     1.0  0.78050  0.85502  0.15980  1.0000
  H   H5066     1.0  0.75410  0.89062  0.15689  1.0000
  H   H5067     1.0  0.80345  0.92019  0.12512  1.0000
  H   H5068     1.0  0.82998  0.88484  0.12825  1.0000
  C   C2868     1.0  0.89389  0.73342  0.14067  1.0000
  C   C2869     1.0  0.91170  0.71569  0.14178  1.0000
  C   C2870     1.0  0.93253  0.71703  0.13291  1.0000
  C   C2871     1.0  0.93530  0.73571  0.12245  1.0000
  C   C2872     1.0  0.91742  0.75331  0.12134  1.0000
  C   C2873     1.0  0.89693  0.75236  0.13055  1.0000
  H   H5069     1.0  0.90942  0.70095  0.14959  1.0000
  H   H5070     1.0  0.94633  0.70357  0.13399  1.0000
  H   H5071     1.0  0.91948  0.76787  0.11333  1.0000
  H   H5072     1.0  0.88330  0.76606  0.12957  1.0000
  H   H5073     1.0  0.83202  0.91761  0.19576  1.0000
  C   C2874     1.0  0.85073  0.93931  0.12711  1.0000
  C   C2875     1.0  0.53032  0.94280  0.05701  1.0000
  C   C2876     1.0  0.53167  0.96278  0.06134  1.0000
  H   H5074     1.0  0.94736  0.75644  0.16892  1.0000
  C   C2877     1.0  0.91135  0.66627  0.08079  1.0000
  C   C2878     1.0  0.80627  0.68400  0.17574  1.0000
  H   H5075     1.0  0.54488  0.93003  0.05643  1.0000
  C   C2879     1.0  0.56220  0.69952  0.18259  1.0000
  H   H5076     1.0  0.50687  0.92658  0.08532  1.0000
  C   C2880     1.0  0.74696  0.66549  0.21616  1.0000
  C   C2881     1.0  0.90280  0.72790  0.18165  1.0000
  H   H5077     1.0  0.83575  0.93983  0.12216  1.0000
  H   H5078     1.0  0.68675  0.96560  0.10987  1.0000
  C   C2882     1.0  0.49848  0.91353  0.09285  1.0000
  H   H5079     1.0  0.55303  0.86678  0.07861  1.0000
  C   C2883     1.0  0.73683  0.71629  0.16590  1.0000
  C   C2884     1.0  0.74639  0.73487  0.15834  1.0000
  C   C2885     1.0  0.75664  0.74728  0.16521  1.0000
  C   C2886     1.0  0.75697  0.74141  0.17974  1.0000
  C   C2887     1.0  0.74715  0.72300  0.18738  1.0000
  C   C2888     1.0  0.73735  0.71025  0.18044  1.0000
  H   H5080     1.0  0.74584  0.73967  0.14711  1.0000
  H   H5081     1.0  0.76384  0.76167  0.15932  1.0000
  H   H5082     1.0  0.74731  0.71849  0.19865  1.0000
  H   H5083     1.0  0.72995  0.69595  0.18631  1.0000
  H   H5084     1.0  0.74177  0.87315  0.11690  1.0000
  H   H5085     1.0  0.78739  0.67202  0.15552  1.0000
  C   C2889     1.0  0.62147  0.68894  0.13786  1.0000
  C   C2890     1.0  0.60010  0.68553  0.13647  1.0000
  H   H5086     1.0  0.90795  0.69143  0.18630  1.0000
  H   H5087     1.0  0.86976  0.68646  0.19771  1.0000
  C   C2891     1.0  0.69206  0.96608  0.13633  1.0000
  H   H5088     1.0  0.63022  0.70050  0.12991  1.0000
  C   C2892     1.0  0.91569  0.73819  0.20925  1.0000
  H   H5089     1.0  0.52712  0.72204  0.15832  1.0000
  H   H5090     1.0  0.54092  0.92594  0.08912  1.0000
  N   N157      1.0  0.70945  0.93783  0.10232  1.0000
  C   C2893     1.0  0.72392  0.95406  0.09315  1.0000
  C   C2894     1.0  0.72455  0.91733  0.10798  1.0000
  C   C2895     1.0  0.69410  0.93128  0.09395  1.0000
  H   H5091     1.0  0.81249  0.93510  0.14658  1.0000
  C   C2896     1.0  0.73841  0.94634  0.07957  1.0000
  C   C2897     1.0  0.70755  0.95235  0.12588  1.0000
  H   H5092     1.0  0.54469  0.67075  0.16459  1.0000
  H   H5093     1.0  0.87556  0.93820  0.18695  1.0000
  C   C2898     1.0  0.92168  0.74951  0.19370  1.0000
  N   N158      1.0  0.92479  0.73505  0.18241  1.0000
  H   H5094     1.0  0.73440  0.90895  0.09914  1.0000
  H   H5095     1.0  0.70369  0.92026  0.08638  1.0000
  C   C2899     1.0  0.92589  0.78212  0.14906  1.0000
  C   C2900     1.0  0.54877  0.69070  0.06168  1.0000
  H   H5096     1.0  0.90140  0.76137  0.15957  1.0000
  H   H5097     1.0  0.75172  0.93234  0.08239  1.0000
  H   H5098     1.0  0.72819  0.94096  0.07299  1.0000
  H   H5099     1.0  0.90103  0.72535  0.09681  1.0000
  C   C2901     1.0  0.84213  0.92962  0.18868  1.0000
  H   H5100     1.0  0.57202  0.68747  0.17578  1.0000
  H   H5101     1.0  0.55287  0.70433  0.15626  1.0000
  H   H5102     1.0  0.55850  0.93558  0.00321  1.0000
  C   C2902     1.0  0.91519  0.76805  0.16243  1.0000
  H   H5103     1.0  0.70318  0.89115  0.11258  1.0000
  C   C2903     1.0  0.92507  0.66090  0.09311  1.0000
  C   C2904     1.0  0.50425  0.93271  0.98337  1.0000
  H   H5104     1.0  0.79536  0.71490  0.16313  1.0000
  H   H5105     1.0  0.79568  0.74019  0.14402  1.0000
  H   H5106     1.0  0.78565  0.72792  0.13151  1.0000
  H   H5107     1.0  0.78963  0.67866  0.17690  1.0000
  H   H5108     1.0  0.53100  0.84991  0.08241  1.0000
  Fe  Fe325     1.0  0.76771  0.96645  0.12716  1.0000
  H   H5109     1.0  0.79593  0.76494  0.12116  1.0000
  H   H5110     1.0  0.82451  0.70574  0.12617  1.0000
  H   H5111     1.0  0.68117  0.93957  0.11951  1.0000
  H   H5112     1.0  0.77590  0.92585  0.17064  1.0000
  C   C2905     1.0  0.50449  0.96278  0.01428  1.0000
  H   H5113     1.0  0.83466  0.66922  0.13648  1.0000
  H   H5114     1.0  0.51029  0.69620  0.17522  1.0000
  C   C2906     1.0  0.51455  0.67300  0.06166  1.0000
  H   H5115     1.0  0.90792  0.76365  0.19204  1.0000
  H   H5116     1.0  0.85313  0.95664  0.12717  1.0000
  H   H5117     1.0  0.67388  0.93204  0.07027  1.0000
  H   H5118     1.0  0.69032  0.96122  0.07746  1.0000
  C   C2907     1.0  0.50146  0.87288  0.10224  1.0000
  C   C2908     1.0  0.90689  0.69066  0.10740  1.0000
  H   H5119     1.0  0.57461  0.73171  0.15856  1.0000
  H   H5120     1.0  0.91272  0.79465  0.14444  1.0000
  C   C2909     1.0  0.96835  0.70785  0.06682  1.0000
  H   H5121     1.0  0.94965  0.68594  0.11327  1.0000
  H   H5122     1.0  0.74634  0.95791  0.17369  1.0000
  H   H5123     1.0  0.87190  0.72103  0.11838  1.0000
  C   C2910     1.0  0.89730  0.70560  0.19097  1.0000
  H   H5124     1.0  0.72076  0.86805  0.13232  1.0000
  C   C2911     1.0  0.50374  0.77647  0.09178  1.0000
  H   H5125     1.0  0.54988  0.67645  0.20174  1.0000
  H   H5126     1.0  0.82355  0.69804  0.18873  1.0000
  H   H5127     1.0  0.55792  0.67478  0.06655  1.0000
  H   H5128     1.0  0.52558  0.65722  0.06478  1.0000
  H   H5129     1.0  0.93836  0.73789  0.15999  1.0000
  H   H5130     1.0  0.95764  0.66285  0.13649  1.0000
  C   C2912     1.0  0.54106  0.86179  0.06039  1.0000
  H   H5131     1.0  0.51803  0.68640  0.19207  1.0000
  C   C2913     1.0  0.57843  0.95186  0.98513  1.0000
  C   C2914     1.0  0.76741  0.67386  0.13216  1.0000
  H   H5132     1.0  0.85996  0.73114  0.10241  1.0000
  C   C2915     1.0  0.50260  0.95952  0.99914  1.0000
  C   C2916     1.0  0.76233  0.95699  0.17768  1.0000
  H   H5133     1.0  0.54687  0.87665  0.05327  1.0000
  Fe  Fe326     1.0  0.66917  0.64701  0.17432  1.0000
  H   H5134     1.0  0.97657  0.68863  0.19870  1.0000
  H   H5135     1.0  0.58970  0.95613  0.99155  1.0000
  H   H5136     1.0  0.66900  0.96181  0.09290  1.0000
  H   H5137     1.0  0.76086  0.97109  0.07623  1.0000
  H   H5138     1.0  0.87431  0.65133  0.13861  1.0000
  C   C2917     1.0  0.49118  0.95533  0.05475  1.0000
  S   S648      1.0  0.69201  0.65596  0.15406  1.0000
  H   H5139     1.0  0.54949  0.65929  0.18227  1.0000
  N   N159      1.0  0.51668  0.93932  0.99354  1.0000
  C   C2918     1.0  0.51930  0.91988  0.00545  1.0000
  N   N160      1.0  0.53969  0.70836  0.17807  1.0000
  H   H5140     1.0  0.80186  0.89918  0.19059  1.0000
  H   H5141     1.0  0.79140  0.87010  0.18034  1.0000
  C   C2919     1.0  0.87285  0.70304  0.19169  1.0000
  C   C2920     1.0  0.53366  0.89807  0.00121  1.0000
  H   H5142     1.0  0.52555  0.89097  0.99421  1.0000
  H   H5143     1.0  0.55023  0.75054  0.16457  1.0000
  C   C2921     1.0  0.94492  0.67176  0.10954  1.0000
  C   C2922     1.0  0.51943  0.65234  0.17696  1.0000
  C   C2923     1.0  0.53667  0.88026  0.01423  1.0000
  H   H5144     1.0  0.52032  0.69017  0.07820  1.0000
  H   H5145     1.0  0.93778  0.70375  0.19472  1.0000
  H   H5146     1.0  0.52694  0.92408  0.01384  1.0000
  C   C2924     1.0  0.84810  0.92617  0.14216  1.0000
  H   H5147     1.0  0.58377  0.65211  0.09789  1.0000
  H   H5148     1.0  0.55288  0.69240  0.04995  1.0000
  C   C2925     1.0  0.54962  0.90852  0.08988  1.0000
  H   H5149     1.0  0.49640  0.95007  0.02230  1.0000
  H   H5150     1.0  0.80074  0.93521  0.18596  1.0000
  C   C2926     1.0  0.50031  0.79981  0.09024  1.0000
  H   H5151     1.0  0.74419  0.76151  0.21559  1.0000
  H   H5152     1.0  0.96467  0.95254  0.98067  1.0000
  H   H5153     1.0  0.52205  0.96120  0.01591  1.0000
  H   H5154     1.0  0.84689  0.90883  0.14136  1.0000
  H   H5155     1.0  0.57656  0.96547  0.97598  1.0000
  C   C2927     1.0  0.81943  0.90306  0.16842  1.0000
  H   H5156     1.0  0.77697  0.69964  0.14886  1.0000
  C   C2928     1.0  0.71258  0.89918  0.11835  1.0000
  H   H5157     1.0  0.86365  0.92604  0.14639  1.0000
  H   H5158     1.0  0.98388  0.68768  0.17987  1.0000
  H   H5159     1.0  0.51414  0.91837  0.97854  1.0000
  H   H5160     1.0  0.94131  0.71174  0.09301  1.0000
  H   H5161     1.0  0.91828  0.67861  0.07201  1.0000
  H   H5162     1.0  0.80745  0.95833  0.17305  1.0000
  H   H5163     1.0  0.56161  0.73628  0.13528  1.0000
  H   H5164     1.0  0.83387  0.71837  0.13830  1.0000
  H   H5165     1.0  0.82412  0.75587  0.12479  1.0000
  H   H5166     1.0  0.81389  0.74378  0.11216  1.0000
  C   C2929     1.0  0.63149  0.67767  0.14961  1.0000
  H   H5167     1.0  0.90786  0.77932  0.17023  1.0000
  C   C2930     1.0  0.98243  0.69816  0.18817  1.0000
  H   H5168     1.0  0.80686  0.85778  0.19458  1.0000
  H   H5169     1.0  0.49347  0.77101  0.12535  1.0000
  H   H5170     1.0  0.68214  0.92101  0.10114  1.0000
  C   C2931     1.0  0.72959  0.88108  0.12513  1.0000
  H   H5171     1.0  0.88852  0.74133  0.18400  1.0000
  C   C2932     1.0  0.96635  0.71978  0.18506  1.0000
  H   H5172     1.0  0.79400  0.70867  0.18975  1.0000
  C   C2933     1.0  0.93874  0.69781  0.08800  1.0000
  H   H5173     1.0  0.59751  0.68821  0.19777  1.0000
  C   C2934     1.0  0.75844  0.80043  0.21478  1.0000
  C   C2935     1.0  0.87166  0.65600  0.14933  1.0000
  H   H5174     1.0  0.51298  0.76664  0.09980  1.0000
  C   C2936     1.0  0.86969  0.71655  0.10826  1.0000
  H   H5175     1.0  0.73780  0.65121  0.21722  1.0000
  C   C2937     1.0  0.96149  0.68975  0.07912  1.0000
  H   H5176     1.0  0.53652  0.96013  0.97739  1.0000
  H   H5177     1.0  0.82626  0.65861  0.15447  1.0000
  H   H5178     1.0  0.79516  0.69134  0.12356  1.0000
  H   H5179     1.0  0.65236  0.93268  0.08583  1.0000
  C   C2938     1.0  0.93682  0.65503  0.12281  1.0000
  C   C2939     1.0  0.52352  0.69165  0.06653  1.0000
  S   S649      1.0  0.49951  0.73667  0.08449  1.0000
  H   H5180     1.0  0.57299  0.66721  0.14552  1.0000
  C   C2940     1.0  0.58903  0.67050  0.14677  1.0000
  H   H5181     1.0  0.85724  0.91244  0.17087  1.0000
  S   S650      1.0  0.53076  0.67627  0.13709  1.0000
  H   H5182     1.0  0.90109  0.64924  0.06607  1.0000
  H   H5183     1.0  0.82050  0.85774  0.17650  1.0000
  H   H5184     1.0  0.80482  0.72238  0.21031  1.0000
  H   H5185     1.0  0.82458  0.70978  0.16268  1.0000
  H   H5186     1.0  0.71947  0.73303  0.22020  1.0000
  H   H5187     1.0  0.55416  0.84712  0.05895  1.0000
  C   C2941     1.0  0.55658  0.73746  0.15788  1.0000
  N   N161      1.0  0.92859  0.68040  0.09923  1.0000
  H   H5188     1.0  0.89363  0.67256  0.08471  1.0000
  S   S651      1.0  0.85913  0.76992  0.20608  1.0000
  H   H5189     1.0  0.66134  0.65096  0.12686  1.0000
  H   H5190     1.0  0.93432  0.77154  0.14100  1.0000
  H   H5191     1.0  0.86877  0.70454  0.18088  1.0000
  H   H5192     1.0  0.53729  0.75536  0.14145  1.0000
  H   H5193     1.0  0.73576  0.95813  0.09925  1.0000
  C   C2942     1.0  0.83146  0.67371  0.14729  1.0000
  H   H5194     1.0  0.86132  0.69051  0.14218  1.0000
  H   H5195     1.0  0.86560  0.93130  0.12046  1.0000
  H   H5196     1.0  0.64781  0.68070  0.15068  1.0000
  N   N162      1.0  0.51325  0.89118  0.09304  1.0000
  H   H5197     1.0  0.85318  0.68146  0.16088  1.0000
  C   C2943     1.0  0.57049  0.90742  0.09652  1.0000
  Fe  Fe327     1.0  0.71117  0.66928  0.16721  1.0000
  H   H5198     1.0  0.70063  0.90608  0.12704  1.0000
  C   C2944     1.0  0.55497  0.74847  0.14261  1.0000
  H   H5199     1.0  0.53925  0.73806  0.18696  1.0000
  H   H5200     1.0  0.50653  0.65999  0.17014  1.0000
  S   S652      1.0  0.52394  0.72834  0.12118  1.0000
  C   C2945     1.0  0.52517  0.69028  0.18065  1.0000
  H   H5201     1.0  0.71369  0.93615  0.13206  1.0000
  H   H5202     1.0  0.91032  0.69759  0.11639  1.0000
  H   H5203     1.0  0.86006  0.70240  0.11058  1.0000
  H   H5204     1.0  0.75532  0.68957  0.13162  1.0000
  H   H5205     1.0  0.93838  0.79101  0.15161  1.0000
  H   H5206     1.0  0.73886  0.88826  0.13147  1.0000
  C   C2946     1.0  0.81523  0.88995  0.18364  1.0000
  H   H5207     1.0  0.58623  0.93612  0.98116  1.0000
  C   C2947     1.0  0.67967  0.95091  0.08565  1.0000
  C   C2948     1.0  0.49490  0.75669  0.19138  1.0000
  H   H5208     1.0  0.97357  0.72878  0.17469  1.0000
  H   H5209     1.0  0.58440  0.67004  0.21254  1.0000
  C   C2949     1.0  0.84465  0.92740  0.17281  1.0000
  H   H5210     1.0  0.92781  0.72310  0.21200  1.0000
  H   H5211     1.0  0.52556  0.85863  0.05733  1.0000
  S   S653      1.0  0.68643  0.66317  0.18730  1.0000
  H   H5212     1.0  0.83098  0.88635  0.18821  1.0000
  C   C2950     1.0  0.53655  0.66797  0.17574  1.0000
  Fe  Fe328     1.0  0.50254  0.70487  0.13568  1.0000
  H   H5213     1.0  0.55062  0.90103  0.99568  1.0000
  H   H5214     1.0  0.56509  0.76228  0.13955  1.0000
  H   H5215     1.0  0.55540  0.90469  0.07901  1.0000
  H   H5216     1.0  0.49588  0.91902  0.10335  1.0000
  C   C2951     1.0  0.66407  0.94249  0.07808  1.0000
  C   C2952     1.0  0.50603  0.73979  0.18165  1.0000
  H   H5217     1.0  0.85277  0.94198  0.16697  1.0000
  H   H5218     1.0  0.65396  0.95693  0.07233  1.0000
  H   H5219     1.0  0.96080  0.67489  0.07453  1.0000
  H   H5220     1.0  0.76046  0.66480  0.20682  1.0000
  H   H5221     1.0  0.94417  0.70477  0.17616  1.0000
  C   C2953     1.0  0.89244  0.71040  0.09928  1.0000
  H   H5222     1.0  0.55645  0.70176  0.20525  1.0000
  H   H5223     1.0  0.98526  0.70202  0.06117  1.0000
  C   C2954     1.0  0.94258  0.71496  0.18469  1.0000
  C   C2955     1.0  0.53398  0.89219  0.09893  1.0000
  H   H5224     1.0  0.55448  0.70459  0.06506  1.0000
  H   H5225     1.0  0.80301  0.68107  0.19860  1.0000
  H   H5226     1.0  0.96080  0.66313  0.10424  1.0000
  H   H5227     1.0  0.93682  0.75747  0.19284  1.0000
  H   H5228     1.0  0.83403  0.89301  0.16276  1.0000
  H   H5229     1.0  0.50955  0.74919  0.17077  1.0000
  H   H5230     1.0  0.97335  0.96997  0.02177  1.0000
  H   H5231     1.0  0.98268  0.93974  0.04957  1.0000
  H   H5232     1.0  0.50923  0.92360  0.05044  1.0000
  C   C2956     1.0  0.58485  0.67670  0.20108  1.0000
  H   H5233     1.0  0.54745  0.93159  0.97914  1.0000
  H   H5234     1.0  0.49372  0.72868  0.18175  1.0000
  C   C2957     1.0  0.51017  0.93911  0.05365  1.0000
  S   S654      1.0  0.49037  0.69407  0.11817  1.0000
  H   H5235     1.0  0.50633  0.76869  0.19134  1.0000
  H   H5236     1.0  0.60666  0.66521  0.09968  1.0000
  H   H5237     1.0  0.51771  0.67576  0.04986  1.0000
  H   H5238     1.0  0.72208  0.96107  0.12125  1.0000
  H   H5239     1.0  0.90237  0.72551  0.17067  1.0000
  C   C2958     1.0  0.85449  0.67710  0.15019  1.0000
  H   H5240     1.0  0.89613  0.67768  0.11237  1.0000
  H   H5241     1.0  0.70143  0.96797  0.14462  1.0000
  H   H5242     1.0  0.97489  0.68564  0.08579  1.0000
  H   H5243     1.0  0.78176  0.95032  0.15802  1.0000
  C   C2959     1.0  0.62010  0.66307  0.16009  1.0000
  C   C2960     1.0  0.55565  0.94927  0.99428  1.0000
  H   H5244     1.0  0.96903  0.72335  0.07078  1.0000
  C   C2961     1.0  0.95429  0.64814  0.13271  1.0000
  H   H5245     1.0  0.89856  0.73380  0.21109  1.0000
  H   H5246     1.0  0.96593  0.72980  0.19343  1.0000
  S   S655      1.0  0.77885  0.97200  0.10363  1.0000
  H   H5247     1.0  0.54406  0.87535  0.10080  1.0000
  H   H5248     1.0  0.82902  0.73203  0.21384  1.0000
  H   H5249     1.0  0.88943  0.70662  0.08921  1.0000
  H   H5250     1.0  0.76788  0.66660  0.12251  1.0000
  H   H5251     1.0  0.87373  0.90885  0.19264  1.0000
  H   H5252     1.0  0.51107  0.64855  0.18812  1.0000
  H   H5253     1.0  0.88792  0.65898  0.15143  1.0000
  H   H5254     1.0  0.90037  0.70402  0.20196  1.0000
  H   H5255     1.0  0.81934  0.66912  0.17557  1.0000
  H   H5256     1.0  0.89126  0.96909  0.04636  1.0000
  H   H5257     1.0  0.74091  0.79730  0.21602  1.0000
  C   C2962     1.0  0.82688  0.93660  0.15153  1.0000
  H   H5258     1.0  0.54934  0.96506  0.99844  1.0000
  H   H5259     1.0  0.83376  0.94666  0.19028  1.0000
  H   H5260     1.0  0.58987  0.64849  0.16678  1.0000
  N   N163      1.0  0.82355  0.92672  0.16709  1.0000
  H   H5261     1.0  0.51539  0.70832  0.06201  1.0000
  S   S656      1.0  0.55586  0.96508  0.06790  1.0000
  H   H5262     1.0  0.56575  0.91188  0.10732  1.0000
  H   H5263     1.0  0.51325  0.85695  0.10333  1.0000
  H   H5264     1.0  0.58045  0.89049  0.09708  1.0000
  H   H5265     1.0  0.78483  0.75848  0.21461  1.0000
  C   C2963     1.0  0.97466  0.96688  0.03320  1.0000
  H   H5266     1.0  0.67746  0.95763  0.14156  1.0000
  C   C2964     1.0  0.53676  0.86517  0.07587  1.0000
  H   H5267     1.0  0.73518  0.68123  0.21421  1.0000
  H   H5268     1.0  0.80255  0.66290  0.13173  1.0000
  H   H5269     1.0  0.80527  0.90252  0.16297  1.0000
  C   C2965     1.0  0.80375  0.94100  0.17437  1.0000
  H   H5270     1.0  0.77579  0.82931  0.20742  1.0000
  H   H5271     1.0  0.76003  0.94978  0.18912  1.0000
  H   H5272     1.0  0.75222  0.82956  0.19885  1.0000
  C   C2966     1.0  0.98474  0.94269  0.03780  1.0000
  H   H5273     1.0  0.95757  0.97041  0.03932  1.0000
  H   H5274     1.0  0.50684  0.80780  0.09720  1.0000
  H   H5275     1.0  0.52924  0.89743  0.10953  1.0000
  H   H5276     1.0  0.71354  0.97021  0.08994  1.0000
  C   C2967     1.0  0.75000  0.96515  0.07029  1.0000
  H   H5277     1.0  0.58111  0.91951  0.08989  1.0000
  H   H5278     1.0  0.52510  0.90041  0.07069  1.0000
  H   H5279     1.0  0.74748  0.83545  0.21671  1.0000
  C   C2968     1.0  0.51908  0.88606  0.07814  1.0000
  H   H5280     1.0  0.54855  0.64784  0.09197  1.0000
  H   H5281     1.0  0.94145  0.65102  0.08948  1.0000
  H   H5282     1.0  0.92379  0.95355  0.98182  1.0000
  H   H5283     1.0  0.50380  0.88368  0.07438  1.0000
  H   H5284     1.0  0.59014  0.66252  0.19511  1.0000
  H   H5285     1.0  0.91627  0.64906  0.10142  1.0000
  C   C2969     1.0  0.59880  0.65962  0.15865  1.0000
  H   H5286     1.0  0.50614  0.97503  0.99171  1.0000
  C   C2970     1.0  0.78098  0.94253  0.16928  1.0000
  H   H5287     1.0  0.50247  0.91594  0.01085  1.0000
  H   H5288     1.0  0.50368  0.87871  0.12353  1.0000
  S   S657      1.0  0.63183  0.64872  0.17505  1.0000
  C   C2971     1.0  0.75850  0.82523  0.20916  1.0000
  C   C2972     1.0  0.86498  0.92602  0.19349  1.0000
  C   C2973     1.0  0.49554  0.76597  0.08277  1.0000
  H   H5289     1.0  0.86269  0.92833  0.20473  1.0000
  H   H5290     1.0  0.76140  0.66193  0.14158  1.0000
  C   C2974     1.0  0.49279  0.97573  0.05846  1.0000
  C   C2975     1.0  0.59955  0.64938  0.10234  1.0000
  H   H5291     1.0  0.98161  0.97218  0.99414  1.0000
  H   H5292     1.0  0.49368  0.70737  0.04501  1.0000
  N   N164      1.0  0.49035  0.67054  0.06735  1.0000
  C   C2976     1.0  0.81477  0.72283  0.21862  1.0000
  C   C2977     1.0  0.91560  0.75400  0.21955  1.0000
  H   H5293     1.0  0.90335  0.76936  0.21747  1.0000
  H   H5294     1.0  0.93253  0.75860  0.21860  1.0000
  H   H5295     1.0  0.98502  0.97851  0.03527  1.0000
  H   H5296     1.0  0.76624  0.97418  0.17630  1.0000
  H   H5297     1.0  0.49153  0.84155  0.12635  1.0000
  C   C2978     1.0  0.49077  0.87680  0.11747  1.0000
  H   H5298     1.0  0.73738  0.97934  0.06666  1.0000
  C   C2979     1.0  0.92383  0.96787  0.97298  1.0000
  H   H5299     1.0  0.89891  0.97995  0.06038  1.0000
  C   C2980     1.0  0.51300  0.97949  0.06172  1.0000
  H   H5300     1.0  0.90725  0.97857  0.97434  1.0000
  C   C2981     1.0  0.96565  0.96649  0.97162  1.0000
  H   H5301     1.0  0.61407  0.94301  0.41232  1.0000
  H   H5302     1.0  0.95050  0.82927  0.39938  1.0000
  H   H5303     1.0  0.75241  0.83712  0.36747  1.0000
  C   C2982     1.0  0.96325  0.69442  0.41425  1.0000
  C   C2983     1.0  0.65704  0.69991  0.32235  1.0000
  C   C2984     1.0  0.64551  0.90502  0.36915  1.0000
  Fe  Fe329     1.0  0.51317  0.67827  0.38909  1.0000
  S   S658      1.0  0.95813  0.74680  0.33096  1.0000
  H   H5304     1.0  0.84406  0.72382  0.35290  1.0000
  S   S659      1.0  0.50341  0.71394  0.39277  1.0000
  H   H5305     1.0  0.60201  0.91796  0.44455  1.0000
  Fe  Fe330     1.0  0.79537  0.74452  0.30698  1.0000
  S   S660      1.0  0.82560  0.73980  0.29011  1.0000
  S   S661      1.0  0.76213  0.73177  0.30939  1.0000
  Fe  Fe331     1.0  0.81447  0.77875  0.31859  1.0000
  S   S662      1.0  0.84578  0.77748  0.30244  1.0000
  S   S663      1.0  0.80838  0.79634  0.33754  1.0000
  Fe  Fe332     1.0  0.82308  0.77710  0.28677  1.0000
  S   S664      1.0  0.82105  0.80036  0.26581  1.0000
  Fe  Fe333     1.0  0.84592  0.74049  0.30715  1.0000
  S   S665      1.0  0.87592  0.71543  0.31304  1.0000
  S   S666      1.0  0.79172  0.78186  0.30276  1.0000
  S   S667      1.0  0.81573  0.74178  0.32424  1.0000
  Fe  Fe334     1.0  0.96977  0.83454  0.42579  1.0000
  H   H5306     1.0  0.61523  0.89581  0.38366  1.0000
  C   C2985     1.0  0.90871  0.87811  0.35407  1.0000
  Fe  Fe335     1.0  0.94482  0.86733  0.44569  1.0000
  S   S668      1.0  0.95597  0.89700  0.43056  1.0000
  H   H5307     1.0  0.69614  0.71265  0.35731  1.0000
  Fe  Fe336     1.0  0.94866  0.88079  0.41347  1.0000
  S   S669      1.0  0.93163  0.89982  0.39504  1.0000
  H   H5308     1.0  0.62921  0.87633  0.35595  1.0000
  S   S670      1.0  0.93480  0.85297  0.42880  1.0000
  Fe  Fe337     1.0  0.79446  0.91377  0.35226  1.0000
  S   S671      1.0  0.78477  0.89260  0.37322  1.0000
  S   S672      1.0  0.79803  0.90090  0.33161  1.0000
  Fe  Fe338     1.0  0.79755  0.95376  0.36535  1.0000
  S   S673      1.0  0.78853  0.93528  0.38744  1.0000
  Fe  Fe339     1.0  0.81188  0.90624  0.37988  1.0000
  S   S674      1.0  0.83387  0.88205  0.39380  1.0000
  Fe  Fe340     1.0  0.76214  0.92323  0.37897  1.0000
  S   S675      1.0  0.72769  0.92359  0.39252  1.0000
  S   S676      1.0  0.82334  0.92538  0.35849  1.0000
  S   S677      1.0  0.76937  0.94377  0.35737  1.0000
  Fe  Fe341     1.0  0.62993  0.85487  0.41202  1.0000
  S   S678      1.0  0.61979  0.83108  0.43193  1.0000
  S   S679      1.0  0.66364  0.85177  0.39737  1.0000
  Fe  Fe342     1.0  0.58495  0.88546  0.41535  1.0000
  S   S680      1.0  0.57125  0.86454  0.43545  1.0000
  S   S681      1.0  0.56977  0.91978  0.40586  1.0000
  Fe  Fe343     1.0  0.60507  0.86187  0.44164  1.0000
  H   H5309     1.0  0.81096  0.73412  0.23845  1.0000
  Fe  Fe344     1.0  0.58658  0.83531  0.42408  1.0000
  S   S682      1.0  0.56482  0.80794  0.42684  1.0000
  S   S683      1.0  0.61762  0.88501  0.42224  1.0000
  S   S684      1.0  0.59784  0.85678  0.40346  1.0000
  Fe  Fe345     1.0  0.53831  0.71924  0.38199  1.0000
  S   S685      1.0  0.52901  0.72749  0.36012  1.0000
  S   S686      1.0  0.56327  0.74079  0.38475  1.0000
  Fe  Fe346     1.0  0.53756  0.69093  0.35938  1.0000
  H   H5310     1.0  0.98175  0.84032  0.38048  1.0000
  S   S687      1.0  0.54899  0.68292  0.38049  1.0000
  C   C2986     1.0  0.54298  0.92950  0.41462  1.0000
  C   C2987     1.0  0.52961  0.91461  0.42330  1.0000
  H   H5311     1.0  0.82980  0.90044  0.45050  1.0000
  H   H5312     1.0  0.58422  0.93065  0.43143  1.0000
  H   H5313     1.0  0.78452  0.70373  0.27892  1.0000
  C   C2988     1.0  0.53476  0.95238  0.41275  1.0000
  H   H5314     1.0  0.53559  0.89694  0.42458  1.0000
  H   H5315     1.0  0.72254  0.72699  0.23866  1.0000
  H   H5316     1.0  0.90730  0.81165  0.39807  1.0000
  C   C2989     1.0  0.56445  0.78964  0.41489  1.0000
  C   C2990     1.0  0.57831  0.79052  0.40169  1.0000
  C   C2991     1.0  0.57761  0.77548  0.39263  1.0000
  C   C2992     1.0  0.56294  0.75954  0.39656  1.0000
  C   C2993     1.0  0.54905  0.75869  0.40975  1.0000
  C   C2994     1.0  0.54977  0.77370  0.41883  1.0000
  H   H5317     1.0  0.58972  0.80263  0.39853  1.0000
  H   H5318     1.0  0.58862  0.77614  0.38253  1.0000
  H   H5319     1.0  0.53815  0.74614  0.41312  1.0000
  H   H5320     1.0  0.53911  0.77278  0.42906  1.0000
  H   H5321     1.0  0.61498  0.72601  0.35983  1.0000
  C   C2995     1.0  0.92779  0.75780  0.36462  1.0000
  H   H5322     1.0  0.97837  0.72447  0.40685  1.0000
  H   H5323     1.0  0.76590  0.77611  0.35695  1.0000
  H   H5324     1.0  0.78673  0.72401  0.23564  1.0000
  C   C2996     1.0  0.71184  0.90171  0.39468  1.0000
  C   C2997     1.0  0.71591  0.88683  0.38502  1.0000
  C   C2998     1.0  0.70123  0.87134  0.38615  1.0000
  C   C2999     1.0  0.68268  0.87027  0.39704  1.0000
  C   C3000     1.0  0.67921  0.88454  0.40702  1.0000
  C   C3001     1.0  0.69351  0.90041  0.40571  1.0000
  H   H5325     1.0  0.72990  0.88779  0.37642  1.0000
  H   H5326     1.0  0.70395  0.86049  0.37840  1.0000
  H   H5327     1.0  0.66532  0.88364  0.41564  1.0000
  H   H5328     1.0  0.69026  0.91185  0.41324  1.0000
  C   C3002     1.0  0.90447  0.89471  0.39465  1.0000
  C   C3003     1.0  0.89130  0.90906  0.38540  1.0000
  C   C3004     1.0  0.86949  0.90551  0.38504  1.0000
  C   C3005     1.0  0.86101  0.88719  0.39371  1.0000
  C   C3006     1.0  0.87436  0.87254  0.40268  1.0000
  C   C3007     1.0  0.89590  0.87642  0.40323  1.0000
  H   H5329     1.0  0.89804  0.92283  0.37851  1.0000
  H   H5330     1.0  0.85930  0.91680  0.37800  1.0000
  H   H5331     1.0  0.86793  0.85822  0.40933  1.0000
  H   H5332     1.0  0.90588  0.86499  0.41017  1.0000
  C   C3008     1.0  0.80851  0.82519  0.33494  1.0000
  C   C3009     1.0  0.81028  0.83485  0.34648  1.0000
  C   C3010     1.0  0.80815  0.85802  0.34531  1.0000
  C   C3011     1.0  0.80380  0.87174  0.33266  1.0000
  C   C3012     1.0  0.80301  0.86204  0.32089  1.0000
  C   C3013     1.0  0.80546  0.83875  0.32201  1.0000
  H   H5333     1.0  0.81279  0.82444  0.35648  1.0000
  H   H5334     1.0  0.80953  0.86524  0.35427  1.0000
  H   H5335     1.0  0.79987  0.87257  0.31102  1.0000
  H   H5336     1.0  0.80417  0.83138  0.31303  1.0000
  C   C3014     1.0  0.82558  0.80505  0.23692  1.0000
  C   C3015     1.0  0.83150  0.79137  0.24935  1.0000
  C   C3016     1.0  0.84518  0.77087  0.24839  1.0000
  H   H5337     1.0  0.81498  0.82091  0.23761  1.0000
  H   H5338     1.0  0.84979  0.76022  0.25791  1.0000
  H   H5339     1.0  0.93151  0.69363  0.40781  1.0000
  C   C3017     1.0  0.74807  0.85279  0.33856  1.0000
  H   H5340     1.0  0.64615  0.91044  0.39453  1.0000
  H   H5341     1.0  0.61002  0.91001  0.36635  1.0000
  C   C3018     1.0  0.87720  0.94965  0.33759  1.0000
  C   C3019     1.0  0.95384  0.95601  0.36484  1.0000
  H   H5342     1.0  0.73356  0.88691  0.34103  1.0000
  H   H5343     1.0  0.87573  0.83823  0.37286  1.0000
  Fe  Fe347     1.0  0.98949  0.87530  0.42789  1.0000
  H   H5344     1.0  0.71916  0.92624  0.34442  1.0000
  C   C3020     1.0  0.93590  0.73727  0.32582  1.0000
  C   C3021     1.0  0.93150  0.71540  0.33017  1.0000
  C   C3022     1.0  0.91309  0.70886  0.32618  1.0000
  C   C3023     1.0  0.89882  0.72417  0.31797  1.0000
  C   C3024     1.0  0.90333  0.74597  0.31361  1.0000
  C   C3025     1.0  0.92180  0.75246  0.31748  1.0000
  H   H5345     1.0  0.94226  0.70353  0.33657  1.0000
  H   H5346     1.0  0.90984  0.69189  0.32949  1.0000
  H   H5347     1.0  0.89283  0.75771  0.30700  1.0000
  H   H5348     1.0  0.92523  0.76933  0.31394  1.0000
  C   C3026     1.0  0.74503  0.74887  0.22521  1.0000
  H   H5349     1.0  0.52648  0.77852  0.38023  1.0000
  C   C3027     1.0  0.72890  0.84166  0.34858  1.0000
  H   H5350     1.0  0.95082  0.85781  0.34859  1.0000
  C   C3028     1.0  0.92185  0.81234  0.40313  1.0000
  C   C3029     1.0  0.74006  0.69735  0.30880  1.0000
  C   C3030     1.0  0.76092  0.70377  0.30862  1.0000
  C   C3031     1.0  0.78019  0.68783  0.30792  1.0000
  H   H5351     1.0  0.65677  0.89182  0.37505  1.0000
  H   H5352     1.0  0.67100  0.94999  0.36891  1.0000
  H   H5353     1.0  0.72511  0.70966  0.30929  1.0000
  H   H5354     1.0  0.79633  0.69259  0.30780  1.0000
  H   H5355     1.0  0.66511  0.83384  0.46516  1.0000
  C   C3032     1.0  0.65678  0.69956  0.35366  1.0000
  C   C3033     1.0  0.83337  0.79835  0.22361  1.0000
  H   H5356     1.0  0.84568  0.73417  0.36871  1.0000
  H   H5357     1.0  0.69791  0.68290  0.29065  1.0000
  H   H5358     1.0  0.92895  0.87633  0.36998  1.0000
  H   H5359     1.0  0.68237  0.66544  0.36543  1.0000
  C   C3034     1.0  0.52709  0.79537  0.35844  1.0000
  C   C3035     1.0  0.49348  0.77186  0.40325  1.0000
  H   H5360     1.0  0.84780  0.86647  0.45337  1.0000
  C   C3036     1.0  0.75431  0.82022  0.36455  1.0000
  C   C3037     1.0  0.87396  0.79524  0.33210  1.0000
  C   C3038     1.0  0.86018  0.75324  0.34891  1.0000
  C   C3039     1.0  0.88762  0.81313  0.32283  1.0000
  N   N165      1.0  0.95865  0.83538  0.36761  1.0000
  C   C3040     1.0  0.88324  0.81733  0.30754  1.0000
  H   H5361     1.0  0.85608  0.80070  0.33071  1.0000
  H   H5362     1.0  0.87960  0.78005  0.32714  1.0000
  H   H5363     1.0  0.90351  0.76377  0.34402  1.0000
  H   H5364     1.0  0.85669  0.75681  0.33786  1.0000
  H   H5365     1.0  0.87692  0.74296  0.34913  1.0000
  H   H5366     1.0  0.90588  0.80764  0.32257  1.0000
  H   H5367     1.0  0.88302  0.82929  0.32676  1.0000
  N   N166      1.0  0.67409  0.68427  0.34537  1.0000
  H   H5368     1.0  0.75557  0.78662  0.37781  1.0000
  H   H5369     1.0  0.89303  0.83021  0.30107  1.0000
  H   H5370     1.0  0.88842  0.80184  0.30282  1.0000
  H   H5371     1.0  0.86516  0.82333  0.30709  1.0000
  H   H5372     1.0  0.90639  0.94790  0.34689  1.0000
  H   H5373     1.0  0.61995  0.92578  0.39109  1.0000
  C   C3041     1.0  0.85340  0.76441  0.23505  1.0000
  C   C3042     1.0  0.80012  0.73412  0.23052  1.0000
  H   H5374     1.0  0.51833  0.90301  0.45843  1.0000
  C   C3043     1.0  0.97952  0.73201  0.43370  1.0000
  H   H5375     1.0  0.91062  0.74575  0.23060  1.0000
  H   H5376     1.0  0.87542  0.83967  0.43986  1.0000
  N   N167      1.0  0.73571  0.81878  0.35669  1.0000
  C   C3044     1.0  0.63312  0.69259  0.35812  1.0000
  H   H5377     1.0  0.80207  0.89879  0.42018  1.0000
  C   C3045     1.0  0.70687  0.70004  0.35127  1.0000
  H   H5378     1.0  0.49035  0.97663  0.45511  1.0000
  C   C3046     1.0  0.75577  0.76390  0.34047  1.0000
  C   C3047     1.0  0.57076  0.93765  0.45272  1.0000
  H   H5379     1.0  0.67882  0.66911  0.32658  1.0000
  C   C3048     1.0  0.92263  0.86445  0.36510  1.0000
  H   H5380     1.0  0.92788  0.74183  0.36097  1.0000
  H   H5381     1.0  0.94107  0.76651  0.35761  1.0000
  H   H5382     1.0  0.68120  0.67278  0.28049  1.0000
  C   C3049     1.0  0.72864  0.70908  0.34450  1.0000
  H   H5383     1.0  0.76957  0.76962  0.33225  1.0000
  H   H5384     1.0  0.66246  0.70088  0.36363  1.0000
  C   C3050     1.0  0.62309  0.87529  0.36751  1.0000
  H   H5385     1.0  0.95357  0.69965  0.39327  1.0000
  S   S688      1.0  0.55792  0.67765  0.33994  1.0000
  H   H5386     1.0  0.60070  0.96017  0.34630  1.0000
  H   H5387     1.0  0.95742  0.86049  0.38077  1.0000
  N   N168      1.0  0.64658  0.92734  0.37286  1.0000
  C   C3051     1.0  0.75947  0.68202  0.25623  1.0000
  H   H5388     1.0  0.50688  0.97793  0.41789  1.0000
  H   H5389     1.0  0.51021  0.76843  0.37062  1.0000
  C   C3052     1.0  0.97030  0.80155  0.35407  1.0000
  N   N169      1.0  0.86319  0.90786  0.44105  1.0000
  C   C3053     1.0  0.83836  0.90999  0.44081  1.0000
  H   H5390     1.0  0.85067  0.83309  0.38516  1.0000
  C   C3054     1.0  0.87304  0.92241  0.42788  1.0000
  C   C3055     1.0  0.87494  0.88432  0.44074  1.0000
  H   H5391     1.0  0.56049  0.95349  0.44875  1.0000
  C   C3056     1.0  0.83173  0.90236  0.42807  1.0000
  C   C3057     1.0  0.89829  0.92406  0.42647  1.0000
  S   S689      1.0  0.97876  0.84636  0.44417  1.0000
  C   C3058     1.0  0.80630  0.90414  0.42949  1.0000
  C   C3059     1.0  0.90510  0.94255  0.41440  1.0000
  H   H5392     1.0  0.85178  0.95201  0.39232  1.0000
  H   H5393     1.0  0.70244  0.69093  0.25821  1.0000
  H   H5394     1.0  0.86346  0.93961  0.42716  1.0000
  H   H5395     1.0  0.87156  0.91623  0.41815  1.0000
  H   H5396     1.0  0.87474  0.87930  0.43044  1.0000
  H   H5397     1.0  0.98737  0.80601  0.33216  1.0000
  C   C3060     1.0  0.87770  0.84300  0.45028  1.0000
  C   C3061     1.0  0.75778  0.65922  0.30755  1.0000
  H   H5398     1.0  0.83733  0.91291  0.41790  1.0000
  H   H5399     1.0  0.83899  0.88477  0.42739  1.0000
  H   H5400     1.0  0.90856  0.90814  0.42406  1.0000
  C   C3062     1.0  0.55684  0.91812  0.45683  1.0000
  H   H5401     1.0  0.92210  0.94616  0.36541  1.0000
  S   S690      1.0  0.61161  0.87257  0.46132  1.0000
  C   C3063     1.0  0.70809  0.93299  0.35352  1.0000
  H   H5402     1.0  0.87050  0.83033  0.45876  1.0000
  H   H5403     1.0  0.79954  0.89321  0.43921  1.0000
  C   C3064     1.0  0.94610  0.70272  0.40418  1.0000
  H   H5404     1.0  0.52668  0.81338  0.35832  1.0000
  C   C3065     1.0  0.51448  0.78414  0.37263  1.0000
  H   H5405     1.0  0.90063  0.94015  0.40433  1.0000
  H   H5406     1.0  0.94009  0.72081  0.40392  1.0000
  H   H5407     1.0  0.76682  0.67831  0.22761  1.0000
  C   C3066     1.0  0.59038  0.93305  0.44096  1.0000
  C   C3067     1.0  0.75708  0.66429  0.22952  1.0000
  H   H5408     1.0  0.63615  0.93348  0.34496  1.0000
  C   C3068     1.0  0.76685  0.79381  0.22924  1.0000
  C   C3069     1.0  0.73845  0.66597  0.24265  1.0000
  H   H5409     1.0  0.92354  0.94220  0.41288  1.0000
  C   C3070     1.0  0.51321  0.96030  0.41947  1.0000
  H   H5410     1.0  0.86787  0.93458  0.45133  1.0000
  H   H5411     1.0  0.71558  0.65336  0.34683  1.0000
  C   C3071     1.0  0.62199  0.89773  0.37217  1.0000
  H   H5412     1.0  0.85890  0.95570  0.33945  1.0000
  H   H5413     1.0  0.90268  0.92760  0.43626  1.0000
  H   H5414     1.0  0.84974  0.97508  0.36864  1.0000
  H   H5415     1.0  0.95478  0.69740  0.42496  1.0000
  H   H5416     1.0  0.88683  0.96055  0.37710  1.0000
  H   H5417     1.0  0.85926  0.77033  0.36638  1.0000
  H   H5418     1.0  0.69054  0.90481  0.35921  1.0000
  H   H5419     1.0  0.67932  0.92374  0.37895  1.0000
  H   H5420     1.0  0.55979  0.79267  0.34516  1.0000
  H   H5421     1.0  0.55286  0.76664  0.35537  1.0000
  C   C3072     1.0  0.86602  0.86626  0.45271  1.0000
  C   C3073     1.0  0.98596  0.79041  0.40707  1.0000
  H   H5422     1.0  0.59563  0.65057  0.38634  1.0000
  H   H5423     1.0  0.96526  0.73572  0.42772  1.0000
  H   H5424     1.0  0.60610  0.87040  0.36982  1.0000
  H   H5425     1.0  0.88048  0.94679  0.35929  1.0000
  C   C3074     1.0  0.76661  0.68349  0.27044  1.0000
  H   H5426     1.0  0.49818  0.83296  0.37513  1.0000
  C   C3075     1.0  0.49976  0.94529  0.42795  1.0000
  H   H5427     1.0  0.86957  0.79850  0.37638  1.0000
  H   H5428     1.0  0.91547  0.81855  0.41334  1.0000
  H   H5429     1.0  0.75497  0.84368  0.32954  1.0000
  H   H5430     1.0  0.59980  0.94739  0.43805  1.0000
  C   C3076     1.0  0.67950  0.66250  0.35504  1.0000
  C   C3077     1.0  0.86001  0.81126  0.36929  1.0000
  C   C3078     1.0  0.64497  0.69300  0.31191  1.0000
  C   C3079     1.0  0.61701  0.70922  0.36641  1.0000
  H   H5431     1.0  0.69016  0.71177  0.33317  1.0000
  H   H5432     1.0  0.65192  0.66902  0.33667  1.0000
  H   H5433     1.0  0.65498  0.71687  0.34771  1.0000
  H   H5434     1.0  0.62564  0.69176  0.34876  1.0000
  H   H5435     1.0  0.65593  0.68000  0.30630  1.0000
  H   H5436     1.0  0.62947  0.68640  0.31758  1.0000
  H   H5437     1.0  0.64017  0.70764  0.30392  1.0000
  H   H5438     1.0  0.72539  0.72437  0.33663  1.0000
  H   H5439     1.0  0.62311  0.71029  0.37625  1.0000
  C   C3080     1.0  0.66548  0.67942  0.33295  1.0000
  H   H5440     1.0  0.60025  0.70376  0.36945  1.0000
  Fe  Fe348     1.0  0.98542  0.72523  0.34258  1.0000
  H   H5441     1.0  0.75197  0.68519  0.27894  1.0000
  H   H5442     1.0  0.72050  0.85323  0.35609  1.0000
  H   H5443     1.0  0.64508  0.71249  0.32776  1.0000
  H   H5444     1.0  0.77839  0.66844  0.27391  1.0000
  H   H5445     1.0  0.84153  0.78440  0.35429  1.0000
  C   C3081     1.0  0.77862  0.66568  0.30727  1.0000
  H   H5446     1.0  0.72802  0.68246  0.24033  1.0000
  H   H5447     1.0  0.52378  0.94698  0.45225  1.0000
  C   C3082     1.0  0.87047  0.81193  0.35340  1.0000
  H   H5448     1.0  0.79287  0.79781  0.37596  1.0000
  H   H5449     1.0  0.82558  0.74851  0.35728  1.0000
  N   N170      1.0  0.87575  0.79012  0.34770  1.0000
  H   H5450     1.0  0.58555  0.66540  0.36216  1.0000
  C   C3083     1.0  0.94204  0.84825  0.35827  1.0000
  C   C3084     1.0  0.90485  0.77226  0.36442  1.0000
  H   H5451     1.0  0.93131  0.79534  0.40543  1.0000
  C   C3085     1.0  0.84277  0.73913  0.35756  1.0000
  C   C3086     1.0  0.69461  0.69540  0.33984  1.0000
  C   C3087     1.0  0.98253  0.86744  0.36269  1.0000
  H   H5452     1.0  0.75005  0.69838  0.25218  1.0000
  H   H5453     1.0  0.63439  0.86220  0.37340  1.0000
  H   H5454     1.0  0.51936  0.85177  0.38908  1.0000
  H   H5455     1.0  0.73658  0.71325  0.35280  1.0000
  C   C3088     1.0  0.96972  0.85054  0.37363  1.0000
  H   H5456     1.0  0.76630  0.71915  0.26689  1.0000
  H   H5457     1.0  0.89450  0.88909  0.35930  1.0000
  C   C3089     1.0  0.84757  0.77813  0.22263  1.0000
  H   H5458     1.0  0.72236  0.67024  0.30862  1.0000
  S   S691      1.0  0.97125  0.79876  0.42302  1.0000
  C   C3090     1.0  0.93704  0.82797  0.39354  1.0000
  C   C3091     1.0  0.50807  0.92248  0.42991  1.0000
  C   C3092     1.0  0.69117  0.68602  0.28054  1.0000
  H   H5459     1.0  0.98367  0.73296  0.45532  1.0000
  C   C3093     1.0  0.58484  0.66185  0.34079  1.0000
  C   C3094     1.0  0.94762  0.81929  0.37945  1.0000
  H   H5460     1.0  0.72590  0.87745  0.32632  1.0000
  H   H5461     1.0  0.71031  0.82398  0.37488  1.0000
  H   H5462     1.0  0.53900  0.83394  0.39949  1.0000
  C   C3095     1.0  0.97688  0.82205  0.35849  1.0000
  C   C3096     1.0  0.67058  0.93185  0.36985  1.0000
  C   C3097     1.0  0.71544  0.81228  0.36707  1.0000
  C   C3098     1.0  0.74383  0.80305  0.34608  1.0000
  C   C3099     1.0  0.75046  0.77824  0.35218  1.0000
  C   C3100     1.0  0.69439  0.81154  0.36064  1.0000
  H   H5463     1.0  0.91107  0.85501  0.37319  1.0000
  C   C3101     1.0  0.67575  0.80320  0.37213  1.0000
  H   H5464     1.0  0.71939  0.79574  0.37356  1.0000
  H   H5465     1.0  0.71647  0.84118  0.34174  1.0000
  H   H5466     1.0  0.73124  0.80427  0.33903  1.0000
  H   H5467     1.0  0.75901  0.80803  0.33880  1.0000
  H   H5468     1.0  0.73689  0.77163  0.36018  1.0000
  H   H5469     1.0  0.68750  0.82839  0.35560  1.0000
  H   H5470     1.0  0.69834  0.80020  0.35268  1.0000
  H   H5471     1.0  0.76126  0.74629  0.34496  1.0000
  H   H5472     1.0  0.91172  0.78970  0.34334  1.0000
  H   H5473     1.0  0.66075  0.80315  0.36734  1.0000
  H   H5474     1.0  0.68128  0.78599  0.37733  1.0000
  H   H5475     1.0  0.67087  0.81427  0.38029  1.0000
  C   C3102     1.0  0.59426  0.65792  0.35317  1.0000
  H   H5476     1.0  0.89669  0.95908  0.41694  1.0000
  H   H5477     1.0  0.77527  0.68017  0.24850  1.0000
  C   C3103     1.0  0.77953  0.76696  0.24888  1.0000
  C   C3104     1.0  0.75023  0.75866  0.23756  1.0000
  C   C3105     1.0  0.52356  0.90207  0.46892  1.0000
  H   H5478     1.0  0.79811  0.92161  0.42984  1.0000
  C   C3106     1.0  0.76378  0.77948  0.26023  1.0000
  C   C3107     1.0  0.63240  0.94302  0.41105  1.0000
  H   H5479     1.0  0.89249  0.76261  0.37158  1.0000
  H   H5480     1.0  0.57789  0.94007  0.46185  1.0000
  H   H5481     1.0  0.90549  0.78745  0.36871  1.0000
  C   C3108     1.0  0.76919  0.76989  0.27505  1.0000
  Fe  Fe349     1.0  0.49474  0.72046  0.37068  1.0000
  H   H5482     1.0  0.92344  0.96040  0.37959  1.0000
  H   H5483     1.0  0.75387  0.80262  0.23670  1.0000
  C   C3109     1.0  0.59688  0.65267  0.32895  1.0000
  H   H5484     1.0  0.79606  0.77277  0.24718  1.0000
  H   H5485     1.0  0.78263  0.74920  0.25376  1.0000
  H   H5486     1.0  0.75061  0.74471  0.24666  1.0000
  H   H5487     1.0  0.73535  0.77089  0.24080  1.0000
  H   H5488     1.0  0.89302  0.88320  0.44134  1.0000
  H   H5489     1.0  0.83044  0.92766  0.44092  1.0000
  H   H5490     1.0  0.53537  0.81615  0.37987  1.0000
  H   H5491     1.0  0.49838  0.78407  0.40858  1.0000
  H   H5492     1.0  0.74590  0.77851  0.26039  1.0000
  H   H5493     1.0  0.76603  0.79730  0.25802  1.0000
  H   H5494     1.0  0.93178  0.75397  0.37557  1.0000
  H   H5495     1.0  0.78008  0.82139  0.38473  1.0000
  C   C3110     1.0  0.64253  0.94558  0.39537  1.0000
  H   H5496     1.0  0.85074  0.97687  0.39984  1.0000
  H   H5497     1.0  0.80426  0.76819  0.22207  1.0000
  H   H5498     1.0  0.98294  0.77794  0.33959  1.0000
  H   H5499     1.0  0.49763  0.91081  0.43635  1.0000
  C   C3111     1.0  0.88844  0.95511  0.34895  1.0000
  H   H5500     1.0  0.96183  0.75356  0.44863  1.0000
  C   C3112     1.0  0.86726  0.91633  0.45383  1.0000
  H   H5501     1.0  0.96103  0.96947  0.36768  1.0000
  H   H5502     1.0  0.78716  0.76985  0.27530  1.0000
  H   H5503     1.0  0.75889  0.78016  0.28281  1.0000
  H   H5504     1.0  0.76544  0.75260  0.27830  1.0000
  H   H5505     1.0  0.51738  0.86188  0.46213  1.0000
  H   H5506     1.0  0.71919  0.70048  0.26846  1.0000
  C   C3113     1.0  0.63570  0.94918  0.34893  1.0000
  H   H5507     1.0  0.82161  0.70551  0.22292  1.0000
  C   C3114     1.0  0.77848  0.80422  0.38364  1.0000
  H   H5508     1.0  0.52509  0.80074  0.39645  1.0000
  H   H5509     1.0  0.87962  0.93133  0.33799  1.0000
  S   S692      1.0  0.91933  0.87047  0.46563  1.0000
  C   C3115     1.0  0.77835  0.70370  0.26894  1.0000
  S   S693      1.0  0.98331  0.86160  0.40936  1.0000
  H   H5510     1.0  0.98335  0.66208  0.43383  1.0000
  H   H5511     1.0  0.88452  0.95743  0.32685  1.0000
  H   H5512     1.0  0.85802  0.82383  0.34760  1.0000
  S   S694      1.0  0.50207  0.68456  0.36782  1.0000
  C   C3116     1.0  0.71022  0.68675  0.26795  1.0000
  H   H5513     1.0  0.65203  0.90430  0.35781  1.0000
  C   C3117     1.0  0.63150  0.94598  0.36530  1.0000
  H   H5514     1.0  0.75358  0.88422  0.32516  1.0000
  H   H5515     1.0  0.66486  0.65336  0.35768  1.0000
  H   H5516     1.0  0.74064  0.69637  0.33915  1.0000
  H   H5517     1.0  0.79298  0.70337  0.26028  1.0000
  H   H5518     1.0  0.71709  0.92857  0.36278  1.0000
  H   H5519     1.0  0.89588  0.84127  0.45068  1.0000
  C   C3118     1.0  0.84588  0.97022  0.39123  1.0000
  H   H5520     1.0  0.74249  0.80920  0.38708  1.0000
  H   H5521     1.0  0.74080  0.76467  0.33545  1.0000
  C   C3119     1.0  0.84980  0.91336  0.46758  1.0000
  H   H5522     1.0  0.84262  0.80744  0.37105  1.0000
  C   C3120     1.0  0.52224  0.83568  0.39631  1.0000
  H   H5523     1.0  0.55173  0.91553  0.44694  1.0000
  C   C3121     1.0  0.97004  0.73597  0.44884  1.0000
  C   C3122     1.0  0.85872  0.83380  0.37389  1.0000
  C   C3123     1.0  0.63834  0.92622  0.38860  1.0000
  H   H5524     1.0  0.88577  0.82007  0.35138  1.0000
  H   H5525     1.0  0.76195  0.85337  0.34419  1.0000
  H   H5526     1.0  0.93471  0.81239  0.37569  1.0000
  H   H5527     1.0  0.86960  0.86865  0.46301  1.0000
  C   C3124     1.0  0.55160  0.78468  0.35558  1.0000
  H   H5528     1.0  0.67142  0.70791  0.31614  1.0000
  H   H5529     1.0  0.96538  0.76536  0.40804  1.0000
  N   N171      1.0  0.53656  0.92081  0.46827  1.0000
  H   H5530     1.0  0.90169  0.86702  0.34888  1.0000
  H   H5531     1.0  0.84847  0.84709  0.36739  1.0000
  H   H5532     1.0  0.63303  0.96219  0.36803  1.0000
  H   H5533     1.0  0.63478  0.96192  0.39017  1.0000
  H   H5534     1.0  0.78233  0.80134  0.22839  1.0000
  C   C3125     1.0  0.89932  0.77884  0.34918  1.0000
  H   H5535     1.0  0.86439  0.74876  0.23437  1.0000
  H   H5536     1.0  0.56074  0.78686  0.36390  1.0000
  C   C3126     1.0  0.68617  0.92323  0.35686  1.0000
  H   H5537     1.0  0.70684  0.68551  0.33260  1.0000
  H   H5538     1.0  0.96976  0.78758  0.36314  1.0000
  C   C3127     1.0  0.92825  0.96032  0.36799  1.0000
  H   H5539     1.0  0.64031  0.92726  0.41694  1.0000
  H   H5540     1.0  0.88407  0.90859  0.45659  1.0000
  C   C3128     1.0  0.85868  0.77511  0.35489  1.0000
  H   H5541     1.0  0.96015  0.80471  0.38267  1.0000
  H   H5542     1.0  0.92706  0.84461  0.39177  1.0000
  H   H5543     1.0  0.54501  0.96398  0.40601  1.0000
  H   H5544     1.0  0.98326  0.83285  0.34857  1.0000
  H   H5545     1.0  0.71129  0.68476  0.35884  1.0000
  H   H5546     1.0  0.67983  0.70220  0.27988  1.0000
  H   H5547     1.0  0.91908  0.88875  0.34589  1.0000
  H   H5548     1.0  0.77906  0.79340  0.39411  1.0000
  C   C3129     1.0  0.73961  0.87680  0.33241  1.0000
  H   H5549     1.0  0.61357  0.94407  0.36912  1.0000
  C   C3130     1.0  0.97976  0.77278  0.40230  1.0000
  C   C3131     1.0  0.73844  0.67510  0.30841  1.0000
  H   H5550     1.0  0.96008  0.93997  0.37124  1.0000
  H   H5551     1.0  0.95370  0.80527  0.35059  1.0000
  H   H5552     1.0  0.93391  0.83671  0.35420  1.0000
  H   H5553     1.0  0.56883  0.90305  0.46003  1.0000
  H   H5554     1.0  0.66071  0.94590  0.39468  1.0000
  H   H5555     1.0  0.50845  0.76041  0.39936  1.0000
  C   C3132     1.0  0.75637  0.80399  0.37869  1.0000
  H   H5556     1.0  0.77077  0.81807  0.35749  1.0000
  C   C3133     1.0  0.52143  0.81621  0.38896  1.0000
  N   N172      1.0  0.77134  0.76922  0.23492  1.0000
  C   C3134     1.0  0.79011  0.75836  0.22489  1.0000
  H   H5557     1.0  0.70476  0.95140  0.35069  1.0000
  H   H5558     1.0  0.50946  0.83575  0.40605  1.0000
  H   H5559     1.0  0.62082  0.96858  0.33104  1.0000
  H   H5560     1.0  0.73117  0.65898  0.27893  1.0000
  H   H5561     1.0  0.95971  0.95490  0.35345  1.0000
  H   H5562     1.0  0.67832  0.92732  0.34719  1.0000
  H   H5563     1.0  0.51890  0.79368  0.34953  1.0000
  H   H5564     1.0  0.63528  0.95711  0.41567  1.0000
  H   H5565     1.0  0.82728  0.97294  0.39239  1.0000
  H   H5566     1.0  0.63396  0.67611  0.36504  1.0000
  H   H5567     1.0  0.96820  0.67626  0.41429  1.0000
  H   H5568     1.0  0.58979  0.65572  0.31927  1.0000
  H   H5569     1.0  0.52931  0.95665  0.46713  1.0000
  S   S695      1.0  0.98326  0.72538  0.36587  1.0000
  H   H5570     1.0  0.95735  0.72495  0.45383  1.0000
  C   C3135     1.0  0.98409  0.70631  0.40922  1.0000
  H   H5571     1.0  0.65170  0.95579  0.34476  1.0000
  C   C3136     1.0  0.61717  0.96615  0.34281  1.0000
  C   C3137     1.0  0.49853  0.81832  0.38380  1.0000
  H   H5572     1.0  0.70866  0.75396  0.23130  1.0000
  C   C3138     1.0  0.72254  0.74019  0.22916  1.0000
  H   H5573     1.0  0.71561  0.65158  0.26759  1.0000
  N   N173      1.0  0.49360  0.79816  0.37892  1.0000
  C   C3139     1.0  0.49697  0.94558  0.46954  1.0000
  H   H5574     1.0  0.98699  0.75139  0.38642  1.0000
  N   N174      1.0  0.74640  0.66344  0.25670  1.0000
  H   H5575     1.0  0.75801  0.73472  0.22248  1.0000
  H   H5576     1.0  0.76882  0.64845  0.23084  1.0000
  H   H5577     1.0  0.79365  0.65347  0.30660  1.0000
  C   C3140     1.0  0.52257  0.94306  0.46404  1.0000
  H   H5578     1.0  0.66719  0.65323  0.24445  1.0000
  H   H5579     1.0  0.97876  0.69705  0.43916  1.0000
  H   H5580     1.0  0.72706  0.65366  0.24306  1.0000
  C   C3141     1.0  0.88159  0.97872  0.37463  1.0000
  C   C3142     1.0  0.72612  0.66411  0.26822  1.0000
  C   C3143     1.0  0.98737  0.79331  0.34190  1.0000
  H   H5581     1.0  0.97116  0.87856  0.35586  1.0000
  H   H5582     1.0  0.83391  0.92475  0.46609  1.0000
  H   H5583     1.0  0.97885  0.89173  0.37686  1.0000
  H   H5584     1.0  0.55155  0.87453  0.46570  1.0000
  H   H5585     1.0  0.51761  0.64791  0.34779  1.0000
  H   H5586     1.0  0.96419  0.87010  0.47117  1.0000
  H   H5587     1.0  0.84590  0.89618  0.47057  1.0000
  Fe  Fe350     1.0  0.93493  0.88006  0.54248  1.0000
  S   S696      1.0  0.95468  0.88434  0.55878  1.0000
  S   S697      1.0  0.95645  0.87431  0.52154  1.0000
  Fe  Fe351     1.0  0.88990  0.88798  0.56209  1.0000
  S   S698      1.0  0.90636  0.89399  0.57937  1.0000
  S   S699      1.0  0.85306  0.88408  0.56509  1.0000
  Fe  Fe352     1.0  0.92806  0.91368  0.56206  1.0000
  S   S700      1.0  0.93547  0.94807  0.56245  1.0000
  Fe  Fe353     1.0  0.93147  0.86400  0.57453  1.0000
  S   S701      1.0  0.93841  0.83797  0.59376  1.0000
  S   S702      1.0  0.90935  0.91039  0.54500  1.0000
  S   S703      1.0  0.91413  0.85702  0.55796  1.0000
  Fe  Fe354     1.0  0.54870  0.90620  0.55497  1.0000
  S   S704      1.0  0.57992  0.89574  0.53997  1.0000
  S   S705      1.0  0.53122  0.94084  0.54734  1.0000
  Fe  Fe355     1.0  0.55236  0.86079  0.57409  1.0000
  S   S706      1.0  0.58345  0.84734  0.56036  1.0000
  S   S707      1.0  0.54079  0.83863  0.59465  1.0000
  Fe  Fe356     1.0  0.59468  0.88014  0.55970  1.0000
  S   S708      1.0  0.63130  0.87900  0.56153  1.0000
  Fe  Fe357     1.0  0.56585  0.86416  0.54202  1.0000
  S   S709      1.0  0.56370  0.84580  0.52436  1.0000
  S   S710      1.0  0.56456  0.89290  0.57459  1.0000
  S   S711      1.0  0.53370  0.87532  0.55586  1.0000
  Fe  Fe358     1.0  0.64743  0.75003  0.71142  1.0000
  S   S712      1.0  0.68146  0.74410  0.69805  1.0000
  Fe  Fe359     1.0  0.62334  0.73882  0.68875  1.0000
  S   S713      1.0  0.65584  0.73101  0.67444  1.0000
  S   S714      1.0  0.58873  0.74031  0.68290  1.0000
  Fe  Fe360     1.0  0.66992  0.71382  0.69402  1.0000
  S   S715      1.0  0.69068  0.67993  0.69865  1.0000
  Fe  Fe361     1.0  0.66418  0.76213  0.67967  1.0000
  S   S716      1.0  0.67713  0.78456  0.65969  1.0000
  S   S717      1.0  0.63658  0.71887  0.70806  1.0000
  S   S718      1.0  0.63102  0.77069  0.69332  1.0000
  C   C3144     1.0  0.98186  0.78638  0.57893  1.0000
  S   S719      1.0  0.53002  0.70102  0.60520  1.0000
  H   H5588     1.0  0.97818  0.87181  0.49314  1.0000
  H   H5589     1.0  0.87702  0.91893  0.60325  1.0000
  Fe  Fe362     1.0  0.53245  0.69786  0.62823  1.0000
  S   S720      1.0  0.56718  0.69687  0.63368  1.0000
  S   S721      1.0  0.50217  0.72328  0.63293  1.0000
  C   C3145     1.0  0.52695  0.92140  0.49541  1.0000
  Fe  Fe363     1.0  0.71514  0.90020  0.64027  1.0000
  S   S722      1.0  0.68302  0.92304  0.63833  1.0000
  S   S723      1.0  0.71569  0.87273  0.65929  1.0000
  Fe  Fe364     1.0  0.74043  0.92849  0.61583  1.0000
  S   S724      1.0  0.70963  0.95374  0.61208  1.0000
  S   S725      1.0  0.77538  0.93588  0.60543  1.0000
  Fe  Fe365     1.0  0.70207  0.95149  0.63577  1.0000
  C   C3146     1.0  0.96863  0.80740  0.57963  1.0000
  Fe  Fe366     1.0  0.69212  0.92386  0.61491  1.0000
  S   S726      1.0  0.65928  0.92644  0.60669  1.0000
  S   S727      1.0  0.73384  0.92845  0.63944  1.0000
  S   S728      1.0  0.72346  0.89849  0.61692  1.0000
  H   H5590     1.0  0.89688  0.87488  0.49395  1.0000
  C   C3147     1.0  0.65763  0.83717  0.48744  1.0000
  H   H5591     1.0  0.75652  0.74302  0.65374  1.0000
  C   C3148     1.0  0.71606  0.67182  0.68786  1.0000
  C   C3149     1.0  0.74061  0.67318  0.66512  1.0000
  C   C3150     1.0  0.71991  0.67989  0.67332  1.0000
  H   H5592     1.0  0.74357  0.67939  0.65387  1.0000
  H   H5593     1.0  0.70681  0.69099  0.66840  1.0000
  C   C3151     1.0  0.58347  0.72887  0.66873  1.0000
  C   C3152     1.0  0.56209  0.73428  0.66470  1.0000
  C   C3153     1.0  0.55704  0.72511  0.65372  1.0000
  C   C3154     1.0  0.57314  0.70990  0.64694  1.0000
  C   C3155     1.0  0.59462  0.70476  0.65081  1.0000
  C   C3156     1.0  0.59981  0.71424  0.66162  1.0000
  H   H5594     1.0  0.54935  0.74562  0.67011  1.0000
  H   H5595     1.0  0.54075  0.72986  0.65046  1.0000
  H   H5596     1.0  0.60724  0.69313  0.64555  1.0000
  H   H5597     1.0  0.61631  0.70987  0.66464  1.0000
  C   C3157     1.0  0.68755  0.80905  0.65992  1.0000
  C   C3158     1.0  0.68652  0.81708  0.67252  1.0000
  C   C3159     1.0  0.69520  0.83670  0.67221  1.0000
  C   C3160     1.0  0.70458  0.84849  0.65930  1.0000
  C   C3161     1.0  0.70541  0.84053  0.64671  1.0000
  C   C3162     1.0  0.69699  0.82079  0.64704  1.0000
  H   H5598     1.0  0.67922  0.80812  0.68249  1.0000
  H   H5599     1.0  0.69462  0.84281  0.68199  1.0000
  H   H5600     1.0  0.71278  0.84944  0.63674  1.0000
  H   H5601     1.0  0.69793  0.81448  0.63730  1.0000
  H   H5602     1.0  0.53695  0.67663  0.65686  1.0000
  H   H5603     1.0  0.57520  0.67010  0.70995  1.0000
  C   C3163     1.0  0.51144  0.95643  0.55874  1.0000
  H   H5604     1.0  0.50590  0.96029  0.51492  1.0000
  H   H5605     1.0  0.55439  0.93386  0.48122  1.0000
  H   H5606     1.0  0.67223  0.79333  0.51141  1.0000
  H   H5607     1.0  0.63225  0.82781  0.53710  1.0000
  H   H5608     1.0  0.50974  0.93026  0.57681  1.0000
  H   H5609     1.0  0.51420  0.66863  0.54574  1.0000
  C   C3164     1.0  0.57572  0.85424  0.50665  1.0000
  C   C3165     1.0  0.58670  0.87286  0.50281  1.0000
  C   C3166     1.0  0.57485  0.84160  0.49629  1.0000
  H   H5610     1.0  0.58735  0.88276  0.51069  1.0000
  H   H5611     1.0  0.56630  0.82718  0.49920  1.0000
  C   C3167     1.0  0.63902  0.89230  0.57406  1.0000
  C   C3168     1.0  0.66166  0.88949  0.57573  1.0000
  C   C3169     1.0  0.66831  0.89990  0.58560  1.0000
  C   C3170     1.0  0.65232  0.91323  0.59386  1.0000
  C   C3171     1.0  0.62977  0.91624  0.59205  1.0000
  C   C3172     1.0  0.62310  0.90572  0.58229  1.0000
  H   H5612     1.0  0.67411  0.87923  0.56935  1.0000
  H   H5613     1.0  0.68577  0.89763  0.58678  1.0000
  H   H5614     1.0  0.61735  0.92681  0.59822  1.0000
  H   H5615     1.0  0.60568  0.90820  0.58102  1.0000
  C   C3173     1.0  0.52754  0.81578  0.59418  1.0000
  C   C3174     1.0  0.52202  0.81219  0.58160  1.0000
  C   C3175     1.0  0.51128  0.79393  0.58163  1.0000
  C   C3176     1.0  0.50654  0.77880  0.59413  1.0000
  C   C3177     1.0  0.51220  0.78232  0.60670  1.0000
  C   C3178     1.0  0.52247  0.80086  0.60674  1.0000
  H   H5616     1.0  0.52574  0.82364  0.57188  1.0000
  H   H5617     1.0  0.97369  0.78503  0.50966  1.0000
  H   H5618     1.0  0.70205  0.79942  0.53198  1.0000
  H   H5619     1.0  0.52649  0.80365  0.61653  1.0000
  H   H5620     1.0  0.72208  0.72045  0.64593  1.0000
  C   C3179     1.0  0.56564  0.68291  0.70280  1.0000
  C   C3180     1.0  0.54488  0.91993  0.48201  1.0000
  H   H5621     1.0  0.65336  0.85547  0.48433  1.0000
  H   H5622     1.0  0.50843  0.77092  0.61642  1.0000
  C   C3181     1.0  0.83153  0.89882  0.57615  1.0000
  C   C3182     1.0  0.81014  0.89227  0.57947  1.0000
  C   C3183     1.0  0.79269  0.90340  0.58840  1.0000
  C   C3184     1.0  0.79648  0.92130  0.59402  1.0000
  C   C3185     1.0  0.81786  0.92786  0.59065  1.0000
  C   C3186     1.0  0.83531  0.91667  0.58179  1.0000
  H   H5623     1.0  0.80705  0.87854  0.57510  1.0000
  H   H5624     1.0  0.77629  0.89827  0.59085  1.0000
  H   H5625     1.0  0.82091  0.94174  0.59491  1.0000
  H   H5626     1.0  0.85163  0.92199  0.57923  1.0000
  C   C3187     1.0  0.95438  0.81149  0.59217  1.0000
  C   C3188     1.0  0.95341  0.79441  0.60396  1.0000
  H   H5627     1.0  0.65595  0.75883  0.64438  1.0000
  H   H5628     1.0  0.71639  0.75534  0.66550  1.0000
  H   H5629     1.0  0.65805  0.86610  0.50447  1.0000
  H   H5630     1.0  0.98912  0.86377  0.60008  1.0000
  H   H5631     1.0  0.94247  0.79745  0.61371  1.0000
  H   H5632     1.0  0.74403  0.77756  0.66063  1.0000
  H   H5633     1.0  0.51515  0.90933  0.49671  1.0000
  C   C3189     1.0  0.92959  0.87237  0.48104  1.0000
  C   C3190     1.0  0.95250  0.87159  0.48088  1.0000
  C   C3191     1.0  0.96039  0.87264  0.49333  1.0000
  C   C3192     1.0  0.94546  0.87468  0.50600  1.0000
  C   C3193     1.0  0.92249  0.87573  0.50616  1.0000
  C   C3194     1.0  0.91461  0.87440  0.49372  1.0000
  H   H5634     1.0  0.62443  0.83536  0.49920  1.0000
  H   H5635     1.0  0.88883  0.68132  0.64874  1.0000
  H   H5636     1.0  0.91086  0.87735  0.51587  1.0000
  H   H5637     1.0  0.85757  0.65495  0.69764  1.0000
  C   C3195     1.0  0.63998  0.89683  0.52152  1.0000
  H   H5638     1.0  0.96520  0.76025  0.61228  1.0000
  C   C3196     1.0  0.97937  0.93334  0.56619  1.0000
  H   H5639     1.0  0.49352  0.70501  0.54226  1.0000
  H   H5640     1.0  0.51061  0.73744  0.51832  1.0000
  C   C3197     1.0  0.96972  0.93833  0.52444  1.0000
  H   H5641     1.0  0.70634  0.96440  0.69058  1.0000
  H   H5642     1.0  0.54521  0.89882  0.51091  1.0000
  H   H5643     1.0  0.87394  0.90784  0.48215  1.0000
  H   H5644     1.0  0.94864  0.65033  0.62281  1.0000
  H   H5645     1.0  0.52595  0.70536  0.69564  1.0000
  C   C3198     1.0  0.97989  0.76566  0.53730  1.0000
  C   C3199     1.0  0.97946  0.82104  0.53983  1.0000
  H   H5646     1.0  0.57729  0.68788  0.69293  1.0000
  C   C3200     1.0  0.93528  0.81795  0.53076  1.0000
  C   C3201     1.0  0.64355  0.86056  0.51223  1.0000
  H   H5647     1.0  0.66050  0.96140  0.57802  1.0000
  C   C3202     1.0  0.98170  0.95877  0.51983  1.0000
  H   H5648     1.0  0.63721  0.82935  0.47349  1.0000
  H   H5649     1.0  0.96984  0.82362  0.49747  1.0000
  H   H5650     1.0  0.71025  0.79981  0.51306  1.0000
  H   H5651     1.0  0.50553  0.73189  0.68294  1.0000
  S   S729      1.0  0.98292  0.68492  0.61071  1.0000
  H   H5652     1.0  0.70287  0.77479  0.52448  1.0000
  C   C3203     1.0  0.49596  0.74421  0.52569  1.0000
  H   H5653     1.0  0.73287  0.97502  0.68587  1.0000
  H   H5654     1.0  0.60717  0.80948  0.51831  1.0000
  C   C3204     1.0  0.51735  0.66355  0.55683  1.0000
  S   S730      1.0  0.51315  0.66895  0.63405  1.0000
  H   H5655     1.0  0.61173  0.84168  0.52656  1.0000
  H   H5656     1.0  0.97861  0.96640  0.50902  1.0000
  N   N175      1.0  0.64527  0.83549  0.51467  1.0000
  C   C3205     1.0  0.59674  0.86565  0.47847  1.0000
  H   H5657     1.0  0.73128  0.69133  0.71341  1.0000
  H   H5658     1.0  0.49199  0.69634  0.66897  1.0000
  H   H5659     1.0  0.65779  0.86582  0.53036  1.0000
  H   H5660     1.0  0.95162  0.82055  0.47778  1.0000
  C   C3206     1.0  0.92653  0.66846  0.60867  1.0000
  C   C3207     1.0  0.92276  0.66487  0.64951  1.0000
  C   C3208     1.0  0.81847  0.70310  0.66840  1.0000
  H   H5661     1.0  0.88060  0.92037  0.62096  1.0000
  H   H5662     1.0  0.51341  0.71539  0.57972  1.0000
  H   H5663     1.0  0.63901  0.90429  0.53117  1.0000
  C   C3209     1.0  0.74813  0.73213  0.66291  1.0000
  H   H5664     1.0  0.62440  0.90351  0.51695  1.0000
  H   H5665     1.0  0.75709  0.79806  0.68369  1.0000
  H   H5666     1.0  0.66088  0.80822  0.47704  1.0000
  H   H5667     1.0  0.94446  0.78485  0.51336  1.0000
  C   C3210     1.0  0.69890  0.79325  0.52266  1.0000
  H   H5668     1.0  0.90392  0.67056  0.68161  1.0000
  H   H5669     1.0  0.52521  0.92033  0.51810  1.0000
  H   H5670     1.0  0.64339  0.81062  0.50204  1.0000
  C   C3211     1.0  0.81506  0.67111  0.70777  1.0000
  C   C3212     1.0  0.61806  0.80672  0.52660  1.0000
  H   H5671     1.0  0.60629  0.89257  0.48595  1.0000
  H   H5672     1.0  0.63897  0.95281  0.64919  1.0000
  C   C3213     1.0  0.51556  0.72084  0.56806  1.0000
  C   C3214     1.0  0.95496  0.81491  0.50000  1.0000
  H   H5673     1.0  0.87721  0.82101  0.53318  1.0000
  C   C3215     1.0  0.64237  0.75413  0.64003  1.0000
  S   S731      1.0  0.78389  0.65168  0.66126  1.0000
  H   H5674     1.0  0.97210  0.93020  0.53537  1.0000
  H   H5675     1.0  0.54047  0.68563  0.55664  1.0000
  H   H5676     1.0  0.97462  0.91695  0.56965  1.0000
  C   C3216     1.0  0.96638  0.77332  0.60319  1.0000
  H   H5677     1.0  0.81672  0.66905  0.69653  1.0000
  C   C3217     1.0  0.85821  0.91906  0.48006  1.0000
  H   H5678     1.0  0.54504  0.72540  0.55138  1.0000
  H   H5679     1.0  0.95144  0.94342  0.52437  1.0000
  H   H5680     1.0  0.82510  0.70758  0.67715  1.0000
  C   C3218     1.0  0.50315  0.97852  0.55349  1.0000
  C   C3219     1.0  0.62692  0.82870  0.52666  1.0000
  H   H5681     1.0  0.52557  0.64835  0.68636  1.0000
  H   H5682     1.0  0.66982  0.83084  0.52860  1.0000
  C   C3220     1.0  0.74861  0.75556  0.68095  1.0000
  H   H5683     1.0  0.50775  0.65899  0.67358  1.0000
  H   H5684     1.0  0.93569  0.83478  0.52433  1.0000
  H   H5685     1.0  0.77157  0.77492  0.66511  1.0000
  H   H5686     1.0  0.51751  0.93851  0.49482  1.0000
  H   H5687     1.0  0.78811  0.74016  0.66368  1.0000
  H   H5688     1.0  0.74827  0.81216  0.66720  1.0000
  H   H5689     1.0  0.50545  0.86300  0.48056  1.0000
  H   H5690     1.0  0.97611  0.92607  0.51710  1.0000
  C   C3221     1.0  0.53585  0.87818  0.47314  1.0000
  H   H5691     1.0  0.54421  0.69807  0.68041  1.0000
  C   C3222     1.0  0.95307  0.80633  0.48664  1.0000
  H   H5692     1.0  0.83957  0.69320  0.70322  1.0000
  C   C3223     1.0  0.58525  0.84734  0.48220  1.0000
  S   S732      1.0  0.68149  0.97817  0.64820  1.0000
  C   C3224     1.0  0.67440  0.80031  0.52062  1.0000
  H   H5693     1.0  0.68145  0.83323  0.51049  1.0000
  C   C3225     1.0  0.66815  0.82593  0.51849  1.0000
  H   H5694     1.0  0.91240  0.80948  0.51834  1.0000
  H   H5695     1.0  0.73025  0.75770  0.68500  1.0000
  C   C3226     1.0  0.75755  0.65859  0.67146  1.0000
  C   C3227     1.0  0.54047  0.72403  0.56306  1.0000
  C   C3228     1.0  0.53243  0.69127  0.68968  1.0000
  H   H5696     1.0  0.82376  0.71410  0.65833  1.0000
  H   H5697     1.0  0.63342  0.96843  0.57249  1.0000
  H   H5698     1.0  0.53543  0.75998  0.56239  1.0000
  C   C3229     1.0  0.64240  0.87149  0.52549  1.0000
  H   H5699     1.0  0.71316  0.72677  0.67127  1.0000
  H   H5700     1.0  0.55370  0.65867  0.69435  1.0000
  C   C3230     1.0  0.50341  0.94726  0.57265  1.0000
  H   H5701     1.0  0.62945  0.74863  0.64903  1.0000
  C   C3231     1.0  0.89940  0.66565  0.65140  1.0000
  H   H5702     1.0  0.64958  0.74010  0.63415  1.0000
  H   H5703     1.0  0.75929  0.67746  0.70797  1.0000
  H   H5704     1.0  0.97240  0.76144  0.64594  1.0000
  H   H5705     1.0  0.80073  0.68429  0.71007  1.0000
  H   H5706     1.0  0.69776  0.74089  0.64946  1.0000
  N   N176      1.0  0.85039  0.85852  0.61407  1.0000
  C   C3232     1.0  0.86559  0.87603  0.60910  1.0000
  C   C3233     1.0  0.85130  0.84532  0.60235  1.0000
  C   C3234     1.0  0.82668  0.87045  0.61735  1.0000
  C   C3235     1.0  0.85600  0.84348  0.62748  1.0000
  C   C3236     1.0  0.87993  0.83007  0.62684  1.0000
  C   C3237     1.0  0.86496  0.89236  0.61947  1.0000
  C   C3238     1.0  0.80750  0.85633  0.61925  1.0000
  C   C3239     1.0  0.87435  0.84009  0.59285  1.0000
  C   C3240     1.0  0.87350  0.82349  0.58327  1.0000
  C   C3241     1.0  0.88466  0.81907  0.64164  1.0000
  C   C3242     1.0  0.88141  0.90887  0.61337  1.0000
  C   C3243     1.0  0.78492  0.86903  0.62509  1.0000
  H   H5707     1.0  0.86134  0.88620  0.59896  1.0000
  H   H5708     1.0  0.88334  0.86846  0.60648  1.0000
  H   H5709     1.0  0.84471  0.82939  0.60679  1.0000
  H   H5710     1.0  0.84009  0.85464  0.59472  1.0000
  H   H5711     1.0  0.82329  0.88477  0.60880  1.0000
  H   H5712     1.0  0.82445  0.87780  0.62720  1.0000
  H   H5713     1.0  0.85293  0.85313  0.63637  1.0000
  H   H5714     1.0  0.84449  0.83089  0.63094  1.0000
  H   H5715     1.0  0.89309  0.84061  0.62214  1.0000
  H   H5716     1.0  0.88152  0.81644  0.62062  1.0000
  H   H5717     1.0  0.84808  0.90233  0.62144  1.0000
  H   H5718     1.0  0.86962  0.88325  0.62972  1.0000
  H   H5719     1.0  0.81048  0.84051  0.62664  1.0000
  H   H5720     1.0  0.80588  0.85229  0.60889  1.0000
  H   H5721     1.0  0.87890  0.85554  0.58589  1.0000
  H   H5722     1.0  0.88815  0.83328  0.59895  1.0000
  H   H5723     1.0  0.89020  0.81997  0.57671  1.0000
  H   H5724     1.0  0.86911  0.80757  0.58970  1.0000
  H   H5725     1.0  0.86101  0.83052  0.57607  1.0000
  H   H5726     1.0  0.88409  0.83188  0.64833  1.0000
  H   H5727     1.0  0.87225  0.80782  0.64683  1.0000
  H   H5728     1.0  0.90167  0.80904  0.64079  1.0000
  H   H5729     1.0  0.94425  0.77219  0.53771  1.0000
  H   H5730     1.0  0.62364  0.97240  0.61912  1.0000
  C   C3244     1.0  0.96351  0.95135  0.56185  1.0000
  H   H5731     1.0  0.78097  0.88510  0.61805  1.0000
  H   H5732     1.0  0.77137  0.85901  0.62580  1.0000
  H   H5733     1.0  0.78509  0.87242  0.63586  1.0000
  C   C3245     1.0  0.89272  0.82630  0.53481  1.0000
  C   C3246     1.0  0.52352  0.68308  0.56251  1.0000
  C   C3247     1.0  0.60404  0.79889  0.54081  1.0000
  C   C3248     1.0  0.53787  0.91665  0.50878  1.0000
  C   C3249     1.0  0.59738  0.87840  0.48879  1.0000
  C   C3250     1.0  0.50607  0.71298  0.54563  1.0000
  H   H5734     1.0  0.49288  0.93962  0.48103  1.0000
  H   H5735     1.0  0.61411  0.79582  0.54952  1.0000
  H   H5736     1.0  0.58910  0.81148  0.54313  1.0000
  H   H5737     1.0  0.59808  0.78318  0.54038  1.0000
  N   N177      1.0  0.75646  0.73314  0.67635  1.0000
  C   C3251     1.0  0.74741  0.71560  0.68794  1.0000
  C   C3252     1.0  0.78180  0.72914  0.67352  1.0000
  C   C3253     1.0  0.79293  0.70502  0.67165  1.0000
  C   C3254     1.0  0.75515  0.71360  0.70245  1.0000
  H   H5738     1.0  0.95346  0.78674  0.54889  1.0000
  H   H5739     1.0  0.72376  0.74989  0.64045  1.0000
  H   H5740     1.0  0.75656  0.75663  0.69011  1.0000
  H   H5741     1.0  0.72880  0.71883  0.69015  1.0000
  H   H5742     1.0  0.75139  0.69908  0.68446  1.0000
  H   H5743     1.0  0.78883  0.73394  0.68202  1.0000
  H   H5744     1.0  0.78733  0.69978  0.66279  1.0000
  H   H5745     1.0  0.78880  0.69296  0.68141  1.0000
  H   H5746     1.0  0.77342  0.71334  0.70134  1.0000
  H   H5747     1.0  0.74654  0.72796  0.70770  1.0000
  H   H5748     1.0  0.97370  0.97087  0.52706  1.0000
  H   H5749     1.0  0.58477  0.83736  0.47430  1.0000
  C   C3255     1.0  0.95749  0.78203  0.53809  1.0000
  H   H5750     1.0  0.89537  0.70503  0.66472  1.0000
  S   S733      1.0  0.98502  0.72181  0.63062  1.0000
  C   C3256     1.0  0.54173  0.66424  0.66602  1.0000
  H   H5751     1.0  0.49185  0.98024  0.47283  1.0000
  H   H5752     1.0  0.51766  0.70642  0.66507  1.0000
  H   H5753     1.0  0.61427  0.96734  0.65854  1.0000
  H   H5754     1.0  0.62779  0.86758  0.53363  1.0000
  H   H5755     1.0  0.75283  0.71510  0.66020  1.0000
  Fe  Fe367     1.0  0.50767  0.67459  0.61139  1.0000
  H   H5756     1.0  0.90920  0.70989  0.67826  1.0000
  H   H5757     1.0  0.50773  0.90364  0.47656  1.0000
  C   C3257     1.0  0.72246  0.73831  0.66315  1.0000
  H   H5758     1.0  0.89884  0.89997  0.61146  1.0000
  C   C3258     1.0  0.71626  0.73728  0.64884  1.0000
  S   S734      1.0  0.49327  0.75590  0.59375  1.0000
  C   C3259     1.0  0.73268  0.65657  0.69405  1.0000
  H   H5759     1.0  0.89356  0.84345  0.52891  1.0000
  N   N178      1.0  0.59818  0.78726  0.61696  1.0000
  C   C3260     1.0  0.61445  0.76794  0.62287  1.0000
  C   C3261     1.0  0.58551  0.77919  0.60756  1.0000
  C   C3262     1.0  0.61172  0.80428  0.60767  1.0000
  C   C3263     1.0  0.58225  0.79832  0.62833  1.0000
  C   C3264     1.0  0.57541  0.78335  0.64266  1.0000
  C   C3265     1.0  0.63213  0.77417  0.63027  1.0000
  C   C3266     1.0  0.59815  0.82483  0.59959  1.0000
  C   C3267     1.0  0.57110  0.76074  0.61467  1.0000
  C   C3268     1.0  0.56360  0.75064  0.60353  1.0000
  C   C3269     1.0  0.55752  0.79629  0.65246  1.0000
  C   C3270     1.0  0.61252  0.84316  0.59332  1.0000
  H   H5760     1.0  0.62388  0.75871  0.61427  1.0000
  H   H5761     1.0  0.60558  0.75539  0.63049  1.0000
  H   H5762     1.0  0.57361  0.79311  0.60279  1.0000
  H   H5763     1.0  0.59744  0.77312  0.59847  1.0000
  H   H5764     1.0  0.62454  0.79636  0.59965  1.0000
  H   H5765     1.0  0.62122  0.81102  0.61412  1.0000
  H   H5766     1.0  0.58952  0.81188  0.63106  1.0000
  H   H5767     1.0  0.56654  0.80676  0.62425  1.0000
  H   H5768     1.0  0.58999  0.77716  0.64829  1.0000
  H   H5769     1.0  0.56867  0.76878  0.64114  1.0000
  H   H5770     1.0  0.64596  0.78028  0.62218  1.0000
  H   H5771     1.0  0.62467  0.78753  0.63661  1.0000
  H   H5772     1.0  0.58343  0.83205  0.60667  1.0000
  H   H5773     1.0  0.59218  0.82010  0.59066  1.0000
  H   H5774     1.0  0.58015  0.74680  0.62133  1.0000
  H   H5775     1.0  0.55579  0.76796  0.62132  1.0000
  H   H5776     1.0  0.55095  0.73972  0.60881  1.0000
  H   H5777     1.0  0.55598  0.76383  0.59564  1.0000
  H   H5778     1.0  0.57807  0.74042  0.59793  1.0000
  H   H5779     1.0  0.54190  0.80171  0.64776  1.0000
  H   H5780     1.0  0.55360  0.78547  0.66283  1.0000
  H   H5781     1.0  0.56364  0.81108  0.65438  1.0000
  H   H5782     1.0  0.61851  0.84915  0.60177  1.0000
  H   H5783     1.0  0.62714  0.83709  0.58567  1.0000
  H   H5784     1.0  0.60231  0.85750  0.58759  1.0000
  Fe  Fe368     1.0  0.97096  0.68988  0.63334  1.0000
  C   C3271     1.0  0.97887  0.74629  0.54968  1.0000
  C   C3272     1.0  0.98077  0.76923  0.59069  1.0000
  H   H5785     1.0  0.93987  0.82731  0.50225  1.0000
  N   N179      1.0  0.62952  0.87339  0.64771  1.0000
  C   C3273     1.0  0.60826  0.88025  0.64134  1.0000
  C   C3274     1.0  0.62829  0.85154  0.65767  1.0000
  C   C3275     1.0  0.63058  0.89070  0.65655  1.0000
  C   C3276     1.0  0.65037  0.87193  0.63664  1.0000
  C   C3277     1.0  0.64869  0.86374  0.62282  1.0000
  C   C3278     1.0  0.60510  0.90426  0.63293  1.0000
  C   C3279     1.0  0.64989  0.88547  0.66548  1.0000
  C   C3280     1.0  0.62487  0.83135  0.65151  1.0000
  C   C3281     1.0  0.61930  0.81231  0.66350  1.0000
  C   C3282     1.0  0.67186  0.85857  0.61409  1.0000
  C   C3283     1.0  0.58694  0.90752  0.62364  1.0000
  C   C3284     1.0  0.65026  0.90470  0.67316  1.0000
  H   H5786     1.0  0.59336  0.87889  0.64983  1.0000
  H   H5787     1.0  0.60698  0.86881  0.63417  1.0000
  H   H5788     1.0  0.64409  0.84578  0.66217  1.0000
  H   H5789     1.0  0.61466  0.85391  0.66686  1.0000
  H   H5790     1.0  0.61453  0.89360  0.66398  1.0000
  H   H5791     1.0  0.63265  0.90700  0.64965  1.0000
  H   H5792     1.0  0.65609  0.88849  0.63312  1.0000
  H   H5793     1.0  0.66446  0.86110  0.64135  1.0000
  H   H5794     1.0  0.63862  0.87684  0.61615  1.0000
  H   H5795     1.0  0.64065  0.84864  0.62488  1.0000
  H   H5796     1.0  0.59987  0.91644  0.64039  1.0000
  H   H5797     1.0  0.62089  0.90828  0.62605  1.0000
  H   H5798     1.0  0.66631  0.88239  0.65859  1.0000
  H   H5799     1.0  0.64796  0.87070  0.67383  1.0000
  H   H5800     1.0  0.61102  0.83521  0.64522  1.0000
  H   H5801     1.0  0.64068  0.82509  0.64486  1.0000
  H   H5802     1.0  0.63231  0.80831  0.67047  1.0000
  H   H5803     1.0  0.60271  0.81690  0.66993  1.0000
  H   H5804     1.0  0.61885  0.79712  0.65917  1.0000
  H   H5805     1.0  0.67010  0.85449  0.60377  1.0000
  H   H5806     1.0  0.68088  0.87316  0.61200  1.0000
  H   H5807     1.0  0.68195  0.84411  0.61976  1.0000
  H   H5808     1.0  0.58435  0.92510  0.61828  1.0000
  H   H5809     1.0  0.59205  0.89668  0.61535  1.0000
  H   H5810     1.0  0.57080  0.90361  0.63015  1.0000
  H   H5811     1.0  0.65237  0.92024  0.66554  1.0000
  H   H5812     1.0  0.63452  0.90756  0.68078  1.0000
  H   H5813     1.0  0.66462  0.90057  0.67911  1.0000
  H   H5814     1.0  0.87925  0.71872  0.67888  1.0000
  C   C3285     1.0  0.54628  0.67347  0.69943  1.0000
  H   H5815     1.0  0.72866  0.79899  0.68095  1.0000
  H   H5816     1.0  0.65089  0.96564  0.62376  1.0000
  H   H5817     1.0  0.50512  0.73747  0.56676  1.0000
  H   H5818     1.0  0.53563  0.66801  0.70960  1.0000
  H   H5819     1.0  0.63165  0.79296  0.52427  1.0000
  H   H5820     1.0  0.89162  0.82643  0.54631  1.0000
  H   H5821     1.0  0.55719  0.90463  0.48410  1.0000
  N   N180      1.0  0.50737  0.70468  0.56114  1.0000
  C   C3286     1.0  0.64191  0.82890  0.50114  1.0000
  C   C3287     1.0  0.75347  0.77605  0.66951  1.0000
  H   H5822     1.0  0.55161  0.64809  0.55004  1.0000
  H   H5823     1.0  0.87407  0.67885  0.68172  1.0000
  C   C3288     1.0  0.91319  0.81020  0.52952  1.0000
  C   C3289     1.0  0.74645  0.79758  0.67576  1.0000
  H   H5824     1.0  0.55635  0.66891  0.66926  1.0000
  C   C3290     1.0  0.88631  0.68334  0.70085  1.0000
  H   H5825     1.0  0.91164  0.79352  0.53589  1.0000
  H   H5826     1.0  0.54130  0.74375  0.57917  1.0000
  H   H5827     1.0  0.97462  0.83029  0.51814  1.0000
  H   H5828     1.0  0.55118  0.92711  0.50771  1.0000
  C   C3291     1.0  0.85658  0.65881  0.70842  1.0000
  H   H5829     1.0  0.82584  0.68565  0.66720  1.0000
  S   S735      1.0  0.93428  0.68973  0.64306  1.0000
  H   H5830     1.0  0.65465  0.90185  0.51377  1.0000
  C   C3292     1.0  0.54541  0.74479  0.56748  1.0000
  H   H5831     1.0  0.62849  0.86832  0.50738  1.0000
  C   C3293     1.0  0.50065  0.73857  0.54094  1.0000
  H   H5832     1.0  0.66407  0.79277  0.53036  1.0000
  H   H5833     1.0  0.98137  0.80626  0.54816  1.0000
  H   H5834     1.0  0.56346  0.74622  0.56418  1.0000
  C   C3294     1.0  0.52145  0.66305  0.67821  1.0000
  C   C3295     1.0  0.74944  0.69229  0.71226  1.0000
  H   H5835     1.0  0.93993  0.67541  0.60061  1.0000
  H   H5836     1.0  0.55152  0.70953  0.56802  1.0000
  H   H5837     1.0  0.87467  0.69869  0.70312  1.0000
  H   H5838     1.0  0.93374  0.82065  0.54188  1.0000
  H   H5839     1.0  0.49272  0.76257  0.52252  1.0000
  C   C3296     1.0  0.96984  0.97259  0.55748  1.0000
  H   H5840     1.0  0.52228  0.70772  0.53892  1.0000
  C   C3297     1.0  0.98583  0.76424  0.65129  1.0000
  H   H5841     1.0  0.97989  0.97012  0.59144  1.0000
  C   C3298     1.0  0.95743  0.79558  0.51268  1.0000
  C   C3299     1.0  0.83644  0.67762  0.71056  1.0000
  N   N181      1.0  0.95665  0.80251  0.52682  1.0000
  H   H5842     1.0  0.50219  0.65755  0.56341  1.0000
  N   N182      1.0  0.51349  0.68377  0.68488  1.0000
  H   H5843     1.0  0.91945  0.68074  0.61592  1.0000
  H   H5844     1.0  0.51511  0.74672  0.54137  1.0000
  H   H5845     1.0  0.62919  0.96674  0.59792  1.0000
  C   C3300     1.0  0.71503  0.97827  0.68436  1.0000
  C   C3301     1.0  0.49817  0.97789  0.51273  1.0000
  H   H5846     1.0  0.71450  0.97872  0.67298  1.0000
  H   H5847     1.0  0.53985  0.87587  0.48402  1.0000
  H   H5848     1.0  0.55926  0.69768  0.70814  1.0000
  H   H5849     1.0  0.90281  0.68607  0.70271  1.0000
  H   H5850     1.0  0.84543  0.91694  0.48974  1.0000
  H   H5851     1.0  0.72967  0.65008  0.70527  1.0000
  H   H5852     1.0  0.50672  0.79149  0.57190  1.0000
  H   H5853     1.0  0.97595  0.75247  0.55997  1.0000
  H   H5854     1.0  0.52563  0.67717  0.57382  1.0000
  C   C3302     1.0  0.88916  0.68286  0.68478  1.0000
  C   C3303     1.0  0.50420  0.70212  0.67398  1.0000
  Fe  Fe369     1.0  0.49867  0.72498  0.61016  1.0000
  H   H5855     1.0  0.67547  0.83312  0.48884  1.0000
  H   H5856     1.0  0.86143  0.93658  0.47783  1.0000
  C   C3304     1.0  0.89348  0.70554  0.67621  1.0000
  H   H5857     1.0  0.93789  0.79818  0.48835  1.0000
  H   H5858     1.0  0.96978  0.82064  0.57063  1.0000
  N   N183      1.0  0.87882  0.66323  0.71081  1.0000
  H   H5859     1.0  0.61182  0.95360  0.64425  1.0000
  H   H5860     1.0  0.53053  0.84385  0.47606  1.0000
  C   C3305     1.0  0.49310  0.72423  0.67932  1.0000
  H   H5861     1.0  0.97996  0.77923  0.65646  1.0000
  H   H5862     1.0  0.91294  0.66595  0.60335  1.0000
  H   H5863     1.0  0.96490  0.83299  0.54375  1.0000
  H   H5864     1.0  0.81137  0.65532  0.71472  1.0000
  C   C3306     1.0  0.75348  0.65025  0.68594  1.0000
  C   C3307     1.0  0.64596  0.97486  0.57686  1.0000
  H   H5865     1.0  0.50234  0.66377  0.70486  1.0000
  H   H5866     1.0  0.96527  0.73680  0.54949  1.0000
  H   H5867     1.0  0.49111  0.93947  0.53309  1.0000
  H   H5868     1.0  0.49722  0.74566  0.65874  1.0000
  H   H5869     1.0  0.98349  0.75860  0.52733  1.0000
  H   H5870     1.0  0.90795  0.97109  0.59437  1.0000
  H   H5871     1.0  0.68425  0.65226  0.67651  1.0000
  C   C3308     1.0  0.62249  0.96321  0.64798  1.0000
  H   H5872     1.0  0.66705  0.97592  0.59929  1.0000
  H   H5873     1.0  0.96819  0.79436  0.48353  1.0000
  C   C3309     1.0  0.97629  0.81454  0.52582  1.0000
  H   H5874     1.0  0.98640  0.82881  0.61635  1.0000
  C   C3310     1.0  0.49581  0.67869  0.69759  1.0000
  H   H5875     1.0  0.49085  0.90020  0.54267  1.0000
  H   H5876     1.0  0.98900  0.78333  0.62365  1.0000
  C   C3311     1.0  0.63657  0.97949  0.62261  1.0000
  H   H5877     1.0  0.98836  0.84219  0.59026  1.0000
  H   H5878     1.0  0.49183  0.69241  0.70399  1.0000
  C   C3312     1.0  0.65501  0.82643  0.47507  1.0000
  H   H5879     1.0  0.49102  0.90389  0.52386  1.0000
  H   H5880     1.0  0.91351  0.64747  0.70738  1.0000
  H   H5881     1.0  0.98917  0.74959  0.65961  1.0000
  C   C3313     1.0  0.52130  0.86074  0.47295  1.0000
  H   H5882     1.0  0.97540  0.91632  0.90997  1.0000
  C   C3314     1.0  0.51131  0.94321  0.92581  1.0000
  N   N184      1.0  0.96644  0.88480  0.90833  1.0000
  H   H5883     1.0  0.61251  0.97375  0.95708  1.0000
  H   H5884     1.0  0.68705  0.88573  0.88494  1.0000
  H   H5885     1.0  0.57731  0.68958  0.89578  1.0000
  Fe  Fe370     1.0  0.75290  0.92360  0.86507  1.0000
  S   S736      1.0  0.75639  0.88935  0.85842  1.0000
  S   S737      1.0  0.75535  0.92430  0.88775  1.0000
  Fe  Fe371     1.0  0.68936  0.81959  0.81947  1.0000
  S   S738      1.0  0.67977  0.78956  0.83504  1.0000
  S   S739      1.0  0.69335  0.85295  0.82520  1.0000
  Fe  Fe372     1.0  0.68317  0.79883  0.79397  1.0000
  S   S740      1.0  0.67333  0.76763  0.80776  1.0000
  S   S741      1.0  0.68547  0.80552  0.76992  1.0000
  Fe  Fe373     1.0  0.65241  0.79002  0.82248  1.0000
  S   S742      1.0  0.61562  0.78949  0.83207  1.0000
  Fe  Fe374     1.0  0.70159  0.76966  0.81900  1.0000
  S   S743      1.0  0.72411  0.73769  0.82593  1.0000
  S   S744      1.0  0.66038  0.82138  0.80787  1.0000
  S   S745      1.0  0.71304  0.79952  0.80420  1.0000
  C   C3315     1.0  0.70400  0.70507  0.80510  1.0000
  H   H5886     1.0  0.69228  0.71288  0.78512  1.0000
  H   H5887     1.0  0.81451  0.91631  0.84120  1.0000
  C   C3316     1.0  0.98730  0.73235  0.82332  1.0000
  C   C3317     1.0  0.97114  0.86809  0.89831  1.0000
  H   H5888     1.0  0.76158  0.78992  0.75438  1.0000
  H   H5889     1.0  0.52929  0.85411  0.91274  1.0000
  Fe  Fe375     1.0  0.83869  0.67684  0.79606  1.0000
  S   S746      1.0  0.81928  0.71094  0.79001  1.0000
  C   C3318     1.0  0.70869  0.70921  0.78893  1.0000
  S   S747      1.0  0.87464  0.66941  0.78571  1.0000
  C   C3319     1.0  0.60120  0.68772  0.86961  1.0000
  H   H5890     1.0  0.71755  0.69350  0.78547  1.0000
  S   S748      1.0  0.94841  0.73156  0.88455  1.0000
  C   C3320     1.0  0.98725  0.75712  0.82309  1.0000
  Fe  Fe376     1.0  0.96026  0.72403  0.86240  1.0000
  S   S749      1.0  0.93507  0.72811  0.84708  1.0000
  H   H5891     1.0  0.69922  0.73341  0.76202  1.0000
  Fe  Fe377     1.0  0.77797  0.95042  0.88001  1.0000
  Fe  Fe378     1.0  0.72701  0.95271  0.88649  1.0000
  H   H5892     1.0  0.58362  0.90907  0.86145  1.0000
  C   C3321     1.0  0.60321  0.95556  0.89575  1.0000
  C   C3322     1.0  0.59334  0.92319  0.85886  1.0000
  C   C3323     1.0  0.64527  0.96337  0.87430  1.0000
  S   S750      1.0  0.51391  0.67440  0.85123  1.0000
  Fe  Fe379     1.0  0.52588  0.70759  0.84757  1.0000
  S   S751      1.0  0.56242  0.70865  0.83753  1.0000
  S   S752      1.0  0.51199  0.71410  0.86971  1.0000
  C   C3324     1.0  0.69352  0.90189  0.88194  1.0000
  H   H5893     1.0  0.70683  0.90158  0.88829  1.0000
  H   H5894     1.0  0.93151  0.67976  0.87049  1.0000
  C   C3325     1.0  0.65591  0.96272  0.91569  1.0000
  C   C3326     1.0  0.82031  0.96811  0.89583  1.0000
  H   H5895     1.0  0.81383  0.67333  0.84301  1.0000
  H   H5896     1.0  0.78423  0.66498  0.76991  1.0000
  C   C3327     1.0  0.90766  0.91407  0.92453  1.0000
  H   H5897     1.0  0.98309  0.67261  0.78918  1.0000
  H   H5898     1.0  0.65646  0.94657  0.92237  1.0000
  C   C3328     1.0  0.91740  0.67362  0.82639  1.0000
  C   C3329     1.0  0.93564  0.66897  0.83387  1.0000
  C   C3330     1.0  0.94106  0.68528  0.84044  1.0000
  C   C3331     1.0  0.92854  0.70664  0.83940  1.0000
  C   C3332     1.0  0.91043  0.71133  0.83180  1.0000
  C   C3333     1.0  0.90473  0.69487  0.82548  1.0000
  H   H5899     1.0  0.51483  0.90896  0.93606  1.0000
  H   H5900     1.0  0.95493  0.68132  0.84629  1.0000
  H   H5901     1.0  0.90086  0.72786  0.83075  1.0000
  H   H5902     1.0  0.89083  0.69864  0.81965  1.0000
  H   H5903     1.0  0.52894  0.89067  0.90960  1.0000
  H   H5904     1.0  0.88804  0.65638  0.86912  1.0000
  C   C3334     1.0  0.95214  0.95269  0.93541  1.0000
  C   C3335     1.0  0.95902  0.93271  0.94408  1.0000
  N   N185      1.0  0.98562  0.97778  0.97120  1.0000
  H   H5905     1.0  0.62001  0.92128  0.89584  1.0000
  H   H5906     1.0  0.56012  0.69933  0.88234  1.0000
  H   H5907     1.0  0.94712  0.92562  0.95267  1.0000
  H   H5908     1.0  0.60211  0.65574  0.89598  1.0000
  H   H5909     1.0  0.60135  0.94684  0.91875  1.0000
  C   C3336     1.0  0.75019  0.73031  0.81553  1.0000
  C   C3337     1.0  0.76129  0.70835  0.81791  1.0000
  C   C3338     1.0  0.78232  0.70204  0.80995  1.0000
  C   C3339     1.0  0.79246  0.71781  0.79968  1.0000
  C   C3340     1.0  0.78139  0.73974  0.79729  1.0000
  C   C3341     1.0  0.76027  0.74598  0.80514  1.0000
  H   H5910     1.0  0.75358  0.69616  0.82597  1.0000
  H   H5911     1.0  0.79078  0.68508  0.81189  1.0000
  H   H5912     1.0  0.78933  0.75205  0.78947  1.0000
  H   H5913     1.0  0.75202  0.76300  0.80339  1.0000
  C   C3342     1.0  0.67438  0.79005  0.76009  1.0000
  C   C3343     1.0  0.67506  0.79696  0.74541  1.0000
  C   C3344     1.0  0.66590  0.78525  0.73737  1.0000
  C   C3345     1.0  0.65580  0.76663  0.74400  1.0000
  C   C3346     1.0  0.65591  0.75926  0.75858  1.0000
  C   C3347     1.0  0.66537  0.77077  0.76655  1.0000
  H   H5914     1.0  0.68230  0.81171  0.74028  1.0000
  H   H5915     1.0  0.64845  0.74465  0.76373  1.0000
  H   H5916     1.0  0.66568  0.76486  0.77770  1.0000
  C   C3348     1.0  0.60144  0.76617  0.83500  1.0000
  C   C3349     1.0  0.57805  0.76912  0.83917  1.0000
  C   C3350     1.0  0.56592  0.75136  0.84065  1.0000
  C   C3351     1.0  0.57711  0.73057  0.83775  1.0000
  C   C3352     1.0  0.60057  0.72743  0.83399  1.0000
  C   C3353     1.0  0.61273  0.74508  0.83280  1.0000
  H   H5917     1.0  0.56921  0.78534  0.84101  1.0000
  H   H5918     1.0  0.54787  0.75397  0.84357  1.0000
  H   H5919     1.0  0.60933  0.71136  0.83178  1.0000
  H   H5920     1.0  0.63076  0.74257  0.82977  1.0000
  H   H5921     1.0  0.79413  0.69019  0.77085  1.0000
  C   C3354     1.0  0.73847  0.87944  0.84934  1.0000
  C   C3355     1.0  0.72098  0.89353  0.84334  1.0000
  C   C3356     1.0  0.70741  0.88504  0.83610  1.0000
  C   C3357     1.0  0.71105  0.86238  0.83469  1.0000
  C   C3358     1.0  0.72852  0.84825  0.84071  1.0000
  C   C3359     1.0  0.74214  0.85676  0.84795  1.0000
  H   H5922     1.0  0.71806  0.91104  0.84413  1.0000
  H   H5923     1.0  0.69407  0.89617  0.83142  1.0000
  H   H5924     1.0  0.73158  0.83081  0.83973  1.0000
  H   H5925     1.0  0.75563  0.84568  0.85248  1.0000
  H   H5926     1.0  0.49261  0.83784  0.89008  1.0000
  H   H5927     1.0  0.61465  0.67923  0.86224  1.0000
  C   C3360     1.0  0.53465  0.85149  0.88400  1.0000
  C   C3361     1.0  0.53400  0.83040  0.87767  1.0000
  C   C3362     1.0  0.51817  0.82385  0.91239  1.0000
  H   H5928     1.0  0.86614  0.65596  0.73330  1.0000
  C   C3363     1.0  0.55695  0.82213  0.86962  1.0000
  H   H5929     1.0  0.53868  0.86457  0.87471  1.0000
  H   H5930     1.0  0.54949  0.84802  0.88954  1.0000
  H   H5931     1.0  0.52197  0.83409  0.87006  1.0000
  H   H5932     1.0  0.52888  0.81649  0.88589  1.0000
  S   S753      1.0  0.91154  0.65252  0.81814  1.0000
  H   H5933     1.0  0.53561  0.81692  0.90819  1.0000
  H   H5934     1.0  0.60411  0.92229  0.84837  1.0000
  C   C3364     1.0  0.51420  0.81574  0.92838  1.0000
  H   H5935     1.0  0.55590  0.80731  0.86503  1.0000
  H   H5936     1.0  0.56255  0.83522  0.86080  1.0000
  H   H5937     1.0  0.56961  0.81723  0.87685  1.0000
  C   C3365     1.0  0.91111  0.65550  0.88318  1.0000
  H   H5938     1.0  0.66843  0.91877  0.89627  1.0000
  H   H5939     1.0  0.65099  0.96936  0.85094  1.0000
  S   S754      1.0  0.95251  0.67661  0.90934  1.0000
  H   H5940     1.0  0.54536  0.92307  0.89716  1.0000
  C   C3366     1.0  0.67476  0.92118  0.88472  1.0000
  S   S755      1.0  0.77828  0.94707  0.85738  1.0000
  Fe  Fe380     1.0  0.49777  0.68208  0.87261  1.0000
  C   C3367     1.0  0.91610  0.67935  0.87852  1.0000
  H   H5941     1.0  0.97868  0.69674  0.81584  1.0000
  H   H5942     1.0  0.89979  0.89881  0.92864  1.0000
  H   H5943     1.0  0.88616  0.69607  0.74297  1.0000
  H   H5944     1.0  0.70116  0.90399  0.87058  1.0000
  H   H5945     1.0  0.56184  0.67948  0.86345  1.0000
  C   C3368     1.0  0.72236  0.73040  0.74272  1.0000
  C   C3369     1.0  0.98947  0.95098  0.92180  1.0000
  H   H5946     1.0  0.93574  0.90180  0.90103  1.0000
  H   H5947     1.0  0.97457  0.88601  0.92886  1.0000
  H   H5948     1.0  0.98277  0.72433  0.83446  1.0000
  C   C3370     1.0  0.62146  0.94128  0.86706  1.0000
  C   C3371     1.0  0.53331  0.68606  0.90637  1.0000
  H   H5949     1.0  0.74741  0.68583  0.76555  1.0000
  C   C3372     1.0  0.89242  0.67798  0.74534  1.0000
  H   H5950     1.0  0.49639  0.89183  0.89903  1.0000
  H   H5951     1.0  0.90190  0.69041  0.87403  1.0000
  H   H5952     1.0  0.91899  0.68589  0.88777  1.0000
  H   H5953     1.0  0.60956  0.95715  0.86592  1.0000
  H   H5954     1.0  0.86560  0.68475  0.72658  1.0000
  S   S756      1.0  0.64137  0.75297  0.73494  1.0000
  N   N186      1.0  0.58586  0.67159  0.87796  1.0000
  N   N187      1.0  0.81426  0.87407  0.88116  1.0000
  C   C3373     1.0  0.81201  0.88700  0.86657  1.0000
  C   C3374     1.0  0.79344  0.86339  0.88698  1.0000
  C   C3375     1.0  0.81504  0.89067  0.89055  1.0000
  C   C3376     1.0  0.83520  0.85695  0.88135  1.0000
  C   C3377     1.0  0.84381  0.84583  0.86791  1.0000
  C   C3378     1.0  0.83005  0.90225  0.85998  1.0000
  C   C3379     1.0  0.81505  0.88140  0.90653  1.0000
  C   C3380     1.0  0.78934  0.84527  0.87921  1.0000
  C   C3381     1.0  0.76638  0.83807  0.88507  1.0000
  C   C3382     1.0  0.86231  0.82611  0.87057  1.0000
  C   C3383     1.0  0.83123  0.90847  0.84392  1.0000
  C   C3384     1.0  0.82016  0.89871  0.91428  1.0000
  H   H5955     1.0  0.79551  0.89804  0.86686  1.0000
  H   H5956     1.0  0.81163  0.87587  0.85899  1.0000
  H   H5957     1.0  0.79376  0.85496  0.89809  1.0000
  H   H5958     1.0  0.77831  0.87646  0.88726  1.0000
  H   H5959     1.0  0.80063  0.90437  0.88979  1.0000
  H   H5960     1.0  0.83029  0.89883  0.88682  1.0000
  H   H5961     1.0  0.84953  0.86442  0.88296  1.0000
  H   H5962     1.0  0.83275  0.84351  0.89066  1.0000
  H   H5963     1.0  0.85096  0.85789  0.85899  1.0000
  H   H5964     1.0  0.83039  0.83976  0.86429  1.0000
  H   H5965     1.0  0.82574  0.91796  0.86449  1.0000
  H   H5966     1.0  0.84692  0.89426  0.86228  1.0000
  H   H5967     1.0  0.82775  0.86631  0.90808  1.0000
  H   H5968     1.0  0.79829  0.87723  0.91172  1.0000
  H   H5969     1.0  0.78982  0.85115  0.86769  1.0000
  H   H5970     1.0  0.80208  0.83024  0.88089  1.0000
  H   H5971     1.0  0.76386  0.82507  0.87935  1.0000
  H   H5972     1.0  0.76515  0.83116  0.89654  1.0000
  H   H5973     1.0  0.75278  0.85240  0.88351  1.0000
  H   H5974     1.0  0.85577  0.81295  0.87898  1.0000
  H   H5975     1.0  0.86858  0.81887  0.86071  1.0000
  H   H5976     1.0  0.87659  0.83153  0.87381  1.0000
  H   H5977     1.0  0.49662  0.82158  0.93300  1.0000
  H   H5978     1.0  0.70976  0.72632  0.72410  1.0000
  H   H5979     1.0  0.83706  0.89345  0.83877  1.0000
  H   H5980     1.0  0.80722  0.91379  0.91349  1.0000
  H   H5981     1.0  0.82011  0.89170  0.92567  1.0000
  H   H5982     1.0  0.83687  0.90363  0.90971  1.0000
  H   H5983     1.0  0.72015  0.74868  0.73907  1.0000
  H   H5984     1.0  0.56237  0.65743  0.84258  1.0000
  N   N188      1.0  0.82752  0.74008  0.83051  1.0000
  C   C3385     1.0  0.80857  0.75700  0.83611  1.0000
  C   C3386     1.0  0.84791  0.73881  0.83744  1.0000
  C   C3387     1.0  0.83385  0.74801  0.81479  1.0000
  C   C3388     1.0  0.82063  0.71739  0.83233  1.0000
  C   C3389     1.0  0.81140  0.70695  0.84760  1.0000
  C   C3390     1.0  0.78658  0.75998  0.82986  1.0000
  C   C3391     1.0  0.85525  0.73484  0.80716  1.0000
  C   C3392     1.0  0.84390  0.74208  0.85318  1.0000
  C   C3393     1.0  0.86578  0.73606  0.85932  1.0000
  C   C3394     1.0  0.80113  0.68621  0.84768  1.0000
  C   C3395     1.0  0.76826  0.77658  0.83680  1.0000
  C   C3396     1.0  0.86076  0.74553  0.79165  1.0000
  H   H5985     1.0  0.81419  0.77361  0.83420  1.0000
  H   H5986     1.0  0.80383  0.75299  0.84777  1.0000
  H   H5987     1.0  0.85909  0.72265  0.83653  1.0000
  H   H5988     1.0  0.85816  0.75193  0.83174  1.0000
  H   H5989     1.0  0.83624  0.76583  0.81285  1.0000
  H   H5990     1.0  0.82012  0.74725  0.80900  1.0000
  H   H5991     1.0  0.80807  0.71774  0.82543  1.0000
  H   H5992     1.0  0.83507  0.70520  0.82854  1.0000
  H   H5993     1.0  0.79811  0.71861  0.85293  1.0000
  H   H5994     1.0  0.82527  0.70164  0.85390  1.0000
  H   H5995     1.0  0.78930  0.76645  0.81834  1.0000
  H   H5996     1.0  0.77996  0.74399  0.83164  1.0000
  H   H5997     1.0  0.85290  0.71744  0.80734  1.0000
  H   H5998     1.0  0.87014  0.73449  0.81212  1.0000
  H   H5999     1.0  0.83733  0.75983  0.85398  1.0000
  H   H6000     1.0  0.83169  0.73188  0.85995  1.0000
  H   H6001     1.0  0.87843  0.74646  0.85316  1.0000
  H   H6002     1.0  0.86263  0.73896  0.87048  1.0000
  H   H6003     1.0  0.87278  0.71824  0.85915  1.0000
  H   H6004     1.0  0.96014  0.85503  0.90216  1.0000
  H   H6005     1.0  0.78745  0.68586  0.75432  1.0000
  S   S757      1.0  0.84581  0.66215  0.81796  1.0000
  H   H6006     1.0  0.76411  0.77066  0.84836  1.0000
  H   H6007     1.0  0.77361  0.79323  0.83502  1.0000
  H   H6008     1.0  0.75281  0.77828  0.83206  1.0000
  H   H6009     1.0  0.86505  0.76242  0.79091  1.0000
  H   H6010     1.0  0.87535  0.73513  0.78627  1.0000
  H   H6011     1.0  0.84635  0.74679  0.78603  1.0000
  S   S758      1.0  0.53467  0.94852  0.93217  1.0000
  H   H6012     1.0  0.59168  0.70136  0.86282  1.0000
  N   N189      1.0  0.73188  0.73199  0.76746  1.0000
  Fe  Fe381     1.0  0.88117  0.65240  0.80752  1.0000
  C   C3397     1.0  0.72187  0.72913  0.78304  1.0000
  C   C3398     1.0  0.73329  0.75640  0.76218  1.0000
  C   C3399     1.0  0.75539  0.71936  0.76518  1.0000
  C   C3400     1.0  0.75827  0.69391  0.77022  1.0000
  C   C3401     1.0  0.74342  0.76852  0.77147  1.0000
  C   C3402     1.0  0.78252  0.68318  0.76602  1.0000
  C   C3403     1.0  0.74821  0.79149  0.76372  1.0000
  C   C3404     1.0  0.57384  0.66505  0.86759  1.0000
  C   C3405     1.0  0.71670  0.72505  0.75911  1.0000
  H   H6013     1.0  0.73511  0.72808  0.78962  1.0000
  H   H6014     1.0  0.70947  0.74405  0.78539  1.0000
  H   H6015     1.0  0.71632  0.76586  0.76110  1.0000
  H   H6016     1.0  0.51732  0.77585  0.81227  1.0000
  H   H6017     1.0  0.76304  0.72257  0.75383  1.0000
  H   H6018     1.0  0.76644  0.72550  0.77089  1.0000
  H   H6019     1.0  0.70916  0.70257  0.73810  1.0000
  H   H6020     1.0  0.75446  0.69031  0.78197  1.0000
  H   H6021     1.0  0.75939  0.75914  0.77438  1.0000
  H   H6022     1.0  0.73156  0.77090  0.78137  1.0000
  H   H6023     1.0  0.51699  0.79726  0.93050  1.0000
  H   H6024     1.0  0.93501  0.96081  0.93724  1.0000
  H   H6025     1.0  0.75390  0.80030  0.77100  1.0000
  C   C3406     1.0  0.49899  0.95957  0.91708  1.0000
  C   C3407     1.0  0.53300  0.91741  0.89221  1.0000
  S   S759      1.0  0.98894  0.89722  0.95310  1.0000
  H   H6026     1.0  0.96764  0.95861  0.96202  1.0000
  C   C3408     1.0  0.89758  0.66765  0.73181  1.0000
  H   H6027     1.0  0.63945  0.71945  0.87529  1.0000
  C   C3409     1.0  0.51247  0.88486  0.89279  1.0000
  H   H6028     1.0  0.52855  0.75405  0.80185  1.0000
  H   H6029     1.0  0.62178  0.97429  0.92456  1.0000
  H   H6030     1.0  0.92607  0.96165  0.96279  1.0000
  C   C3410     1.0  0.94151  0.89258  0.91099  1.0000
  H   H6031     1.0  0.49965  0.85629  0.91597  1.0000
  H   H6032     1.0  0.52585  0.82188  0.93365  1.0000
  H   H6033     1.0  0.64425  0.70000  0.86306  1.0000
  H   H6034     1.0  0.60123  0.71123  0.88395  1.0000
  H   H6035     1.0  0.62802  0.95818  0.97067  1.0000
  H   H6036     1.0  0.61685  0.64858  0.87965  1.0000
  H   H6037     1.0  0.95288  0.68226  0.95495  1.0000
  H   H6038     1.0  0.96338  0.84118  0.92431  1.0000
  C   C3411     1.0  0.59044  0.94881  0.91058  1.0000
  H   H6039     1.0  0.53823  0.92011  0.88053  1.0000
  H   H6040     1.0  0.89695  0.65585  0.89214  1.0000
  H   H6041     1.0  0.51207  0.89333  0.88167  1.0000
  H   H6042     1.0  0.50655  0.81678  0.90776  1.0000
  N   N190      1.0  0.51390  0.85997  0.89376  1.0000
  H   H6043     1.0  0.59611  0.92188  0.88056  1.0000
  C   C3412     1.0  0.93320  0.90830  0.92218  1.0000
  H   H6044     1.0  0.54116  0.69353  0.91334  1.0000
  C   C3413     1.0  0.95530  0.64815  0.90833  1.0000
  H   H6045     1.0  0.71994  0.70000  0.80946  1.0000
  C   C3414     1.0  0.56891  0.68397  0.88824  1.0000
  H   H6046     1.0  0.69475  0.72026  0.80920  1.0000
  H   H6047     1.0  0.65441  0.96506  0.88275  1.0000
  H   H6048     1.0  0.90788  0.67576  0.75012  1.0000
  C   C3415     1.0  0.97273  0.85873  0.87386  1.0000
  C   C3416     1.0  0.97845  0.66453  0.80032  1.0000
  H   H6049     1.0  0.78690  0.69047  0.84163  1.0000
  C   C3417     1.0  0.51499  0.84957  0.90901  1.0000
  H   H6050     1.0  0.96514  0.82951  0.94960  1.0000
  H   H6051     1.0  0.59146  0.95717  0.88816  1.0000
  C   C3418     1.0  0.96734  0.96193  0.92429  1.0000
  H   H6052     1.0  0.95032  0.88567  0.88224  1.0000
  H   H6053     1.0  0.90983  0.67685  0.72418  1.0000
  H   H6054     1.0  0.55873  0.65765  0.90552  1.0000
  C   C3419     1.0  0.61330  0.69885  0.87838  1.0000
  H   H6055     1.0  0.71591  0.70697  0.76189  1.0000
  H   H6056     1.0  0.63140  0.94071  0.85627  1.0000
  C   C3420     1.0  0.49847  0.95100  0.97069  1.0000
  C   C3421     1.0  0.66046  0.96827  0.85974  1.0000
  S   S760      1.0  0.74969  0.97898  0.88037  1.0000
  H   H6057     1.0  0.59593  0.67021  0.84702  1.0000
  C   C3422     1.0  0.62449  0.93836  0.89255  1.0000
  Fe  Fe382     1.0  0.97956  0.74715  0.88253  1.0000
  H   H6058     1.0  0.66336  0.92202  0.86479  1.0000
  H   H6059     1.0  0.74338  0.75872  0.75137  1.0000
  H   H6060     1.0  0.50187  0.86943  0.86722  1.0000
  H   H6061     1.0  0.66591  0.79111  0.72616  1.0000
  C   C3423     1.0  0.49250  0.85582  0.88993  1.0000
  S   S761      1.0  0.69949  0.94855  0.90533  1.0000
  H   H6062     1.0  0.96138  0.67233  0.80462  1.0000
  H   H6063     1.0  0.51399  0.95499  0.96344  1.0000
  C   C3424     1.0  0.70658  0.72104  0.73576  1.0000
  H   H6064     1.0  0.73979  0.72313  0.73886  1.0000
  H   H6065     1.0  0.93825  0.90061  0.93258  1.0000
  C   C3425     1.0  0.60767  0.92171  0.87033  1.0000
  H   H6066     1.0  0.84319  0.92051  0.83966  1.0000
  S   S762      1.0  0.81189  0.94904  0.88698  1.0000
  H   H6067     1.0  0.61885  0.90546  0.87079  1.0000
  S   S763      1.0  0.49778  0.65527  0.89216  1.0000
  H   H6068     1.0  0.67528  0.95519  0.85851  1.0000
  N   N191      1.0  0.63673  0.94131  0.87750  1.0000
  C   C3426     1.0  0.95809  0.66707  0.94993  1.0000
  H   H6069     1.0  0.58391  0.93297  0.91131  1.0000
  H   H6070     1.0  0.64927  0.90600  0.87962  1.0000
  C   C3427     1.0  0.84304  0.96605  0.89720  1.0000
  C   C3428     1.0  0.53179  0.89277  0.89784  1.0000
  C   C3429     1.0  0.65570  0.92216  0.87610  1.0000
  S   S764      1.0  0.72333  0.95076  0.86420  1.0000
  H   H6071     1.0  0.93996  0.92423  0.91859  1.0000
  C   C3430     1.0  0.97500  0.87366  0.92188  1.0000
  C   C3431     1.0  0.58919  0.65623  0.85458  1.0000
  H   H6072     1.0  0.54833  0.88319  0.89432  1.0000
  H   H6073     1.0  0.94508  0.86050  0.93461  1.0000
  H   H6074     1.0  0.68235  0.93664  0.88183  1.0000
  H   H6075     1.0  0.62351  0.72474  0.86097  1.0000
  H   H6076     1.0  0.65383  0.97083  0.94940  1.0000
  N   N192      1.0  0.59417  0.76882  0.79040  1.0000
  C   C3432     1.0  0.59484  0.79162  0.79355  1.0000
  C   C3433     1.0  0.57393  0.75942  0.79925  1.0000
  C   C3434     1.0  0.61496  0.75385  0.79460  1.0000
  C   C3435     1.0  0.59469  0.76898  0.77482  1.0000
  C   C3436     1.0  0.57595  0.78479  0.76779  1.0000
  C   C3437     1.0  0.61568  0.80261  0.78602  1.0000
  C   C3438     1.0  0.61594  0.72850  0.79490  1.0000
  C   C3439     1.0  0.55220  0.77603  0.80257  1.0000
  C   C3440     1.0  0.53241  0.76371  0.80935  1.0000
  C   C3441     1.0  0.58050  0.78536  0.75173  1.0000
  C   C3442     1.0  0.61338  0.82631  0.78902  1.0000
  C   C3443     1.0  0.63838  0.71568  0.79853  1.0000
  H   H6077     1.0  0.59412  0.79071  0.80519  1.0000
  H   H6078     1.0  0.57987  0.80354  0.79092  1.0000
  H   H6079     1.0  0.56981  0.74607  0.79439  1.0000
  H   H6080     1.0  0.57779  0.75119  0.80989  1.0000
  H   H6081     1.0  0.61738  0.75614  0.80521  1.0000
  H   H6082     1.0  0.63004  0.75866  0.78730  1.0000
  H   H6083     1.0  0.61105  0.77287  0.76862  1.0000
  H   H6084     1.0  0.59369  0.75211  0.77288  1.0000
  H   H6085     1.0  0.57468  0.80209  0.76966  1.0000
  H   H6086     1.0  0.55966  0.77871  0.77183  1.0000
  H   H6087     1.0  0.63111  0.79322  0.78991  1.0000
  H   H6088     1.0  0.61797  0.80353  0.77436  1.0000
  H   H6089     1.0  0.61419  0.72496  0.78447  1.0000
  H   H6090     1.0  0.60252  0.72169  0.80301  1.0000
  H   H6091     1.0  0.55454  0.78626  0.81026  1.0000
  H   H6092     1.0  0.54762  0.78748  0.79302  1.0000
  H   H6093     1.0  0.94561  0.65260  0.83462  1.0000
  H   H6094     1.0  0.53617  0.75215  0.81913  1.0000
  H   H6095     1.0  0.56667  0.79643  0.74686  1.0000
  H   H6096     1.0  0.59646  0.79183  0.74699  1.0000
  H   H6097     1.0  0.58164  0.76843  0.74915  1.0000
  H   H6098     1.0  0.61138  0.82627  0.80062  1.0000
  H   H6099     1.0  0.62873  0.83356  0.78380  1.0000
  H   H6100     1.0  0.59874  0.83695  0.78480  1.0000
  H   H6101     1.0  0.65231  0.72114  0.79030  1.0000
  H   H6102     1.0  0.64098  0.71842  0.80901  1.0000
  H   H6103     1.0  0.63863  0.69758  0.79896  1.0000
  H   H6104     1.0  0.69365  0.69151  0.80892  1.0000
  H   H6105     1.0  0.57595  0.96188  0.91287  1.0000
  H   H6106     1.0  0.58134  0.93898  0.85821  1.0000
  Fe  Fe383     1.0  0.96994  0.69916  0.89112  1.0000
  C   C3444     1.0  0.96781  0.87742  0.88276  1.0000
  Fe  Fe384     1.0  0.74877  0.97435  0.85813  1.0000
  H   H6107     1.0  0.94989  0.66959  0.94040  1.0000
  H   H6108     1.0  0.63568  0.93962  0.90000  1.0000
  C   C3445     1.0  0.96285  0.85436  0.93068  1.0000
  H   H6109     1.0  0.93218  0.87812  0.91415  1.0000
  S   S765      1.0  0.98090  0.78078  0.88874  1.0000
  C   C3446     1.0  0.67494  0.96804  0.90601  1.0000
  H   H6110     1.0  0.97657  0.66488  0.94661  1.0000
  H   H6111     1.0  0.73290  0.80171  0.76013  1.0000
  H   H6112     1.0  0.90167  0.92252  0.91449  1.0000
  H   H6113     1.0  0.97322  0.85558  0.95071  1.0000
  H   H6114     1.0  0.98851  0.85893  0.89812  1.0000
  S   S766      1.0  0.98042  0.69107  0.86913  1.0000
  C   C3447     1.0  0.63122  0.71148  0.86879  1.0000
  H   H6115     1.0  0.51644  0.92766  0.89483  1.0000
  H   H6116     1.0  0.90226  0.92556  0.93243  1.0000
  H   H6117     1.0  0.98883  0.82039  0.89680  1.0000
  C   C3448     1.0  0.55093  0.67094  0.89778  1.0000
  C   C3449     1.0  0.59963  0.65186  0.88572  1.0000
  H   H6118     1.0  0.52070  0.67613  0.91311  1.0000
  H   H6119     1.0  0.97401  0.73136  0.81729  1.0000
  H   H6120     1.0  0.68881  0.72738  0.73961  1.0000
  H   H6121     1.0  0.79468  0.67908  0.85875  1.0000
  C   C3450     1.0  0.87579  0.66811  0.72576  1.0000
  H   H6122     1.0  0.97076  0.76448  0.82851  1.0000
  C   C3451     1.0  0.98114  0.92187  0.94169  1.0000
  C   C3452     1.0  0.97398  0.84338  0.94357  1.0000
  H   H6123     1.0  0.62150  0.68626  0.88631  1.0000
  H   H6124     1.0  0.85503  0.95312  0.89275  1.0000
  H   H6125     1.0  0.50340  0.97616  0.91426  1.0000
  S   S767      1.0  0.49553  0.72523  0.83810  1.0000
  H   H6126     1.0  0.52441  0.69953  0.89923  1.0000
  C   C3453     1.0  0.50540  0.92172  0.92932  1.0000
  C   C3454     1.0  0.62376  0.97497  0.96448  1.0000
  H   H6127     1.0  0.87960  0.66979  0.75321  1.0000
  H   H6128     1.0  0.56311  0.65237  0.87284  1.0000
  H   H6129     1.0  0.54210  0.66359  0.89141  1.0000
  H   H6130     1.0  0.93259  0.64998  0.96334  1.0000
  H   H6131     1.0  0.63101  0.97732  0.87451  1.0000
  S   S768      1.0  0.98928  0.74319  0.85952  1.0000
  H   H6132     1.0  0.49264  0.92740  0.95830  1.0000
  H   H6133     1.0  0.75365  0.69194  0.72290  1.0000
  H   H6134     1.0  0.60789  0.97221  0.89532  1.0000
  C   C3455     1.0  0.63626  0.97831  0.91689  1.0000
  H   H6135     1.0  0.97004  0.86571  0.86281  1.0000
  H   H6136     1.0  0.97928  0.88963  0.87771  1.0000
  H   H6137     1.0  0.90579  0.65021  0.73456  1.0000
  H   H6138     1.0  0.91625  0.65129  0.86112  1.0000
  C   C3456     1.0  0.97813  0.90475  0.90217  1.0000
  H   H6139     1.0  0.97063  0.91471  0.89295  1.0000
  H   H6140     1.0  0.86797  0.97878  0.90523  1.0000
  H   H6141     1.0  0.96142  0.84608  0.87825  1.0000
  H   H6142     1.0  0.81791  0.97251  0.85526  1.0000
  H   H6143     1.0  0.84528  0.97941  0.84737  1.0000
  H   H6144     1.0  0.83305  0.68090  0.72163  1.0000
