data_image0
_chemical_formula_structural       CHSHSHFeSFeSHCFeS2CHFeSCSH2C6SH4C5H4C6H6C3H7CH10CHCH6C3HCH2C3H3C3HSH11NC2HNH10FeH3CH5NC11H16FeHC2H2CHCHC2H2C2HSH9CSH2CH7CFeS2FeS2FeSFeS3FeS2FeS2Fe2S3FeS2FeSHFeSFeS3FeS2FeS2FeSFeS3H2C6H4C6H4C6H4C6H4C3H2C6H4C6H4C3H2SH2C3HCH2CNC2HCHCHCH2CHC2HC2NCH2C2NC6H15NC7H2C3H11CH2NH13NC12H26CH3C2H6CH4C2H3CH2C2H5C4H9CH5CH4CH2C2H6CHC2H3CH9C2H5CH3CH2CH3C2H3NH2CH3CH2SC3HC2H4C2NSH3SH3C3H3NCH3CH7CHC2HCH2C2H3C2H8CHCHCH2CH11CFeHCH2CHC3H3CH4SFeH3CH8CH4C2HSHSHSFeSFeSH2FeS2HCFeSCSFeH2C5H3C6H5CNC3H4C7H6C2H13CHCH4SHCH3CH2CHCHC2H2CH9CHCH4SHCH3C2NH4C3H2C2HCHC2H3CHCH2C2H3CHC2HC2HFeHSH4NH2CSHCHCSHCH2CH3FeH3FeS2FeS2FeSFeS2FeS2FeSHFeSFeS3FeS2FeS2FeSFeS4HFeS2FeSHFeSFeS3C7H3C6H4C6H4C6H4C6H4C6H4C4HC3HNC2HC3HC4H5CH7CH2CH5CH6NC12H29NC12H2CH9NH8CH3CH2NHC2H4C3H9C3H7CH3C4H2CHCH7FeH9C2HCH3CH5CHCH3CH2C2SCH2CHCH6C2H6CFeCH2CH5C2H2CHC2HC3HCHCHCHCHNCH2CH2NH7NCH5CH4C2H3C2H3SC2H3SC3HCH2CH2C2HCH5CH17CH7CHFeS2FeS2Fe2S3FeS2FeSCFeSFeS3CFeS2FeS2FeHFeS3FeS2FeS2FeSFeS3C6H5C4H3C6H3C6H4C6HCH2C6H4C6H4C6H5CHCH12CH3CSH2CHSH4C3H3C2H6CH2C2H4CH5NH2CHC3H7CH3CHCH3C2HSH3CH4NC8HC3H16N2H12CH3CHCHCH8CH3CH3CH3SH8CH2CHNC3NC12H23C2H3CH2CH2NC2H3CH5CH3C2H2CH4CHC2H2C2H5CNC3H2C2SCHCH2CH6C2H2C3FeC2H3CHCH2CH4CHCHCH3C4H2CH6SH5CH2SC2SCFeSFeSHCFeHSFeS2CH3S2HC6H4C6H4CHN2HC6H4NC6H10C2H4CH3SHCH2C3H8C2H5C2H3CH4C2H3FeC2HCSH4CSH2CHCH4C2H5C2HCH7CH4FeHCH3CHCH2CH2CHCHCH3CHC3H2CH8CHSH2CNH5CFeSCFeS2FeSFeS4HFeS2FeS2Fe2S3FeS2FeS2FeSFeCS2FeSCFeS2FeSFeS3C5H3C6H4C6H4C6H4C6H3C6H4C6H4C6H3NC11H28NC2HCH2FeC2H2C2H4NHSHSHCHCH6CNH2CH4NC12H28C2H10C3H4CH6CH2CH10C2H2CH3CH14CHCH2CH2CH3C3H8C4H2NH5C2H3C2H5CH3CNCNCHCHCHCHC2H6NHC2H4CH4SHSH5C3H3CH2CHC5HCH4C2HCH2CH3CHC3H3C2H4CH5CSH13CHFeHSFeCSH2CHS2HSC2SFeSFeSH2C6H2SHC6HCH4SNCHC2H2C6H4C6H3CH2C2H8CHCHC2H3CH4CHCH2CH3C2H5CHCH2CNCHCH3CH2CFeHCH7CH2NH2CH3CH5FeCHCH5CH6CH4CH4CH3CHCH2CH5CH3SH4C2HSHC2H3NHFeHSFeS2H2FeCS2FeSCHSHFeSFeSH4NH3C4NH3C6H3SH2C2HCHC6H4C5H6C2H2CH2C2H2C3HC2H2CH4C2H4CH4C3H4CH17CH4CHCH2C2H4CNH3CH3CH3CH3CH4CSHSCHCHS2C2SC3H3FeSCFeS2FeSFeS3FeS2FeS2FeSFeS3FeS2FeS2FeSFeHS2FeS2FeS2FeHFeS3C6H3C6H4C6H2CHC6H4C7H2C6H4C6H4C6H3CH2CHFeH4CHCH15NH12NC12H23SH5C2HCH3CSCH3CH2CH4SH2CH2CH2FeCH2C2HCH7SC2H2C2H12CHC3H3CH5C2H7CH3NC4HCH2SH7CH3NH2C2H4C3HCH6NC5H14NH3C5H7C2H2CH2C2H2CH2C4H2CH2CH3CHCNCHCH2SC2H3C2H4CHC2H3CH4CH4C2H3CFeH5CHNH5CH6SH2SCFeSFeSH3SHFeSHFeSFeSHC7H4C6H5CHCHSH2C5H4C6H19C2H2CH4C2H5CH4C3H6S2CHFeCHNHC2HC2H3FeH3CH3CHSH9CHCHCHCH5C2HSCH2CHC2NH8CH3CHCSCH2CH3CH2C3HCH4NCH4C3H2CHC4HCH6NCH3C3HCFeSHFeS2FeSFeS3HFeS2FeSCFeSFeS3FeS2FeS2FeSFeHS2FeS2FeS2FeSFeHS2C6H4C6H3C6H3C6H4C6H4C6H4C6H4C6H3CSC4HCH4C3H6CH4CH2CH2CH5SCHNC11H25NH2C2H13CH5CSH3CH4CSH2C3HC2NC12H28NHCFeC2SHC3H17NC2H9CNC12H28SCSHC2H5CH6CHCHC2HCH3NH9CSNH3C2H2C2H7C2H12C3HCH2CH2CH4C2HSHFeS2FeS2FeSFeHS2FeS2FeSCFeSFeS3FeS2FeS2Fe2S3FeS2FeS2FeHFeS3C5HC6H4C4H2C6H4C6H4C6H4C6H4C6H3NC11H26NC11H25SHCH4CNC12H31NHC2H3CH3CH4CHC2H5C2HCH2CH3NCHCHC2H6C2H2SH6CHCFeH10NH2CH2CH4SCHCHCH2CH3CHCH2CH3CHSH4SHCH3C3H3CH2CH3C5H7CHCH2CHC2H5CH2SH2NC2HCH2CHCHFeHCHCH4NH2C2H8SC2H4C2FeH2C2HCH2C2SH3C2HCFeS2NH2FeSCSHFeHSFeHSH4S2HC3HC2HSH2C7H3C6H5C5H3FeNHCH5CSHCH5CHC2HCHCH2CH3SH10CH4C3H6CHC3HCHCHC3HC2H3CH5CH5FeSHFeS2FeSFeS3HSFeS2FeSHFeSFeS3FeS2FeS2FeHFeS3FeS2FeS2Fe2S3C2HCH3C6H4C4H2C6H4C6H4C6H4C6H4C6HCH4C3H3CH2C2H4CH3FeNH2CHCHC3H3CH5NC12H28NC12H31C3H2C2HC2H2NH4CH3NC4SHSC4H2CH5C2HC2H11NC7NHC2H6CH7CH2SH4CH3CH4C2H4C2H2CH4CHCH2CH10CH2C2NCH3CHCSHCH2CHCH2CHCH2CH2CH3CH3CHC3H4CH4C2H3SH3CH3CNCHCH3CH3CH2NSH2CH5NFeS2FeSCSCHFeHSFeHSHFeC2S2HC7H4C6H3C7H5FeC4H7SHCH3CH2CH2CH6CH3CH7CH2C2HNC12H28CHCHCNC2H6FeH3C4H4CH2C2H4C2H2SC3H2CHC2H7C2H2CHCH3CH5CNH4S2H3C3HC2H20C2HCNS
_chemical_formula_sum              "C1728 H3072 S384 Fe192 N96"
_cell_length_a       102.848
_cell_length_b       30.6003
_cell_length_c       68.4173
_cell_angle_alpha    82.5139
_cell_angle_beta     83.9787
_cell_angle_gamma    83.251

_space_group_name_H-M_alt    "P 1"
_space_group_IT_number       1

loop_
  _space_group_symop_operation_xyz
  'x, y, z'

loop_
  _atom_site_type_symbol
  _atom_site_label
  _atom_site_symmetry_multiplicity
  _atom_site_fract_x
  _atom_site_fract_y
  _atom_site_fract_z
  _atom_site_occupancy
  C   C1        1.0  0.01130  0.01887  0.05312  1.0000
  H   H1        1.0  0.23909  0.39746  0.01707  1.0000
  S   S1        1.0  0.21626  0.07968  0.10724  1.0000
  H   H2        1.0  0.19109  0.93992  0.05398  1.0000
  S   S2        1.0  0.22105  0.18134  0.09154  1.0000
  H   H3        1.0  0.21088  0.89426  0.03427  1.0000
  Fe  Fe1       1.0  0.22061  0.13856  0.12142  1.0000
  S   S3        1.0  0.20718  0.15246  0.14994  1.0000
  Fe  Fe2       1.0  0.21859  0.12029  0.07727  1.0000
  S   S4        1.0  0.20494  0.12533  0.05185  1.0000
  H   H4        1.0  0.19810  0.91558  0.08624  1.0000
  C   C2        1.0  0.20041  0.95321  0.04739  1.0000
  Fe  Fe3       1.0  0.01355  0.12756  0.09199  1.0000
  S   S5        1.0  0.01302  0.07279  0.11756  1.0000
  S   S6        1.0  0.02964  0.11376  0.06689  1.0000
  C   C3        1.0  0.04506  0.01077  0.13476  1.0000
  H   H5        1.0  0.17634  0.05035  0.09534  1.0000
  Fe  Fe4       1.0  0.00931  0.12584  0.13803  1.0000
  S   S7        1.0  0.01743  0.13684  0.16696  1.0000
  C   C4        1.0  0.19008  0.00666  0.07858  1.0000
  S   S8        1.0  0.01159  0.18046  0.11261  1.0000
  H   H6        1.0  0.08105  0.23993  0.23202  1.0000
  H   H7        1.0  0.24102  0.87706  0.22082  1.0000
  C   C5        1.0  0.04169  0.06628  0.21777  1.0000
  C   C6        1.0  0.03559  0.10956  0.21828  1.0000
  C   C7        1.0  0.02805  0.13006  0.20282  1.0000
  C   C8        1.0  0.02635  0.10768  0.18666  1.0000
  C   C9        1.0  0.03231  0.06421  0.18624  1.0000
  C   C10       1.0  0.03998  0.04386  0.20161  1.0000
  S   S9        1.0  0.24021  0.09952  0.07331  1.0000
  H   H8        1.0  0.02353  0.16368  0.20336  1.0000
  H   H9        1.0  0.03107  0.04632  0.17408  1.0000
  H   H10       1.0  0.04460  0.01036  0.20103  1.0000
  H   H11       1.0  0.05656  0.16519  0.06398  1.0000
  C   C11       1.0  0.02300  0.18434  0.01291  1.0000
  C   C12       1.0  0.02164  0.16841  0.03329  1.0000
  C   C13       1.0  0.03050  0.13393  0.04110  1.0000
  C   C14       1.0  0.04053  0.11506  0.02811  1.0000
  C   C15       1.0  0.20513  0.99653  0.07311  1.0000
  H   H12       1.0  0.05561  0.22454  0.06347  1.0000
  H   H13       1.0  0.01392  0.18352  0.04300  1.0000
  H   H14       1.0  0.04742  0.08826  0.03391  1.0000
  H   H15       1.0  0.18500  0.01861  0.06503  1.0000
  C   C16       1.0  0.20545  0.18484  0.21514  1.0000
  C   C17       1.0  0.21756  0.18122  0.20332  1.0000
  C   C18       1.0  0.21833  0.17099  0.18356  1.0000
  C   C19       1.0  0.20698  0.16432  0.17513  1.0000
  C   C20       1.0  0.19491  0.16737  0.18704  1.0000
  C   C21       1.0  0.19414  0.17738  0.20683  1.0000
  H   H16       1.0  0.22640  0.18706  0.20940  1.0000
  H   H17       1.0  0.19006  0.95517  0.01153  1.0000
  H   H18       1.0  0.18603  0.16235  0.18085  1.0000
  H   H19       1.0  0.18474  0.17990  0.21555  1.0000
  H   H20       1.0  0.04856  0.20003  0.18490  1.0000
  H   H21       1.0  0.20876  0.02236  0.24245  1.0000
  C   C22       1.0  0.21397  0.06627  0.02399  1.0000
  C   C23       1.0  0.20423  0.09887  0.03008  1.0000
  C   C24       1.0  0.19343  0.11066  0.01864  1.0000
  H   H22       1.0  0.01322  0.47555  0.23971  1.0000
  H   H23       1.0  0.00119  0.03714  0.08138  1.0000
  H   H24       1.0  0.24281  0.83801  0.19514  1.0000
  H   H25       1.0  0.18586  0.13612  0.02300  1.0000
  H   H26       1.0  0.99858  0.96302  0.01704  1.0000
  H   H27       1.0  0.22941  0.32646  0.03046  1.0000
  H   H28       1.0  0.01621  0.21157  0.00717  1.0000
  C   C25       1.0  0.23131  0.25498  0.03376  1.0000
  H   H29       1.0  0.22722  0.92671  0.04746  1.0000
  H   H30       1.0  0.10814  0.18799  0.99830  1.0000
  H   H31       1.0  0.03516  0.20662  0.16949  1.0000
  H   H32       1.0  0.23308  0.15322  0.24499  1.0000
  H   H33       1.0  0.06345  0.16655  0.15892  1.0000
  H   H34       1.0  0.10664  0.28068  0.00803  1.0000
  H   H35       1.0  0.01901  0.04128  0.05366  1.0000
  H   H36       1.0  0.20492  0.86104  0.06370  1.0000
  H   H37       1.0  0.21341  0.94630  0.02010  1.0000
  H   H38       1.0  0.22364  0.98418  0.04192  1.0000
  C   C26       1.0  0.21206  0.05457  0.21293  1.0000
  H   H39       1.0  0.02925  0.02087  0.02108  1.0000
  C   C27       1.0  0.01574  0.98274  0.08766  1.0000
  H   H40       1.0  0.09354  0.06561  0.15172  1.0000
  H   H41       1.0  0.22013  0.83954  0.10074  1.0000
  H   H42       1.0  0.04621  0.98308  0.12551  1.0000
  H   H43       1.0  0.04960  0.11602  0.99797  1.0000
  H   H44       1.0  0.24200  0.37035  0.04892  1.0000
  H   H45       1.0  0.05139  0.00157  0.14717  1.0000
  C   C28       1.0  0.23631  0.29864  0.03660  1.0000
  C   C29       1.0  0.19517  0.92229  0.01672  1.0000
  C   C30       1.0  0.04182  0.13082  0.00769  1.0000
  H   H46       1.0  0.22220  0.86628  0.06486  1.0000
  C   C31       1.0  0.02104  0.01872  0.01200  1.0000
  H   H47       1.0  0.22261  0.05831  0.03202  1.0000
  H   H48       1.0  0.23597  0.93013  0.19484  1.0000
  C   C32       1.0  0.20601  0.92757  0.02963  1.0000
  C   C33       1.0  0.22338  0.95702  0.05434  1.0000
  C   C34       1.0  0.21675  0.03920  0.23345  1.0000
  H   H49       1.0  0.20833  0.02612  0.06335  1.0000
  H   H50       1.0  0.09192  0.12379  0.14271  1.0000
  H   H51       1.0  0.20990  0.02564  0.20604  1.0000
  C   C35       1.0  0.23711  0.14845  0.01039  1.0000
  C   C36       1.0  0.20836  0.91596  0.07936  1.0000
  C   C37       1.0  0.03316  0.16606  0.99996  1.0000
  H   H52       1.0  0.09539  0.24127  0.01934  1.0000
  S   S10       1.0  0.05177  0.03913  0.23651  1.0000
  H   H53       1.0  0.00320  0.10256  0.04919  1.0000
  H   H54       1.0  0.22820  0.98146  0.16565  1.0000
  H   H55       1.0  0.22550  0.01477  0.23164  1.0000
  H   H56       1.0  0.99837  0.31157  0.17804  1.0000
  H   H57       1.0  0.21007  0.99557  0.08694  1.0000
  H   H58       1.0  0.21518  0.80057  0.08610  1.0000
  H   H59       1.0  0.24191  0.87824  0.17350  1.0000
  H   H60       1.0  0.01872  0.98395  0.01393  1.0000
  H   H61       1.0  0.03462  0.01551  0.14090  1.0000
  H   H62       1.0  0.19953  0.90643  0.00348  1.0000
  H   H63       1.0  0.21970  0.07160  0.20311  1.0000
  N   N1        1.0  0.00176  0.03998  0.03841  1.0000
  C   C38       1.0  0.21261  0.83394  0.09104  1.0000
  C   C39       1.0  0.00901  0.05110  0.01826  1.0000
  H   H64       1.0  0.00021  0.39725  0.23024  1.0000
  N   N2        1.0  0.20940  0.95476  0.06340  1.0000
  H   H65       1.0  0.18558  0.97708  0.08608  1.0000
  H   H66       1.0  0.01976  0.95075  0.08226  1.0000
  H   H67       1.0  0.19753  0.98745  0.04028  1.0000
  H   H68       1.0  0.00081  0.35548  0.20542  1.0000
  H   H69       1.0  0.00208  0.05540  0.00651  1.0000
  H   H70       1.0  0.04935  0.23673  0.16200  1.0000
  H   H71       1.0  0.23609  0.29968  0.05283  1.0000
  H   H72       1.0  0.21420  0.91966  0.09174  1.0000
  H   H73       1.0  0.20294  0.07784  0.21407  1.0000
  H   H74       1.0  0.09437  0.08274  0.12542  1.0000
  Fe  Fe5       1.0  0.24273  0.15854  0.08867  1.0000
  H   H75       1.0  0.20283  0.83448  0.09970  1.0000
  H   H76       1.0  0.04100  0.19687  0.07008  1.0000
  H   H77       1.0  0.21975  0.18563  0.99955  1.0000
  C   C40       1.0  0.21231  0.86917  0.07301  1.0000
  H   H78       1.0  0.19138  0.03180  0.10665  1.0000
  H   H79       1.0  0.22767  0.16900  0.17471  1.0000
  H   H80       1.0  0.24308  0.97197  0.20417  1.0000
  H   H81       1.0  0.23066  0.25292  0.01782  1.0000
  H   H82       1.0  0.22757  0.09542  0.23267  1.0000
  N   N3        1.0  0.05390  0.13279  0.12525  1.0000
  C   C41       1.0  0.04698  0.09312  0.13431  1.0000
  C   C42       1.0  0.04914  0.17112  0.13696  1.0000
  C   C43       1.0  0.04973  0.14547  0.10451  1.0000
  C   C44       1.0  0.06872  0.12356  0.12410  1.0000
  C   C45       1.0  0.07466  0.08994  0.14075  1.0000
  C   C46       1.0  0.04898  0.05300  0.12214  1.0000
  C   C47       1.0  0.05451  0.18884  0.09311  1.0000
  C   C48       1.0  0.05269  0.16617  0.15863  1.0000
  C   C49       1.0  0.04602  0.20488  0.16932  1.0000
  C   C50       1.0  0.08954  0.09071  0.14002  1.0000
  C   C51       1.0  0.05176  0.19397  0.07135  1.0000
  H   H83       1.0  0.03618  0.10265  0.13643  1.0000
  H   H84       1.0  0.04980  0.08136  0.14945  1.0000
  H   H85       1.0  0.05333  0.20181  0.12998  1.0000
  H   H86       1.0  0.03824  0.17835  0.13701  1.0000
  H   H87       1.0  0.03883  0.14867  0.10474  1.0000
  H   H88       1.0  0.05334  0.11872  0.09508  1.0000
  H   H89       1.0  0.07260  0.11033  0.10996  1.0000
  H   H90       1.0  0.07320  0.15517  0.12359  1.0000
  H   H91       1.0  0.07284  0.05570  0.13901  1.0000
  H   H92       1.0  0.07040  0.09643  0.15574  1.0000
  H   H93       1.0  0.04273  0.05963  0.10955  1.0000
  H   H94       1.0  0.05932  0.04676  0.11589  1.0000
  H   H95       1.0  0.06523  0.18936  0.09372  1.0000
  H   H96       1.0  0.04919  0.21828  0.09941  1.0000
  H   H97       1.0  0.04964  0.13528  0.16720  1.0000
  H   H98       1.0  0.23104  0.99712  0.07416  1.0000
  Fe  Fe6       1.0  0.23818  0.06294  0.10397  1.0000
  H   H99       1.0  0.23377  0.02559  0.17691  1.0000
  C   C52       1.0  0.23668  0.00020  0.16661  1.0000
  C   C53       1.0  0.23356  0.96467  0.06836  1.0000
  H   H100      1.0  0.01309  0.08364  0.01746  1.0000
  H   H101      1.0  0.01123  0.97571  0.10308  1.0000
  C   C54       1.0  0.19213  0.08916  0.00191  1.0000
  H   H102      1.0  0.01677  0.98804  0.04843  1.0000
  C   C55       1.0  0.18714  0.04283  0.09233  1.0000
  H   H103      1.0  0.19123  0.07374  0.08537  1.0000
  C   C56       1.0  0.00530  0.00687  0.07464  1.0000
  C   C57       1.0  0.99548  0.08298  0.04550  1.0000
  H   H104      1.0  0.23409  0.93799  0.08097  1.0000
  H   H105      1.0  0.09176  0.14774  0.99723  1.0000
  C   C58       1.0  0.09715  0.26763  0.00686  1.0000
  C   C59       1.0  0.21253  0.04405  0.00755  1.0000
  H   H106      1.0  0.03679  0.12737  0.23052  1.0000
  S   S11       1.0  0.20517  0.19840  0.24006  1.0000
  H   H107      1.0  0.22136  0.25281  0.04167  1.0000
  H   H108      1.0  0.02387  0.00360  0.08779  1.0000
  H   H109      1.0  0.00268  0.94612  0.04217  1.0000
  H   H110      1.0  0.23795  0.22640  0.03999  1.0000
  H   H111      1.0  0.23928  0.01766  0.15168  1.0000
  H   H112      1.0  0.18789  0.90118  0.02509  1.0000
  H   H113      1.0  0.08913  0.29510  0.00810  1.0000
  H   H114      1.0  0.21127  0.10391  0.24329  1.0000
  H   H115      1.0  0.24239  0.43328  0.06670  1.0000
  C   C60       1.0  0.22009  0.07906  0.24314  1.0000
  S   S12       1.0  0.24262  0.11959  0.11924  1.0000
  H   H116      1.0  0.00059  0.44752  0.21439  1.0000
  H   H117      1.0  0.99740  0.98485  0.07519  1.0000
  C   C61       1.0  0.20153  0.05486  0.99647  1.0000
  H   H118      1.0  0.00068  0.36841  0.16891  1.0000
  H   H119      1.0  0.22003  0.01826  0.00333  1.0000
  H   H120      1.0  0.24270  0.17688  0.01137  1.0000
  H   H121      1.0  0.23162  0.14009  0.02503  1.0000
  H   H122      1.0  0.24398  0.95110  0.23525  1.0000
  H   H123      1.0  0.24412  0.11931  0.00708  1.0000
  H   H124      1.0  0.23595  0.34015  0.99643  1.0000
  C   C62       1.0  0.99499  0.96326  0.03290  1.0000
  Fe  Fe7       1.0  0.19276  0.53492  0.44543  1.0000
  S   S13       1.0  0.18956  0.60385  0.42966  1.0000
  S   S14       1.0  0.20175  0.52135  0.47568  1.0000
  Fe  Fe8       1.0  0.18772  0.49180  0.40727  1.0000
  S   S15       1.0  0.18499  0.55939  0.38977  1.0000
  S   S16       1.0  0.18387  0.42644  0.39532  1.0000
  Fe  Fe9       1.0  0.20209  0.57716  0.40419  1.0000
  S   S17       1.0  0.22047  0.60847  0.38998  1.0000
  Fe  Fe10      1.0  0.17258  0.58022  0.41684  1.0000
  S   S18       1.0  0.15398  0.62699  0.41092  1.0000
  S   S19       1.0  0.20579  0.50807  0.41999  1.0000
  S   S20       1.0  0.17478  0.51250  0.43433  1.0000
  Fe  Fe11      1.0  0.18470  0.15927  0.30946  1.0000
  S   S21       1.0  0.19859  0.20857  0.29645  1.0000
  S   S22       1.0  0.19011  0.09869  0.33118  1.0000
  Fe  Fe12      1.0  0.16178  0.20908  0.28836  1.0000
  S   S23       1.0  0.17442  0.26281  0.27398  1.0000
  S   S24       1.0  0.14019  0.21319  0.28149  1.0000
  Fe  Fe13      1.0  0.18996  0.20639  0.26741  1.0000
  Fe  Fe14      1.0  0.18204  0.26090  0.30418  1.0000
  S   S25       1.0  0.18688  0.32306  0.31764  1.0000
  S   S26       1.0  0.17696  0.15350  0.28038  1.0000
  S   S27       1.0  0.16845  0.21088  0.31861  1.0000
  Fe  Fe15      1.0  0.07711  0.07311  0.29317  1.0000
  S   S28       1.0  0.06198  0.08636  0.31858  1.0000
  S   S29       1.0  0.09870  0.06876  0.30013  1.0000
  Fe  Fe16      1.0  0.05551  0.05898  0.26666  1.0000
  S   S30       1.0  0.03927  0.07048  0.29082  1.0000
  H   H125      1.0  0.22772  0.10535  0.28729  1.0000
  Fe  Fe17      1.0  0.05003  0.12741  0.29591  1.0000
  S   S31       1.0  0.04109  0.19906  0.29673  1.0000
  Fe  Fe18      1.0  0.05269  0.02766  0.31163  1.0000
  S   S32       1.0  0.04492  0.97978  0.33798  1.0000
  S   S33       1.0  0.06574  0.11801  0.27070  1.0000
  S   S34       1.0  0.06829  0.01226  0.28725  1.0000
  Fe  Fe19      1.0  0.07524  0.65065  0.42465  1.0000
  S   S35       1.0  0.07227  0.72256  0.43003  1.0000
  S   S36       1.0  0.09303  0.59856  0.42765  1.0000
  Fe  Fe20      1.0  0.04626  0.65003  0.41668  1.0000
  S   S37       1.0  0.04147  0.72199  0.42072  1.0000
  S   S38       1.0  0.02969  0.60646  0.41723  1.0000
  Fe  Fe21      1.0  0.06077  0.73347  0.40299  1.0000
  S   S39       1.0  0.06511  0.78306  0.37526  1.0000
  Fe  Fe22      1.0  0.05311  0.70561  0.44745  1.0000
  S   S40       1.0  0.04286  0.73035  0.47597  1.0000
  S   S41       1.0  0.06471  0.66180  0.39693  1.0000
  S   S42       1.0  0.05698  0.63356  0.44402  1.0000
  H   H126      1.0  0.19616  0.01792  0.30662  1.0000
  H   H127      1.0  0.02321  0.43174  0.45667  1.0000
  C   C63       1.0  0.02462  0.58001  0.39828  1.0000
  C   C64       1.0  0.01455  0.55212  0.40317  1.0000
  C   C65       1.0  0.01045  0.52893  0.38885  1.0000
  C   C66       1.0  0.01629  0.53392  0.36941  1.0000
  C   C67       1.0  0.02626  0.56232  0.36445  1.0000
  C   C68       1.0  0.03047  0.58514  0.37886  1.0000
  H   H128      1.0  0.00996  0.54809  0.41814  1.0000
  H   H129      1.0  0.00441  0.61867  0.44261  1.0000
  H   H130      1.0  0.01765  0.83097  0.31447  1.0000
  H   H131      1.0  0.03824  0.60644  0.37498  1.0000
  C   C69       1.0  0.05108  0.92567  0.34837  1.0000
  C   C70       1.0  0.06036  0.89821  0.33787  1.0000
  C   C71       1.0  0.06451  0.85492  0.34641  1.0000
  C   C72       1.0  0.05965  0.83856  0.36567  1.0000
  C   C73       1.0  0.05051  0.86624  0.37629  1.0000
  C   C74       1.0  0.04616  0.90925  0.36760  1.0000
  H   H132      1.0  0.06411  0.90998  0.32298  1.0000
  H   H133      1.0  0.07153  0.83383  0.33797  1.0000
  H   H134      1.0  0.04669  0.85442  0.39114  1.0000
  H   H135      1.0  0.03894  0.93005  0.37587  1.0000
  C   C75       1.0  0.03259  0.22238  0.31737  1.0000
  C   C76       1.0  0.02808  0.26776  0.31520  1.0000
  C   C77       1.0  0.02063  0.28736  0.33086  1.0000
  C   C78       1.0  0.01754  0.26159  0.34882  1.0000
  C   C79       1.0  0.02234  0.21643  0.35114  1.0000
  C   C80       1.0  0.02986  0.19685  0.33550  1.0000
  H   H136      1.0  0.03015  0.28772  0.30121  1.0000
  H   H137      1.0  0.01711  0.32222  0.32894  1.0000
  H   H138      1.0  0.20880  0.70973  0.47485  1.0000
  H   H139      1.0  0.03329  0.16187  0.33735  1.0000
  C   C81       1.0  0.12931  0.17086  0.28589  1.0000
  C   C82       1.0  0.13144  0.13324  0.29965  1.0000
  C   C83       1.0  0.12210  0.10206  0.30353  1.0000
  C   C84       1.0  0.11052  0.10788  0.29376  1.0000
  C   C85       1.0  0.10871  0.14436  0.27936  1.0000
  C   C86       1.0  0.11790  0.17601  0.27571  1.0000
  H   H140      1.0  0.14020  0.12847  0.30748  1.0000
  H   H141      1.0  0.08449  0.93664  0.33390  1.0000
  H   H142      1.0  0.10040  0.14754  0.27070  1.0000
  H   H143      1.0  0.11629  0.20435  0.26469  1.0000
  C   C87       1.0  0.22167  0.01232  0.34617  1.0000
  C   C88       1.0  0.20875  0.03227  0.34397  1.0000
  C   C89       1.0  0.20646  0.07456  0.33340  1.0000
  H   H144      1.0  0.22331  0.97977  0.35439  1.0000
  H   H145      1.0  0.20050  0.01479  0.35052  1.0000
  C   C90       1.0  0.18436  0.39969  0.37316  1.0000
  C   C91       1.0  0.19129  0.41442  0.35521  1.0000
  C   C92       1.0  0.19188  0.39077  0.33854  1.0000
  C   C93       1.0  0.18545  0.35217  0.33926  1.0000
  C   C94       1.0  0.17818  0.33826  0.35703  1.0000
  C   C95       1.0  0.17779  0.36142  0.37381  1.0000
  H   H146      1.0  0.19646  0.44354  0.35426  1.0000
  H   H147      1.0  0.19747  0.40238  0.32495  1.0000
  H   H148      1.0  0.17292  0.30939  0.35790  1.0000
  H   H149      1.0  0.17233  0.34953  0.38747  1.0000
  C   C96       1.0  0.13709  0.61922  0.41693  1.0000
  C   C97       1.0  0.13301  0.57951  0.42682  1.0000
  C   C98       1.0  0.11950  0.57387  0.43014  1.0000
  C   C99       1.0  0.10989  0.60825  0.42410  1.0000
  C   C100      1.0  0.11395  0.64839  0.41468  1.0000
  C   C101      1.0  0.12747  0.65365  0.41098  1.0000
  H   H150      1.0  0.14028  0.55320  0.43181  1.0000
  H   H151      1.0  0.11647  0.54279  0.43755  1.0000
  H   H152      1.0  0.10669  0.67512  0.40992  1.0000
  H   H153      1.0  0.13051  0.68458  0.40340  1.0000
  C   C102      1.0  0.22248  0.66560  0.38840  1.0000
  C   C103      1.0  0.21172  0.69807  0.38805  1.0000
  C   C104      1.0  0.21376  0.74330  0.38481  1.0000
  H   H154      1.0  0.20184  0.68837  0.38964  1.0000
  H   H155      1.0  0.20537  0.76817  0.38406  1.0000
  S   S43       1.0  0.99812  0.40338  0.38605  1.0000
  H   H156      1.0  0.13959  0.43676  0.43191  1.0000
  H   H157      1.0  0.14968  0.48181  0.42796  1.0000
  C   C105      1.0  0.11411  0.57876  0.37344  1.0000
  C   C106      1.0  0.23587  0.18330  0.27055  1.0000
  C   C107      1.0  0.10212  0.99636  0.35931  1.0000
  H   H158      1.0  0.22416  0.76767  0.32592  1.0000
  C   C108      1.0  0.24032  0.89662  0.25725  1.0000
  H   H159      1.0  0.21600  0.84466  0.31479  1.0000
  H   H160      1.0  0.15195  0.54939  0.33970  1.0000
  C   C109      1.0  0.22315  0.62728  0.44814  1.0000
  N   N4        1.0  0.14713  0.50293  0.36554  1.0000
  C   C110      1.0  0.12392  0.02683  0.36072  1.0000
  C   C111      1.0  0.24235  0.61486  0.33803  1.0000
  H   H161      1.0  0.10033  0.02477  0.34756  1.0000
  C   C112      1.0  0.01422  0.66472  0.46590  1.0000
  H   H162      1.0  0.04502  0.71356  0.37129  1.0000
  C   C113      1.0  0.13296  0.52143  0.36433  1.0000
  H   H163      1.0  0.12629  0.49686  0.37169  1.0000
  C   C114      1.0  0.22652  0.75655  0.38223  1.0000
  H   H164      1.0  0.21584  0.13182  0.27169  1.0000
  H   H165      1.0  0.17170  0.49126  0.34041  1.0000
  C   C115      1.0  0.17049  0.51835  0.34996  1.0000
  H   H166      1.0  0.01767  0.85095  0.37960  1.0000
  C   C116      1.0  0.06079  0.02144  0.37640  1.0000
  C   C117      1.0  0.21653  0.27671  0.38435  1.0000
  H   H167      1.0  0.07878  0.04105  0.36096  1.0000
  C   C118      1.0  0.01560  0.81595  0.38380  1.0000
  C   C119      1.0  0.02653  0.78422  0.37401  1.0000
  N   N5        1.0  0.22308  0.67065  0.45648  1.0000
  C   C120      1.0  0.00062  0.62196  0.49299  1.0000
  H   H168      1.0  0.20162  0.73763  0.44212  1.0000
  H   H169      1.0  0.04760  0.77507  0.34577  1.0000
  C   C121      1.0  0.08067  0.24719  0.26323  1.0000
  C   C122      1.0  0.22860  0.75121  0.44668  1.0000
  N   N6        1.0  0.20865  0.21464  0.36662  1.0000
  C   C123      1.0  0.19724  0.18665  0.37041  1.0000
  C   C124      1.0  0.21077  0.22761  0.34457  1.0000
  C   C125      1.0  0.22232  0.25538  0.33722  1.0000
  C   C126      1.0  0.18342  0.21129  0.36692  1.0000
  C   C127      1.0  0.22446  0.26120  0.31462  1.0000
  C   C128      1.0  0.17285  0.17924  0.37086  1.0000
  H   H170      1.0  0.19923  0.28134  0.36814  1.0000
  H   H171      1.0  0.19869  0.15945  0.36078  1.0000
  H   H172      1.0  0.21191  0.19776  0.33658  1.0000
  H   H173      1.0  0.20192  0.24779  0.33903  1.0000
  H   H174      1.0  0.23463  0.69994  0.32191  1.0000
  H   H175      1.0  0.22004  0.28910  0.34184  1.0000
  H   H176      1.0  0.02136  0.70740  0.33176  1.0000
  H   H177      1.0  0.18309  0.22726  0.35148  1.0000
  H   H178      1.0  0.18062  0.23725  0.37693  1.0000
  H   H179      1.0  0.07462  0.27957  0.26112  1.0000
  H   H180      1.0  0.11181  0.30843  0.30558  1.0000
  H   H181      1.0  0.00274  0.50730  0.39281  1.0000
  H   H182      1.0  0.16310  0.19757  0.36818  1.0000
  H   H183      1.0  0.17486  0.15309  0.36078  1.0000
  H   H184      1.0  0.17245  0.16337  0.38644  1.0000
  N   N7        1.0  0.07751  0.24555  0.30157  1.0000
  C   C129      1.0  0.06664  0.28329  0.30093  1.0000
  C   C130      1.0  0.07723  0.22141  0.28377  1.0000
  C   C131      1.0  0.07446  0.21347  0.31980  1.0000
  C   C132      1.0  0.09097  0.26020  0.30246  1.0000
  C   C133      1.0  0.09361  0.30684  0.29194  1.0000
  C   C134      1.0  0.06350  0.30616  0.32005  1.0000
  C   C135      1.0  0.08401  0.17021  0.32236  1.0000
  H   H185      1.0  0.23970  0.01553  0.29343  1.0000
  H   H186      1.0  0.01889  0.75855  0.31611  1.0000
  C   C136      1.0  0.10824  0.31292  0.29060  1.0000
  C   C137      1.0  0.05495  0.35020  0.31626  1.0000
  C   C138      1.0  0.08225  0.14604  0.34332  1.0000
  H   H187      1.0  0.23159  0.59481  0.48419  1.0000
  H   H188      1.0  0.19218  0.99953  0.28404  1.0000
  H   H189      1.0  0.08425  0.19122  0.28451  1.0000
  H   H190      1.0  0.06742  0.20951  0.28376  1.0000
  H   H191      1.0  0.06432  0.20366  0.32010  1.0000
  H   H192      1.0  0.07461  0.22963  0.33341  1.0000
  H   H193      1.0  0.09310  0.26017  0.31811  1.0000
  H   H194      1.0  0.09871  0.23563  0.29638  1.0000
  H   H195      1.0  0.08816  0.33295  0.30037  1.0000
  H   H196      1.0  0.22897  0.55659  0.42590  1.0000
  H   H197      1.0  0.05787  0.28471  0.33148  1.0000
  C   C139      1.0  0.23726  0.72412  0.38359  1.0000
  H   H198      1.0  0.09445  0.17674  0.31936  1.0000
  H   H199      1.0  0.08202  0.14727  0.31204  1.0000
  N   N8        1.0  0.22487  0.06851  0.26352  1.0000
  H   H200      1.0  0.23142  0.81850  0.43370  1.0000
  H   H201      1.0  0.22220  0.70769  0.42731  1.0000
  H   H202      1.0  0.23015  0.89586  0.25329  1.0000
  H   H203      1.0  0.06034  0.37412  0.30576  1.0000
  H   H204      1.0  0.10990  0.34676  0.28344  1.0000
  H   H205      1.0  0.01894  0.75046  0.45017  1.0000
  H   H206      1.0  0.11411  0.28854  0.28157  1.0000
  H   H207      1.0  0.00133  0.54252  0.45755  1.0000
  H   H208      1.0  0.04572  0.34512  0.31014  1.0000
  H   H209      1.0  0.05227  0.36450  0.33039  1.0000
  H   H210      1.0  0.08522  0.16609  0.35419  1.0000
  H   H211      1.0  0.07185  0.13938  0.34729  1.0000
  H   H212      1.0  0.08856  0.11390  0.34411  1.0000
  N   N9        1.0  0.05244  0.45206  0.41100  1.0000
  C   C140      1.0  0.05205  0.42875  0.39293  1.0000
  C   C141      1.0  0.06162  0.42525  0.42515  1.0000
  C   C142      1.0  0.03874  0.45521  0.42145  1.0000
  C   C143      1.0  0.05629  0.49847  0.40563  1.0000
  C   C144      1.0  0.06970  0.50276  0.39340  1.0000
  C   C145      1.0  0.04267  0.45161  0.37741  1.0000
  C   C146      1.0  0.03706  0.47598  0.44123  1.0000
  C   C147      1.0  0.07358  0.39609  0.41611  1.0000
  C   C148      1.0  0.08308  0.37759  0.43165  1.0000
  C   C149      1.0  0.07221  0.55128  0.38840  1.0000
  C   C150      1.0  0.04399  0.42657  0.35927  1.0000
  C   C151      1.0  0.02380  0.46782  0.45256  1.0000
  H   H213      1.0  0.04914  0.39469  0.39758  1.0000
  H   H214      1.0  0.06193  0.42411  0.38481  1.0000
  H   H215      1.0  0.06544  0.44738  0.43445  1.0000
  H   H216      1.0  0.05620  0.40151  0.43586  1.0000
  H   H217      1.0  0.03518  0.42169  0.42428  1.0000
  H   H218      1.0  0.03169  0.47597  0.41198  1.0000
  H   H219      1.0  0.04859  0.51988  0.39759  1.0000
  H   H220      1.0  0.05676  0.51444  0.41923  1.0000
  H   H221      1.0  0.07012  0.48844  0.37925  1.0000
  H   H222      1.0  0.07779  0.48637  0.40212  1.0000
  H   H223      1.0  0.03225  0.45218  0.38354  1.0000
  H   H224      1.0  0.04493  0.48596  0.37222  1.0000
  H   H225      1.0  0.03741  0.51241  0.43819  1.0000
  H   H226      1.0  0.04480  0.46223  0.45111  1.0000
  H   H227      1.0  0.07012  0.36743  0.41043  1.0000
  H   H228      1.0  0.07919  0.41456  0.40369  1.0000
  H   H229      1.0  0.08725  0.40498  0.43725  1.0000
  H   H230      1.0  0.07800  0.35758  0.44426  1.0000
  H   H231      1.0  0.09132  0.35594  0.42493  1.0000
  H   H232      1.0  0.07268  0.56624  0.40223  1.0000
  H   H233      1.0  0.08179  0.55377  0.37939  1.0000
  H   H234      1.0  0.06433  0.57023  0.37987  1.0000
  H   H235      1.0  0.05416  0.42581  0.35194  1.0000
  H   H236      1.0  0.04138  0.39217  0.36355  1.0000
  H   H237      1.0  0.03715  0.44355  0.34846  1.0000
  H   H238      1.0  0.01567  0.48184  0.44338  1.0000
  C   C152      1.0  0.00697  0.45752  0.25158  1.0000
  H   H239      1.0  0.18758  0.60243  0.49052  1.0000
  H   H240      1.0  0.23254  0.86016  0.31035  1.0000
  H   H241      1.0  0.23043  0.69683  0.48055  1.0000
  C   C153      1.0  0.14686  0.45362  0.42129  1.0000
  C   C154      1.0  0.21565  0.04151  0.27743  1.0000
  H   H242      1.0  0.23166  0.23957  0.34289  1.0000
  H   H243      1.0  0.01519  0.55214  0.47941  1.0000
  H   H244      1.0  0.23705  0.75043  0.45565  1.0000
  H   H245      1.0  0.03613  0.79322  0.37750  1.0000
  H   H246      1.0  0.03505  0.84543  0.34660  1.0000
  H   H247      1.0  0.00720  0.83089  0.41295  1.0000
  C   C155      1.0  0.04181  0.71016  0.35662  1.0000
  H   H248      1.0  0.03565  0.61742  0.47975  1.0000
  H   H249      1.0  0.10980  0.93218  0.29125  1.0000
  H   H250      1.0  0.23834  0.09490  0.32119  1.0000
  H   H251      1.0  0.11962  0.96159  0.37270  1.0000
  C   C156      1.0  0.22806  0.70460  0.44031  1.0000
  C   C157      1.0  0.19951  0.70369  0.44854  1.0000
  H   H252      1.0  0.09606  0.97362  0.29399  1.0000
  H   H253      1.0  0.04535  0.54807  0.46648  1.0000
  H   H254      1.0  0.05730  0.27134  0.29793  1.0000
  C   C158      1.0  0.23117  0.78902  0.31698  1.0000
  H   H255      1.0  0.18227  0.04517  0.29431  1.0000
  H   H256      1.0  0.20041  0.68313  0.43621  1.0000
  C   C159      1.0  0.23525  0.67884  0.38637  1.0000
  C   C160      1.0  0.21718  0.09694  0.32512  1.0000
  H   H257      1.0  0.22483  0.28045  0.37281  1.0000
  H   H258      1.0  0.21552  0.12972  0.31719  1.0000
  H   H259      1.0  0.00220  0.70898  0.31313  1.0000
  H   H260      1.0  0.17490  0.56661  0.32443  1.0000
  H   H261      1.0  0.17756  0.58357  0.34795  1.0000
  C   C161      1.0  0.14086  0.46984  0.40180  1.0000
  C   C162      1.0  0.20511  0.25527  0.37739  1.0000
  C   C163      1.0  0.09206  0.95882  0.33536  1.0000
  C   C164      1.0  0.02888  0.88629  0.31147  1.0000
  H   H262      1.0  0.15572  0.42974  0.41884  1.0000
  H   H263      1.0  0.20324  0.32132  0.40175  1.0000
  H   H264      1.0  0.24478  0.05764  0.24975  1.0000
  H   H265      1.0  0.21726  0.63183  0.43514  1.0000
  H   H266      1.0  0.02103  0.66127  0.45225  1.0000
  H   H267      1.0  0.03923  0.75254  0.32906  1.0000
  H   H268      1.0  0.13175  0.49195  0.40513  1.0000
  H   H269      1.0  0.21837  0.17747  0.39097  1.0000
  H   H270      1.0  0.08182  0.96494  0.38429  1.0000
  C   C165      1.0  0.05288  0.68219  0.34580  1.0000
  H   H271      1.0  0.13803  0.44036  0.39615  1.0000
  H   H272      1.0  0.19666  0.17015  0.38596  1.0000
  H   H273      1.0  0.22912  0.20589  0.37320  1.0000
  H   H274      1.0  0.10156  0.91657  0.38185  1.0000
  H   H275      1.0  0.23823  0.69353  0.43440  1.0000
  C   C166      1.0  0.09315  0.87393  0.36481  1.0000
  H   H276      1.0  0.02559  0.75051  0.38206  1.0000
  H   H277      1.0  0.21551  0.27868  0.30815  1.0000
  H   H278      1.0  0.15162  0.52687  0.39250  1.0000
  H   H279      1.0  0.02263  0.48381  0.46636  1.0000
  C   C167      1.0  0.23683  0.60476  0.44104  1.0000
  H   H280      1.0  0.05001  0.67611  0.33127  1.0000
  H   H281      1.0  0.99536  0.70556  0.47212  1.0000
  C   C168      1.0  0.22047  0.18688  0.37473  1.0000
  C   C169      1.0  0.21183  0.32265  0.39047  1.0000
  H   H282      1.0  0.18379  0.72779  0.46971  1.0000
  H   H283      1.0  0.19867  0.24728  0.39124  1.0000
  H   H284      1.0  0.21810  0.60300  0.45907  1.0000
  H   H285      1.0  0.06199  0.69922  0.34352  1.0000
  H   H286      1.0  0.09125  0.25238  0.26145  1.0000
  H   H287      1.0  0.22039  0.25567  0.39742  1.0000
  C   C170      1.0  0.07830  0.22109  0.24657  1.0000
  H   H288      1.0  0.17489  0.50536  0.36394  1.0000
  C   C171      1.0  0.20913  0.68465  0.46435  1.0000
  C   C172      1.0  0.15057  0.49513  0.38674  1.0000
  H   H289      1.0  0.13062  0.52748  0.34864  1.0000
  H   H290      1.0  0.20903  0.34591  0.37737  1.0000
  H   H291      1.0  0.06865  0.30910  0.28839  1.0000
  C   C173      1.0  0.22558  0.11161  0.27160  1.0000
  H   H292      1.0  0.13383  0.59317  0.36352  1.0000
  H   H293      1.0  0.16043  0.47632  0.38752  1.0000
  H   H294      1.0  0.11164  0.61209  0.37844  1.0000
  H   H295      1.0  0.11064  0.57989  0.35853  1.0000
  H   H296      1.0  0.05490  0.05254  0.37088  1.0000
  H   H297      1.0  0.03294  0.69203  0.35914  1.0000
  H   H298      1.0  0.24310  0.20462  0.26221  1.0000
  H   H299      1.0  0.21986  0.33583  0.39682  1.0000
  H   H300      1.0  0.08351  0.87589  0.37377  1.0000
  C   C174      1.0  0.10044  0.91505  0.36592  1.0000
  C   C175      1.0  0.12896  0.56615  0.37284  1.0000
  H   H301      1.0  0.14260  0.43559  0.36517  1.0000
  H   H302      1.0  0.10886  0.55473  0.38409  1.0000
  H   H303      1.0  0.23248  0.53688  0.45103  1.0000
  H   H304      1.0  0.22683  0.22852  0.30897  1.0000
  H   H305      1.0  0.07428  0.94218  0.36624  1.0000
  C   C176      1.0  0.14932  0.45911  0.35715  1.0000
  H   H306      1.0  0.15559  0.56528  0.36226  1.0000
  H   H307      1.0  0.15934  0.44249  0.35963  1.0000
  H   H308      1.0  0.01190  0.42373  0.25558  1.0000
  C   C177      1.0  0.01418  0.76404  0.34825  1.0000
  H   H309      1.0  0.09052  0.31284  0.27675  1.0000
  H   H310      1.0  0.11056  0.90759  0.35899  1.0000
  C   C178      1.0  0.23009  0.07714  0.32741  1.0000
  H   H311      1.0  0.05472  0.64485  0.49444  1.0000
  H   H312      1.0  0.19699  0.07129  0.26524  1.0000
  H   H313      1.0  0.11111  0.97263  0.31979  1.0000
  C   C179      1.0  0.08078  0.96761  0.36809  1.0000
  C   C180      1.0  0.15580  0.53585  0.35412  1.0000
  H   H314      1.0  0.13179  0.56472  0.38806  1.0000
  H   H315      1.0  0.23091  0.78502  0.30117  1.0000
  H   H316      1.0  0.00581  0.81196  0.37922  1.0000
  N   N10       1.0  0.00838  0.62173  0.47291  1.0000
  H   H317      1.0  0.15229  0.48705  0.32552  1.0000
  H   H318      1.0  0.21884  0.03658  0.29268  1.0000
  C   C181      1.0  0.14717  0.46086  0.33491  1.0000
  H   H319      1.0  0.13652  0.46734  0.33286  1.0000
  H   H320      1.0  0.06934  0.01226  0.34713  1.0000
  H   H321      1.0  0.13475  0.01838  0.36004  1.0000
  C   C182      1.0  0.10102  0.83121  0.37304  1.0000
  H   H322      1.0  0.10976  0.91414  0.32709  1.0000
  H   H323      1.0  0.07261  0.31227  0.32614  1.0000
  S   S44       1.0  0.00744  0.28403  0.36846  1.0000
  C   C183      1.0  0.23567  0.14193  0.26030  1.0000
  C   C184      1.0  0.22522  0.14386  0.36519  1.0000
  C   C185      1.0  0.23239  0.03481  0.33795  1.0000
  H   H324      1.0  0.24363  0.65391  0.38686  1.0000
  C   C186      1.0  0.17841  0.55502  0.33923  1.0000
  C   C187      1.0  0.22943  0.62753  0.48984  1.0000
  H   H325      1.0  0.02452  0.81230  0.41160  1.0000
  H   H326      1.0  0.24357  0.83360  0.46311  1.0000
  H   H327      1.0  0.18895  0.54202  0.33719  1.0000
  H   H328      1.0  0.03083  0.56624  0.34943  1.0000
  C   C188      1.0  0.01491  0.73908  0.32971  1.0000
  C   C189      1.0  0.11725  0.98529  0.35950  1.0000
  N   N11       1.0  0.09411  0.95911  0.35686  1.0000
  S   S45       1.0  0.22844  0.81392  0.37730  1.0000
  H   H329      1.0  0.02868  0.89132  0.29512  1.0000
  H   H330      1.0  0.22836  0.15197  0.34925  1.0000
  H   H331      1.0  0.01641  0.14657  0.31053  1.0000
  S   S46       1.0  0.01171  0.50422  0.35114  1.0000
  H   H332      1.0  0.00279  0.77751  0.45650  1.0000
  H   H333      1.0  0.14755  0.38893  0.33614  1.0000
  H   H334      1.0  0.21597  0.00752  0.27314  1.0000
  C   C190      1.0  0.01497  0.80735  0.40638  1.0000
  C   C191      1.0  0.02708  0.83801  0.31931  1.0000
  C   C192      1.0  0.23818  0.04191  0.26192  1.0000
  H   H335      1.0  0.02324  0.57931  0.45767  1.0000
  H   H336      1.0  0.01761  0.85156  0.34729  1.0000
  H   H337      1.0  0.00632  0.10245  0.31028  1.0000
  N   N12       1.0  0.02645  0.78342  0.35195  1.0000
  C   C193      1.0  0.99927  0.61480  0.45785  1.0000
  H   H338      1.0  0.02090  0.90918  0.31802  1.0000
  H   H339      1.0  0.09159  0.87064  0.34930  1.0000
  H   H340      1.0  0.17863  0.72096  0.44596  1.0000
  C   C194      1.0  0.02657  0.83062  0.34217  1.0000
  H   H341      1.0  0.05501  0.64972  0.35481  1.0000
  H   H342      1.0  0.23436  0.10854  0.39093  1.0000
  H   H343      1.0  0.00576  0.79049  0.34736  1.0000
  H   H344      1.0  0.21954  0.76245  0.45569  1.0000
  H   H345      1.0  0.03533  0.81717  0.31226  1.0000
  H   H346      1.0  0.06379  0.02497  0.39119  1.0000
  H   H347      1.0  0.10265  0.83223  0.38876  1.0000
  C   C195      1.0  0.19246  0.02890  0.29190  1.0000
  H   H348      1.0  0.02005  0.19630  0.36502  1.0000
  C   C196      1.0  0.03897  0.75673  0.34493  1.0000
  C   C197      1.0  0.10443  0.94616  0.32152  1.0000
  H   H349      1.0  0.05447  0.99396  0.37784  1.0000
  C   C198      1.0  0.23592  0.55718  0.43718  1.0000
  H   H350      1.0  0.09891  0.00996  0.37360  1.0000
  H   H351      1.0  0.12058  0.04060  0.37486  1.0000
  C   C199      1.0  0.15223  0.41678  0.32715  1.0000
  C   C200      1.0  0.07286  0.01274  0.36185  1.0000
  H   H352      1.0  0.09545  0.80254  0.37232  1.0000
  H   H353      1.0  0.02052  0.67303  0.47680  1.0000
  H   H354      1.0  0.16306  0.41043  0.32754  1.0000
  C   C201      1.0  0.23179  0.66598  0.47322  1.0000
  C   C202      1.0  0.10078  0.94159  0.30084  1.0000
  H   H355      1.0  0.03849  0.89493  0.31500  1.0000
  H   H356      1.0  0.12168  0.97043  0.34612  1.0000
  H   H357      1.0  0.22165  0.79012  0.42023  1.0000
  H   H358      1.0  0.23205  0.61947  0.33398  1.0000
  H   H359      1.0  0.04996  0.55149  0.49084  1.0000
  H   H360      1.0  0.11066  0.82602  0.36422  1.0000
  H   H361      1.0  0.08792  0.99219  0.32887  1.0000
  H   H362      1.0  0.21743  0.12115  0.36680  1.0000
  C   C203      1.0  0.22611  0.83713  0.31951  1.0000
  H   H363      1.0  0.22575  0.84280  0.33527  1.0000
  C   C204      1.0  0.01918  0.58368  0.47311  1.0000
  H   H364      1.0  0.12388  0.07320  0.31416  1.0000
  C   C205      1.0  0.20112  0.06175  0.27969  1.0000
  H   H365      1.0  0.99543  0.44566  0.43339  1.0000
  H   H366      1.0  0.09399  0.91567  0.30151  1.0000
  C   C206      1.0  0.00410  0.70559  0.46115  1.0000
  H   H367      1.0  0.18245  0.67292  0.46336  1.0000
  H   H368      1.0  0.14999  0.41792  0.31155  1.0000
  H   H369      1.0  0.20034  0.09157  0.28755  1.0000
  H   H370      1.0  0.12165  0.05258  0.34821  1.0000
  H   H371      1.0  0.20481  0.65607  0.47341  1.0000
  H   H372      1.0  0.23986  0.91644  0.26986  1.0000
  H   H373      1.0  0.01113  0.73969  0.36102  1.0000
  H   H374      1.0  0.24378  0.77640  0.34042  1.0000
  H   H375      1.0  0.23276  0.28139  0.30971  1.0000
  H   H376      1.0  0.00704  0.14555  0.28969  1.0000
  H   H377      1.0  0.01260  0.77305  0.41166  1.0000
  C   C207      1.0  0.00134  0.72761  0.32618  1.0000
  Fe  Fe23      1.0  0.99710  0.45268  0.35879  1.0000
  H   H378      1.0  0.00462  0.22361  0.31875  1.0000
  C   C208      1.0  0.23040  0.78600  0.42879  1.0000
  H   H379      1.0  0.22604  0.20282  0.27098  1.0000
  H   H380      1.0  0.24022  0.08781  0.36783  1.0000
  C   C209      1.0  0.00699  0.13847  0.30604  1.0000
  H   H381      1.0  0.23871  0.17401  0.28589  1.0000
  C   C210      1.0  0.01007  0.74911  0.46089  1.0000
  C   C211      1.0  0.18524  0.70651  0.45753  1.0000
  C   C212      1.0  0.23702  0.11841  0.37493  1.0000
  H   H382      1.0  0.00592  0.47553  0.26485  1.0000
  H   H383      1.0  0.01287  0.75250  0.47583  1.0000
  H   H384      1.0  0.00429  0.39814  0.44646  1.0000
  C   C213      1.0  0.03098  0.58673  0.48493  1.0000
  H   H385      1.0  0.00073  0.70498  0.44628  1.0000
  H   H386      1.0  0.24406  0.60313  0.45207  1.0000
  H   H387      1.0  0.23720  0.00868  0.25771  1.0000
  H   H388      1.0  0.00449  0.29376  0.29081  1.0000
  S   S47       1.0  0.99693  0.40108  0.33802  1.0000
  Fe  Fe24      1.0  0.99617  0.35290  0.36557  1.0000
  H   H389      1.0  0.06776  0.21564  0.24729  1.0000
  H   H390      1.0  0.99805  0.36475  0.27165  1.0000
  H   H391      1.0  0.24073  0.62320  0.42699  1.0000
  C   C214      1.0  0.04160  0.54803  0.48231  1.0000
  H   H392      1.0  0.24236  0.66257  0.46755  1.0000
  H   H393      1.0  0.99915  0.22160  0.29517  1.0000
  H   H394      1.0  0.03769  0.51597  0.48788  1.0000
  H   H395      1.0  0.08438  0.18849  0.24759  1.0000
  H   H396      1.0  0.23935  0.77637  0.41906  1.0000
  H   H397      1.0  0.99770  0.37209  0.29743  1.0000
  H   H398      1.0  0.24196  0.69935  0.34404  1.0000
  H   H399      1.0  0.99564  0.15522  0.33249  1.0000
  C   C215      1.0  0.99621  0.21574  0.31134  1.0000
  H   H400      1.0  0.24228  0.61803  0.35403  1.0000
  H   H401      1.0  0.99715  0.70649  0.33923  1.0000
  H   H402      1.0  0.24449  0.86230  0.26214  1.0000
  H   H403      1.0  0.24430  0.72431  0.29117  1.0000
  C   C216      1.0  0.24437  0.69657  0.32798  1.0000
  C   C217      1.0  0.99534  0.16514  0.31632  1.0000
  H   H404      1.0  0.99513  0.45245  0.46947  1.0000
  S   S48       1.0  0.20051  0.72092  0.73592  1.0000
  H   H405      1.0  0.07622  0.53328  0.66006  1.0000
  S   S49       1.0  0.21518  0.57634  0.60916  1.0000
  H   H406      1.0  0.04409  0.53270  0.59158  1.0000
  S   S50       1.0  0.22025  0.67774  0.59329  1.0000
  Fe  Fe25      1.0  0.21821  0.63645  0.62348  1.0000
  S   S51       1.0  0.20463  0.64119  0.65265  1.0000
  Fe  Fe26      1.0  0.21904  0.61519  0.57913  1.0000
  S   S52       1.0  0.20661  0.62053  0.55219  1.0000
  H   H407      1.0  0.22980  0.49619  0.66337  1.0000
  H   H408      1.0  0.21901  0.52031  0.69790  1.0000
  Fe  Fe27      1.0  0.01642  0.63092  0.58701  1.0000
  S   S53       1.0  0.00993  0.56748  0.60383  1.0000
  S   S54       1.0  0.03257  0.62097  0.56173  1.0000
  H   H409      1.0  0.03868  0.62702  0.64591  1.0000
  C   C218      1.0  0.23813  0.62783  0.50661  1.0000
  Fe  Fe28      1.0  0.01103  0.59841  0.63190  1.0000
  S   S55       1.0  0.01998  0.55548  0.65849  1.0000
  C   C219      1.0  0.07111  0.62041  0.62872  1.0000
  S   S56       1.0  0.01903  0.65902  0.61507  1.0000
  Fe  Fe29      1.0  0.23707  0.55970  0.60900  1.0000
  H   H410      1.0  0.06473  0.55562  0.70143  1.0000
  H   H411      1.0  0.23870  0.81268  0.51448  1.0000
  C   C220      1.0  0.04478  0.63508  0.52397  1.0000
  C   C221      1.0  0.03525  0.65237  0.53807  1.0000
  C   C222      1.0  0.02830  0.69376  0.53297  1.0000
  C   C223      1.0  0.99857  0.63911  0.52869  1.0000
  C   C224      1.0  0.22395  0.54256  0.68595  1.0000
  H   H412      1.0  0.05032  0.60336  0.52777  1.0000
  H   H413      1.0  0.02105  0.70779  0.54368  1.0000
  H   H414      1.0  0.06850  0.61746  0.66674  1.0000
  C   C225      1.0  0.03644  0.58752  0.71515  1.0000
  C   C226      1.0  0.03038  0.62169  0.70218  1.0000
  C   C227      1.0  0.02514  0.61257  0.68500  1.0000
  C   C228      1.0  0.02600  0.56904  0.68035  1.0000
  C   C229      1.0  0.03205  0.53486  0.69331  1.0000
  C   C230      1.0  0.03719  0.54392  0.71059  1.0000
  H   H415      1.0  0.02968  0.65554  0.70549  1.0000
  H   H416      1.0  0.02040  0.63925  0.67540  1.0000
  H   H417      1.0  0.03278  0.50102  0.68996  1.0000
  H   H418      1.0  0.04180  0.51719  0.72032  1.0000
  H   H419      1.0  0.20656  0.48593  0.67577  1.0000
  C   C231      1.0  0.04810  0.64024  0.63976  1.0000
  N   N13       1.0  0.05936  0.60376  0.64132  1.0000
  C   C232      1.0  0.21316  0.55248  0.52763  1.0000
  C   C233      1.0  0.20523  0.59157  0.53131  1.0000
  C   C234      1.0  0.19599  0.60913  0.51769  1.0000
  H   H420      1.0  0.07612  0.50845  0.69604  1.0000
  H   H421      1.0  0.23280  0.61740  0.69658  1.0000
  H   H422      1.0  0.22028  0.53824  0.53787  1.0000
  H   H423      1.0  0.18972  0.63911  0.52031  1.0000
  C   C235      1.0  0.19479  0.58845  0.50065  1.0000
  C   C236      1.0  0.20218  0.69641  0.71322  1.0000
  C   C237      1.0  0.19633  0.65837  0.71122  1.0000
  C   C238      1.0  0.19742  0.64163  0.69272  1.0000
  C   C239      1.0  0.20470  0.66170  0.67601  1.0000
  C   C240      1.0  0.21109  0.69844  0.67826  1.0000
  C   C241      1.0  0.20976  0.71576  0.69667  1.0000
  H   H424      1.0  0.19097  0.64178  0.72392  1.0000
  H   H425      1.0  0.19254  0.61290  0.69131  1.0000
  H   H426      1.0  0.21672  0.71445  0.66565  1.0000
  H   H427      1.0  0.21452  0.74481  0.69801  1.0000
  H   H428      1.0  0.20162  0.54287  0.66613  1.0000
  H   H429      1.0  0.03723  0.72814  0.63051  1.0000
  C   C242      1.0  0.16218  0.66466  0.66171  1.0000
  C   C243      1.0  0.03750  0.71671  0.64657  1.0000
  H   H430      1.0  0.23718  0.49373  0.71436  1.0000
  H   H431      1.0  0.07412  0.64967  0.63447  1.0000
  H   H432      1.0  0.06849  0.63284  0.61345  1.0000
  H   H433      1.0  0.10310  0.58235  0.61133  1.0000
  H   H434      1.0  0.00017  0.58744  0.50037  1.0000
  H   H435      1.0  0.21763  0.57474  0.68518  1.0000
  H   H436      1.0  0.13185  0.69726  0.73497  1.0000
  H   H437      1.0  0.08111  0.56355  0.69012  1.0000
  H   H438      1.0  0.17133  0.75653  0.73413  1.0000
  H   H439      1.0  0.22856  0.54539  0.73236  1.0000
  H   H440      1.0  0.11916  0.76892  0.74110  1.0000
  H   H441      1.0  0.23641  0.59946  0.51813  1.0000
  H   H442      1.0  0.23885  0.73272  0.52763  1.0000
  C   C244      1.0  0.07275  0.54335  0.69067  1.0000
  H   H443      1.0  0.10937  0.73243  0.73181  1.0000
  C   C245      1.0  0.22617  0.57769  0.72344  1.0000
  H   H444      1.0  0.03837  0.74578  0.65434  1.0000
  H   H445      1.0  0.22688  0.76737  0.54147  1.0000
  H   H446      1.0  0.00305  0.43446  0.55448  1.0000
  H   H447      1.0  0.12809  0.70656  0.70939  1.0000
  S   S57       1.0  0.24330  0.48999  0.62343  1.0000
  H   H448      1.0  0.21597  0.57913  0.71926  1.0000
  C   C246      1.0  0.04693  0.52713  0.60702  1.0000
  H   H449      1.0  0.16006  0.62749  0.70994  1.0000
  H   H450      1.0  0.09673  0.63798  0.61574  1.0000
  H   H451      1.0  0.13933  0.77970  0.70691  1.0000
  C   C247      1.0  0.22282  0.52563  0.66583  1.0000
  H   H452      1.0  0.17208  0.67113  0.68714  1.0000
  H   H453      1.0  0.04689  0.65277  0.62397  1.0000
  C   C248      1.0  0.20898  0.51370  0.66433  1.0000
  H   H454      1.0  0.01606  0.64311  0.50897  1.0000
  C   C249      1.0  0.16526  0.69204  0.67745  1.0000
  H   H455      1.0  0.17450  0.74222  0.69875  1.0000
  C   C250      1.0  0.15978  0.68831  0.72416  1.0000
  C   C251      1.0  0.13017  0.72272  0.72213  1.0000
  H   H456      1.0  0.22487  0.55210  0.65351  1.0000
  H   H457      1.0  0.17147  0.65365  0.65302  1.0000
  C   C252      1.0  0.15262  0.70991  0.68970  1.0000
  H   H458      1.0  0.24045  0.40236  0.59218  1.0000
  H   H459      1.0  0.08799  0.58121  0.64161  1.0000
  H   H460      1.0  0.14580  0.68388  0.69200  1.0000
  H   H461      1.0  0.23568  0.65879  0.51369  1.0000
  H   H462      1.0  0.02786  0.58503  0.50098  1.0000
  H   H463      1.0  0.06269  0.53497  0.63525  1.0000
  H   H464      1.0  0.03824  0.51746  0.61703  1.0000
  H   H465      1.0  0.00126  0.60402  0.53463  1.0000
  H   H466      1.0  0.05824  0.69741  0.64454  1.0000
  C   C253      1.0  0.23757  0.75885  0.53772  1.0000
  H   H467      1.0  0.15552  0.68479  0.65141  1.0000
  C   C254      1.0  0.14217  0.74966  0.71728  1.0000
  H   H468      1.0  0.11534  0.77842  0.71552  1.0000
  H   H469      1.0  0.05983  0.57843  0.60180  1.0000
  H   H470      1.0  0.09046  0.61186  0.59688  1.0000
  H   H471      1.0  0.02810  0.70311  0.65231  1.0000
  S   S58       1.0  0.24002  0.61826  0.62393  1.0000
  H   H472      1.0  0.20842  0.50333  0.64949  1.0000
  C   C255      1.0  0.15536  0.64172  0.72338  1.0000
  H   H473      1.0  0.05276  0.59839  0.67264  1.0000
  H   H474      1.0  0.17068  0.68374  0.72280  1.0000
  H   H475      1.0  0.17049  0.72008  0.66970  1.0000
  C   C256      1.0  0.04918  0.68176  0.65018  1.0000
  C   C257      1.0  0.24394  0.50688  0.70179  1.0000
  N   N14       1.0  0.15481  0.72550  0.70906  1.0000
  H   H476      1.0  0.22465  0.64725  0.72851  1.0000
  H   H477      1.0  0.08163  0.55550  0.62269  1.0000
  H   H478      1.0  0.04644  0.55237  0.64381  1.0000
  H   H479      1.0  0.05501  0.49972  0.60808  1.0000
  C   C258      1.0  0.99765  0.47539  0.64064  1.0000
  C   C259      1.0  0.21191  0.53170  0.51066  1.0000
  C   C260      1.0  0.04025  0.69967  0.49983  1.0000
  H   H480      1.0  0.24206  0.74547  0.55164  1.0000
  H   H481      1.0  0.16178  0.78505  0.69251  1.0000
  C   C261      1.0  0.05506  0.56365  0.63404  1.0000
  C   C262      1.0  0.06207  0.59358  0.66288  1.0000
  H   H482      1.0  0.17022  0.60522  0.74150  1.0000
  C   C263      1.0  0.16797  0.78171  0.72205  1.0000
  H   H483      1.0  0.04923  0.67317  0.66644  1.0000
  C   C264      1.0  0.06791  0.54579  0.67013  1.0000
  C   C265      1.0  0.16486  0.75866  0.70447  1.0000
  H   H484      1.0  0.17550  0.83984  0.70460  1.0000
  H   H485      1.0  0.14765  0.73757  0.67998  1.0000
  H   H486      1.0  0.00509  0.45043  0.64747  1.0000
  C   C266      1.0  0.20278  0.54951  0.49693  1.0000
  H   H487      1.0  0.15756  0.63474  0.66871  1.0000
  C   C267      1.0  0.17884  0.81210  0.71570  1.0000
  H   H488      1.0  0.14461  0.64270  0.72311  1.0000
  H   H489      1.0  0.00156  0.38471  0.50811  1.0000
  C   C268      1.0  0.11777  0.75265  0.72797  1.0000
  C   C269      1.0  0.05133  0.56972  0.61237  1.0000
  H   H490      1.0  0.04304  0.59585  0.61010  1.0000
  H   H491      1.0  0.00314  0.68545  0.50328  1.0000
  H   H492      1.0  0.23602  0.61083  0.74317  1.0000
  C   C270      1.0  0.03082  0.71725  0.51400  1.0000
  H   H493      1.0  0.06017  0.52284  0.67122  1.0000
  C   C271      1.0  0.08365  0.58734  0.62719  1.0000
  C   C272      1.0  0.09409  0.60621  0.61184  1.0000
  H   H494      1.0  0.24197  0.82500  0.53862  1.0000
  C   C273      1.0  0.15936  0.60937  0.74120  1.0000
  C   C274      1.0  0.04728  0.65852  0.50501  1.0000
  H   H495      1.0  0.24097  0.59736  0.66578  1.0000
  Fe  Fe30      1.0  0.24195  0.65500  0.59314  1.0000
  H   H496      1.0  0.00958  0.45357  0.52980  1.0000
  S   S59       1.0  0.04306  0.60166  0.73644  1.0000
  H   H497      1.0  0.14352  0.76161  0.73154  1.0000
  H   H498      1.0  0.01132  0.39491  0.53881  1.0000
  H   H499      1.0  0.21810  0.50149  0.50814  1.0000
  H   H500      1.0  0.18143  0.82608  0.72880  1.0000
  N   N15       1.0  0.23754  0.54886  0.69103  1.0000
  H   H501      1.0  0.00115  0.50856  0.63990  1.0000
  H   H502      1.0  0.18784  0.79346  0.70923  1.0000
  C   C275      1.0  0.23604  0.58452  0.70474  1.0000
  S   S60       1.0  0.24081  0.59414  0.57806  1.0000
  H   H503      1.0  0.02542  0.74927  0.51028  1.0000
  C   C276      1.0  0.00472  0.42635  0.53899  1.0000
  H   H504      1.0  0.15930  0.80282  0.72787  1.0000
  C   C277      1.0  0.24380  0.80019  0.52790  1.0000
  S   S61       1.0  0.99582  0.66400  0.58490  1.0000
  H   H505      1.0  0.24224  0.77015  0.59240  1.0000
  C   C278      1.0  0.22640  0.61379  0.73685  1.0000
  H   H506      1.0  0.99677  0.46792  0.62540  1.0000
  H   H507      1.0  0.99730  0.44146  0.50101  1.0000
  C   C279      1.0  0.00537  0.64944  0.50791  1.0000
  H   H508      1.0  0.00180  0.66052  0.53878  1.0000
  H   H509      1.0  0.23949  0.45304  0.68622  1.0000
  H   H510      1.0  0.15708  0.69738  0.73945  1.0000
  Fe  Fe31      1.0  0.99778  0.68727  0.61432  1.0000
  H   H511      1.0  0.15604  0.57650  0.74032  1.0000
  H   H512      1.0  0.24456  0.89017  0.52135  1.0000
  H   H513      1.0  0.21910  0.63094  0.49622  1.0000
  Fe  Fe32      1.0  0.16034  0.70537  0.78707  1.0000
  S   S62       1.0  0.17193  0.76326  0.77554  1.0000
  S   S63       1.0  0.13893  0.70987  0.77953  1.0000
  Fe  Fe33      1.0  0.18398  0.65451  0.80579  1.0000
  S   S64       1.0  0.19715  0.70787  0.79510  1.0000
  S   S65       1.0  0.18930  0.58860  0.82403  1.0000
  Fe  Fe34      1.0  0.18002  0.75572  0.80556  1.0000
  S   S66       1.0  0.18314  0.81761  0.82088  1.0000
  Fe  Fe35      1.0  0.18810  0.71146  0.76606  1.0000
  S   S67       1.0  0.16721  0.70140  0.81758  1.0000
  S   S68       1.0  0.17611  0.65465  0.77624  1.0000
  Fe  Fe36      1.0  0.18575  0.98856  0.90943  1.0000
  S   S69       1.0  0.18241  0.05537  0.89149  1.0000
  S   S70       1.0  0.18300  0.92159  0.89800  1.0000
  Fe  Fe37      1.0  0.19056  0.03379  0.94711  1.0000
  S   S71       1.0  0.18675  0.10211  0.93099  1.0000
  H   H514      1.0  0.22290  0.37553  0.81674  1.0000
  Fe  Fe38      1.0  0.16996  0.07615  0.91863  1.0000
  S   S72       1.0  0.15080  0.12134  0.91412  1.0000
  Fe  Fe39      1.0  0.19937  0.07546  0.90556  1.0000
  S   S73       1.0  0.21745  0.10749  0.89075  1.0000
  S   S74       1.0  0.17278  0.00907  0.93654  1.0000
  S   S75       1.0  0.20367  0.00712  0.92174  1.0000
  Fe  Fe40      1.0  0.07198  0.13460  0.92266  1.0000
  S   S76       1.0  0.06751  0.19920  0.93569  1.0000
  S   S77       1.0  0.09038  0.08576  0.92743  1.0000
  Fe  Fe41      1.0  0.04538  0.14428  0.90544  1.0000
  S   S78       1.0  0.03932  0.21000  0.91714  1.0000
  S   S79       1.0  0.03049  0.12214  0.88722  1.0000
  Fe  Fe42      1.0  0.05972  0.22707  0.90626  1.0000
  S   S80       1.0  0.06669  0.29335  0.89081  1.0000
  Fe  Fe43      1.0  0.04741  0.17698  0.94557  1.0000
  S   S81       1.0  0.03457  0.18919  0.97450  1.0000
  S   S82       1.0  0.06541  0.16313  0.89283  1.0000
  S   S83       1.0  0.05226  0.11058  0.93430  1.0000
  S   S84       1.0  0.01921  0.92640  0.87632  1.0000
  H   H515      1.0  0.11837  0.12896  0.98257  1.0000
  Fe  Fe44      1.0  0.07928  0.55931  0.78468  1.0000
  S   S85       1.0  0.06895  0.54975  0.81540  1.0000
  S   S86       1.0  0.10180  0.55456  0.78223  1.0000
  Fe  Fe45      1.0  0.05309  0.57156  0.76463  1.0000
  S   S87       1.0  0.04115  0.56302  0.79434  1.0000
  H   H516      1.0  0.20859  0.16420  0.97233  1.0000
  Fe  Fe46      1.0  0.05458  0.60657  0.80440  1.0000
  S   S88       1.0  0.05011  0.66637  0.82131  1.0000
  Fe  Fe47      1.0  0.05647  0.50602  0.80318  1.0000
  S   S89       1.0  0.04910  0.44143  0.81994  1.0000
  S   S90       1.0  0.06572  0.61874  0.77459  1.0000
  S   S91       1.0  0.06762  0.51176  0.77266  1.0000
  C   C280      1.0  0.00930  0.72403  0.84529  1.0000
  C   C281      1.0  0.01087  0.68278  0.83793  1.0000
  C   C282      1.0  0.02326  0.66529  0.82993  1.0000
  C   C283      1.0  0.03421  0.68845  0.82973  1.0000
  C   C284      1.0  0.03261  0.72988  0.83689  1.0000
  C   C285      1.0  0.02019  0.74777  0.84454  1.0000
  C   C286      1.0  0.07603  0.35781  0.79151  1.0000
  H   H517      1.0  0.02435  0.63420  0.82379  1.0000
  H   H518      1.0  0.04100  0.74829  0.83654  1.0000
  H   H519      1.0  0.01908  0.77961  0.85014  1.0000
  C   C287      1.0  0.06121  0.33514  0.87165  1.0000
  C   C288      1.0  0.04977  0.33364  0.86239  1.0000
  C   C289      1.0  0.04621  0.36661  0.84679  1.0000
  C   C290      1.0  0.05400  0.40154  0.84011  1.0000
  C   C291      1.0  0.06535  0.40330  0.84949  1.0000
  C   C292      1.0  0.06890  0.37040  0.86512  1.0000
  H   H520      1.0  0.04369  0.30699  0.86718  1.0000
  H   H521      1.0  0.03739  0.36479  0.83973  1.0000
  H   H522      1.0  0.07148  0.42977  0.84460  1.0000
  H   H523      1.0  0.07777  0.37207  0.87209  1.0000
  C   C293      1.0  0.02726  0.06725  0.88512  1.0000
  C   C294      1.0  0.03535  0.03009  0.89251  1.0000
  C   C295      1.0  0.03267  0.98721  0.88981  1.0000
  C   C296      1.0  0.02179  0.98097  0.87999  1.0000
  C   C297      1.0  0.01348  0.01804  0.87313  1.0000
  C   C298      1.0  0.01626  0.06093  0.87559  1.0000
  H   H524      1.0  0.04381  0.03444  0.89992  1.0000
  H   H525      1.0  0.03915  0.95873  0.89518  1.0000
  H   H526      1.0  0.03709  0.38791  0.89021  1.0000
  H   H527      1.0  0.18260  0.20837  0.93982  1.0000
  C   C299      1.0  0.13417  0.10935  0.91692  1.0000
  C   C300      1.0  0.12449  0.14152  0.90923  1.0000
  C   C301      1.0  0.11106  0.13472  0.91216  1.0000
  C   C302      1.0  0.10717  0.09533  0.92261  1.0000
  C   C303      1.0  0.11687  0.06271  0.92991  1.0000
  C   C304      1.0  0.13028  0.06981  0.92724  1.0000
  H   H528      1.0  0.12741  0.17226  0.90124  1.0000
  H   H529      1.0  0.10369  0.15999  0.90648  1.0000
  H   H530      1.0  0.11394  0.03222  0.93814  1.0000
  H   H531      1.0  0.13756  0.04532  0.93367  1.0000
  C   C305      1.0  0.18268  0.84642  0.84250  1.0000
  C   C306      1.0  0.18736  0.88853  0.84054  1.0000
  C   C307      1.0  0.18738  0.91223  0.85708  1.0000
  C   C308      1.0  0.18286  0.89410  0.87614  1.0000
  C   C309      1.0  0.17805  0.85219  0.87808  1.0000
  C   C310      1.0  0.17783  0.82885  0.86149  1.0000
  H   H532      1.0  0.19109  0.90295  0.82604  1.0000
  H   H533      1.0  0.19112  0.94425  0.85510  1.0000
  H   H534      1.0  0.17442  0.83764  0.89259  1.0000
  H   H535      1.0  0.17386  0.79727  0.86342  1.0000
  C   C311      1.0  0.12903  0.66568  0.77978  1.0000
  C   C312      1.0  0.13341  0.62151  0.78596  1.0000
  C   C313      1.0  0.12507  0.58788  0.78615  1.0000
  C   C314      1.0  0.11213  0.59799  0.78068  1.0000
  C   C315      1.0  0.10776  0.64217  0.77447  1.0000
  C   C316      1.0  0.11621  0.67560  0.77386  1.0000
  H   H536      1.0  0.14323  0.61318  0.79060  1.0000
  H   H537      1.0  0.12861  0.55382  0.79088  1.0000
  H   H538      1.0  0.09789  0.65049  0.77004  1.0000
  H   H539      1.0  0.11273  0.70959  0.76907  1.0000
  C   C317      1.0  0.22001  0.50744  0.84568  1.0000
  C   C318      1.0  0.20747  0.52490  0.84012  1.0000
  C   C319      1.0  0.20536  0.56799  0.83024  1.0000
  C   C320      1.0  0.21592  0.59368  0.82598  1.0000
  H   H540      1.0  0.19935  0.50483  0.84349  1.0000
  C   C321      1.0  0.23453  0.22268  0.88347  1.0000
  C   C322      1.0  0.23243  0.17755  0.88539  1.0000
  C   C323      1.0  0.21970  0.16429  0.88984  1.0000
  H   H541      1.0  0.01649  0.85418  0.77100  1.0000
  N   N16       1.0  0.07868  0.25101  0.82993  1.0000
  C   C324      1.0  0.06766  0.23179  0.84345  1.0000
  C   C325      1.0  0.08858  0.26375  0.84242  1.0000
  H   H542      1.0  0.00404  0.51146  0.84968  1.0000
  C   C326      1.0  0.08517  0.21996  0.81543  1.0000
  C   C327      1.0  0.08572  0.16941  0.82242  1.0000
  C   C328      1.0  0.05519  0.22619  0.83346  1.0000
  H   H543      1.0  0.03711  0.19461  0.83993  1.0000
  C   C329      1.0  0.09529  0.22625  0.85656  1.0000
  C   C330      1.0  0.01444  0.84874  0.92689  1.0000
  C   C331      1.0  0.09455  0.14265  0.80786  1.0000
  C   C332      1.0  0.04615  0.19688  0.84713  1.0000
  H   H544      1.0  0.14889  0.93512  0.94759  1.0000
  H   H545      1.0  0.06440  0.25292  0.85545  1.0000
  H   H546      1.0  0.07104  0.19926  0.85137  1.0000
  H   H547      1.0  0.08789  0.19506  0.96382  1.0000
  H   H548      1.0  0.08387  0.29011  0.85146  1.0000
  C   C333      1.0  0.00146  0.03764  0.94312  1.0000
  H   H549      1.0  0.11896  0.24268  0.95071  1.0000
  H   H550      1.0  0.08007  0.22510  0.80159  1.0000
  H   H551      1.0  0.09564  0.22167  0.92985  1.0000
  H   H552      1.0  0.07575  0.15830  0.82340  1.0000
  H   H553      1.0  0.08943  0.16051  0.83717  1.0000
  H   H554      1.0  0.04949  0.25903  0.83011  1.0000
  H   H555      1.0  0.05779  0.21142  0.81941  1.0000
  C   C334      1.0  0.14474  0.95949  0.91742  1.0000
  H   H556      1.0  0.12373  0.99786  0.89741  1.0000
  H   H557      1.0  0.01681  0.85578  0.91065  1.0000
  C   C335      1.0  0.10356  0.24524  0.87008  1.0000
  H   H558      1.0  0.14226  0.10524  0.98507  1.0000
  H   H559      1.0  0.15407  0.13104  0.96721  1.0000
  H   H560      1.0  0.00002  0.03234  0.95952  1.0000
  H   H561      1.0  0.04321  0.21104  0.86130  1.0000
  H   H562      1.0  0.00036  0.94069  0.96732  1.0000
  C   C336      1.0  0.23121  0.22154  0.94219  1.0000
  H   H563      1.0  0.14205  0.03949  0.89117  1.0000
  H   H564      1.0  0.08743  0.23811  0.98661  1.0000
  H   H565      1.0  0.16047  0.91222  0.92905  1.0000
  H   H566      1.0  0.19925  0.18680  0.89605  1.0000
  H   H567      1.0  0.17160  0.69027  0.86221  1.0000
  H   H568      1.0  0.21444  0.62671  0.81822  1.0000
  N   N17       1.0  0.09467  0.67627  0.83408  1.0000
  C   C337      1.0  0.09320  0.70976  0.81598  1.0000
  C   C338      1.0  0.10568  0.68761  0.84486  1.0000
  C   C339      1.0  0.09766  0.63060  0.82758  1.0000
  C   C340      1.0  0.08222  0.67710  0.84782  1.0000
  C   C341      1.0  0.07682  0.72276  0.85458  1.0000
  C   C342      1.0  0.08099  0.70825  0.80464  1.0000
  C   C343      1.0  0.10051  0.59206  0.84422  1.0000
  C   C344      1.0  0.11972  0.68085  0.83410  1.0000
  C   C345      1.0  0.12996  0.69472  0.84604  1.0000
  C   C346      1.0  0.06397  0.71941  0.86783  1.0000
  C   C347      1.0  0.08087  0.74217  0.78616  1.0000
  C   C348      1.0  0.10497  0.54852  0.83564  1.0000
  H   H569      1.0  0.10193  0.70555  0.80518  1.0000
  H   H570      1.0  0.09303  0.74410  0.81979  1.0000
  H   H571      1.0  0.10403  0.72299  0.84758  1.0000
  H   H572      1.0  0.10576  0.66853  0.85986  1.0000
  H   H573      1.0  0.10610  0.62993  0.81607  1.0000
  H   H574      1.0  0.08933  0.62182  0.82026  1.0000
  H   H575      1.0  0.07432  0.66418  0.84097  1.0000
  H   H576      1.0  0.08372  0.65420  0.86160  1.0000
  H   H577      1.0  0.07480  0.74805  0.84183  1.0000
  H   H578      1.0  0.08394  0.73481  0.86322  1.0000
  H   H579      1.0  0.08075  0.67517  0.79984  1.0000
  H   H580      1.0  0.07182  0.71638  0.81402  1.0000
  H   H581      1.0  0.09151  0.58696  0.85432  1.0000
  H   H582      1.0  0.10838  0.59844  0.85305  1.0000
  H   H583      1.0  0.12261  0.64560  0.83193  1.0000
  H   H584      1.0  0.12036  0.70100  0.81940  1.0000
  H   H585      1.0  0.12999  0.67479  0.86082  1.0000
  H   H586      1.0  0.13987  0.68903  0.83805  1.0000
  H   H587      1.0  0.12798  0.73050  0.84787  1.0000
  H   H588      1.0  0.06558  0.69629  0.88149  1.0000
  H   H589      1.0  0.06009  0.75258  0.87215  1.0000
  H   H590      1.0  0.05647  0.70746  0.85985  1.0000
  H   H591      1.0  0.07191  0.74058  0.77862  1.0000
  H   H592      1.0  0.08075  0.77623  0.79019  1.0000
  H   H593      1.0  0.08960  0.73491  0.77564  1.0000
  H   H594      1.0  0.10678  0.52140  0.84781  1.0000
  H   H595      1.0  0.09732  0.53967  0.82700  1.0000
  H   H596      1.0  0.11424  0.55119  0.82585  1.0000
  H   H597      1.0  0.10484  0.15101  0.80697  1.0000
  N   N18       1.0  0.02665  0.51866  0.86568  1.0000
  C   C349      1.0  0.04036  0.52858  0.86833  1.0000
  C   C350      1.0  0.02572  0.46982  0.87183  1.0000
  C   C351      1.0  0.02488  0.52755  0.84382  1.0000
  C   C352      1.0  0.01601  0.54698  0.87671  1.0000
  C   C353      1.0  0.01926  0.56120  0.89651  1.0000
  C   C354      1.0  0.04383  0.57554  0.85946  1.0000
  C   C355      1.0  0.01174  0.51620  0.83723  1.0000
  C   C356      1.0  0.02679  0.45301  0.89401  1.0000
  C   C357      1.0  0.02776  0.40243  0.89762  1.0000
  C   C358      1.0  0.09198  0.13446  0.98287  1.0000
  C   C359      1.0  0.05608  0.58719  0.86763  1.0000
  C   C360      1.0  0.10059  0.24478  0.93711  1.0000
  H   H598      1.0  0.04781  0.50444  0.86127  1.0000
  H   H599      1.0  0.04222  0.52374  0.88416  1.0000
  C   C361      1.0  0.23810  0.39989  0.97696  1.0000
  H   H600      1.0  0.03340  0.45002  0.86294  1.0000
  H   H601      1.0  0.03331  0.51084  0.83511  1.0000
  H   H602      1.0  0.02529  0.56323  0.83858  1.0000
  H   H603      1.0  0.01308  0.57848  0.86729  1.0000
  H   H604      1.0  0.02305  0.82868  0.93324  1.0000
  H   H605      1.0  0.02684  0.58477  0.89382  1.0000
  H   H606      1.0  0.21637  0.79958  0.83281  1.0000
  H   H607      1.0  0.04589  0.57682  0.84316  1.0000
  H   H608      1.0  0.03563  0.60147  0.86241  1.0000
  N   N19       1.0  0.99881  0.78750  0.78257  1.0000
  H   H609      1.0  0.00993  0.08949  0.86988  1.0000
  H   H610      1.0  0.03559  0.46310  0.89954  1.0000
  H   H611      1.0  0.01783  0.46578  0.90291  1.0000
  H   H612      1.0  0.06873  0.37961  0.79993  1.0000
  H   H613      1.0  0.00950  0.69570  0.79431  1.0000
  H   H614      1.0  0.01849  0.02694  0.98045  1.0000
  H   H615      1.0  0.02021  0.48193  0.81210  1.0000
  H   H616      1.0  0.01300  0.07879  0.92123  1.0000
  C   C362      1.0  0.02572  0.85405  0.79770  1.0000
  H   H617      1.0  0.06467  0.56311  0.86397  1.0000
  H   H618      1.0  0.05827  0.62077  0.86087  1.0000
  H   H619      1.0  0.05446  0.58735  0.88393  1.0000
  C   C363      1.0  0.14389  0.12139  0.96963  1.0000
  H   H620      1.0  0.03503  0.00847  0.98651  1.0000
  H   H621      1.0  0.22611  0.14754  0.93058  1.0000
  N   N20       1.0  0.10894  0.18809  0.96651  1.0000
  H   H622      1.0  0.23910  0.37227  0.80384  1.0000
  C   C364      1.0  0.11224  0.21869  0.94782  1.0000
  C   C365      1.0  0.09722  0.24957  0.98703  1.0000
  H   H623      1.0  0.03148  0.66416  0.78184  1.0000
  H   H624      1.0  0.01427  0.77009  0.75994  1.0000
  H   H625      1.0  0.02040  0.90977  0.93314  1.0000
  H   H626      1.0  0.02839  0.83125  0.81104  1.0000
  C   C366      1.0  0.13406  0.16250  0.96598  1.0000
  C   C367      1.0  0.10536  0.28010  0.92092  1.0000
  C   C368      1.0  0.01902  0.83006  0.78395  1.0000
  H   H627      1.0  0.01914  0.88303  0.80238  1.0000
  H   H628      1.0  0.08807  0.20734  0.86628  1.0000
  H   H629      1.0  0.09685  0.15236  0.95160  1.0000
  H   H630      1.0  0.02772  0.39129  0.91374  1.0000
  H   H631      1.0  0.02861  0.06550  0.98777  1.0000
  H   H632      1.0  0.11783  0.19955  0.93634  1.0000
  H   H633      1.0  0.11912  0.12778  0.95658  1.0000
  H   H634      1.0  0.09687  0.29702  0.91311  1.0000
  H   H635      1.0  0.01934  0.38979  0.89201  1.0000
  C   C369      1.0  0.01148  0.89190  0.93628  1.0000
  C   C370      1.0  0.23451  0.17761  0.97425  1.0000
  C   C371      1.0  0.08294  0.32174  0.80561  1.0000
  H   H636      1.0  0.10126  0.98930  0.87125  1.0000
  H   H637      1.0  0.23081  0.22881  0.83478  1.0000
  H   H638      1.0  0.22216  0.13678  0.82455  1.0000
  H   H639      1.0  0.23739  0.21035  0.97672  1.0000
  H   H640      1.0  0.00946  0.78874  0.80823  1.0000
  H   H641      1.0  0.14229  0.11220  0.87087  1.0000
  H   H642      1.0  0.07787  0.10780  0.96711  1.0000
  C   C372      1.0  0.23521  0.68691  0.86073  1.0000
  H   H643      1.0  0.15346  0.11684  0.84873  1.0000
  H   H644      1.0  0.20290  0.26639  0.89273  1.0000
  H   H645      1.0  0.18637  0.17220  0.96191  1.0000
  C   C373      1.0  0.23644  0.21124  0.82277  1.0000
  C   C374      1.0  0.00710  0.58471  0.90706  1.0000
  C   C375      1.0  0.09622  0.16879  0.96531  1.0000
  C   C376      1.0  0.23263  0.30857  0.81702  1.0000
  H   H646      1.0  0.14179  0.05083  0.85065  1.0000
  H   H647      1.0  0.02173  0.73317  0.79437  1.0000
  C   C377      1.0  0.23951  0.16300  0.83242  1.0000
  H   H648      1.0  0.00512  0.01375  0.86548  1.0000
  C   C378      1.0  0.22989  0.35588  0.80689  1.0000
  H   H649      1.0  0.99927  0.56212  0.91091  1.0000
  H   H650      1.0  0.13676  0.17874  0.95085  1.0000
  H   H651      1.0  0.01807  0.44586  0.83499  1.0000
  H   H652      1.0  0.00243  0.66455  0.83826  1.0000
  H   H653      1.0  0.21854  0.61047  0.74925  1.0000
  H   H654      1.0  0.02632  0.80345  0.77874  1.0000
  H   H655      1.0  0.10872  0.21783  0.87956  1.0000
  Fe  Fe48      1.0  0.00067  0.90326  0.86719  1.0000
  H   H656      1.0  0.22305  0.29437  0.81982  1.0000
  H   H657      1.0  0.23754  0.69080  0.84443  1.0000
  H   H658      1.0  0.11264  0.26475  0.90996  1.0000
  H   H659      1.0  0.09863  0.27760  0.97527  1.0000
  H   H660      1.0  0.24085  0.13469  0.94205  1.0000
  H   H661      1.0  0.22368  0.80447  0.89585  1.0000
  H   H662      1.0  0.22947  0.21089  0.81136  1.0000
  H   H663      1.0  0.13546  0.18524  0.97675  1.0000
  H   H664      1.0  0.00162  0.73488  0.76373  1.0000
  C   C379      1.0  0.11971  0.14993  0.96809  1.0000
  C   C380      1.0  0.22747  0.15993  0.99446  1.0000
  H   H665      1.0  0.23056  0.75938  0.83343  1.0000
  C   C381      1.0  0.00518  0.99263  0.93469  1.0000
  H   H666      1.0  0.22413  0.06690  0.92985  1.0000
  H   H667      1.0  0.22865  0.79543  0.79985  1.0000
  H   H668      1.0  0.21044  0.22153  0.96971  1.0000
  C   C382      1.0  0.00654  0.81090  0.79482  1.0000
  H   H669      1.0  0.00253  0.93030  0.91183  1.0000
  H   H670      1.0  0.11106  0.26478  0.86124  1.0000
  H   H671      1.0  0.24246  0.64139  0.88550  1.0000
  H   H672      1.0  0.00021  0.83925  0.80067  1.0000
  H   H673      1.0  0.22548  0.35580  0.79276  1.0000
  C   C383      1.0  0.21352  0.79616  0.90075  1.0000
  H   H674      1.0  0.22550  0.02905  0.95213  1.0000
  C   C384      1.0  0.24251  0.28007  0.80384  1.0000
  H   H675      1.0  0.23974  0.05441  0.94041  1.0000
  H   H676      1.0  0.22268  0.12992  0.99352  1.0000
  H   H677      1.0  0.23000  0.08869  0.97030  1.0000
  C   C385      1.0  0.01366  0.47556  0.82593  1.0000
  H   H678      1.0  0.09880  0.10349  0.98304  1.0000
  H   H679      1.0  0.24434  0.23253  0.88013  1.0000
  C   C386      1.0  0.07294  0.29320  0.81841  1.0000
  C   C387      1.0  0.20910  0.19652  0.89270  1.0000
  S   S92       1.0  0.19945  0.02164  0.97744  1.0000
  C   C388      1.0  0.22844  0.57645  0.83179  1.0000
  H   H680      1.0  0.09681  0.27839  0.83292  1.0000
  H   H681      1.0  0.00972  0.59528  0.92095  1.0000
  C   C389      1.0  0.21120  0.24162  0.89072  1.0000
  H   H682      1.0  0.21233  0.79171  0.91719  1.0000
  C   C390      1.0  0.23055  0.53323  0.84162  1.0000
  H   H683      1.0  0.14253  0.97934  0.84773  1.0000
  H   H684      1.0  0.22150  0.47420  0.85329  1.0000
  H   H685      1.0  0.19880  0.63653  0.86016  1.0000
  H   H686      1.0  0.19269  0.67684  0.84085  1.0000
  H   H687      1.0  0.14424  0.89359  0.93398  1.0000
  H   H688      1.0  0.06706  0.31494  0.82865  1.0000
  C   C391      1.0  0.19252  0.66822  0.85711  1.0000
  C   C392      1.0  0.17846  0.65978  0.86507  1.0000
  H   H689      1.0  0.20154  0.74413  0.83316  1.0000
  H   H690      1.0  0.17527  0.63332  0.85756  1.0000
  H   H691      1.0  0.08824  0.33883  0.81523  1.0000
  H   H692      1.0  0.17793  0.64869  0.88122  1.0000
  H   H693      1.0  0.20639  0.82431  0.89543  1.0000
  H   H694      1.0  0.09095  0.14938  0.79289  1.0000
  C   C393      1.0  0.22054  0.68001  0.86582  1.0000
  Fe  Fe49      1.0  0.24428  0.34788  0.87514  1.0000
  C   C394      1.0  0.21141  0.73076  0.83787  1.0000
  H   H695      1.0  0.15047  0.98791  0.91744  1.0000
  H   H696      1.0  0.09447  0.10668  0.81296  1.0000
  C   C395      1.0  0.19713  0.70564  0.86718  1.0000
  H   H697      1.0  0.13434  0.96953  0.92239  1.0000
  H   H698      1.0  0.18969  0.73498  0.86514  1.0000
  H   H699      1.0  0.19644  0.69370  0.88327  1.0000
  H   H700      1.0  0.21425  0.70045  0.83033  1.0000
  H   H701      1.0  0.15780  0.01137  0.88542  1.0000
  C   C396      1.0  0.22388  0.25498  0.88594  1.0000
  C   C397      1.0  0.14990  0.92271  0.93289  1.0000
  H   H702      1.0  0.20502  0.23006  0.93479  1.0000
  H   H703      1.0  0.22215  0.77107  0.86533  1.0000
  C   C398      1.0  0.22687  0.14071  0.83801  1.0000
  H   H704      1.0  0.09313  0.26137  0.94731  1.0000
  C   C399      1.0  0.10485  0.02181  0.87207  1.0000
  C   C400      1.0  0.18881  0.20304  0.95243  1.0000
  H   H705      1.0  0.21905  0.65127  0.85820  1.0000
  C   C401      1.0  0.20332  0.19895  0.94454  1.0000
  C   C402      1.0  0.10849  0.21192  0.98458  1.0000
  C   C403      1.0  0.21233  0.19154  0.96174  1.0000
  H   H706      1.0  0.21894  0.66822  0.88188  1.0000
  C   C404      1.0  0.14777  0.01921  0.88018  1.0000
  H   H707      1.0  0.21202  0.78242  0.80032  1.0000
  C   C405      1.0  0.14991  0.04925  0.86014  1.0000
  H   H708      1.0  0.02302  0.53274  0.90679  1.0000
  C   C406      1.0  0.01230  0.06828  0.93741  1.0000
  H   H709      1.0  0.20501  0.17089  0.93553  1.0000
  C   C407      1.0  0.00757  0.75356  0.77173  1.0000
  H   H710      1.0  0.14433  0.86234  0.83812  1.0000
  N   N21       1.0  0.21069  0.71898  0.86015  1.0000
  C   C408      1.0  0.14607  0.94347  0.89661  1.0000
  H   H711      1.0  0.00980  0.88278  0.95247  1.0000
  H   H712      1.0  0.22916  0.10734  0.84621  1.0000
  C   C409      1.0  0.12673  0.98507  0.88295  1.0000
  H   H713      1.0  0.15657  0.93118  0.89325  1.0000
  H   H714      1.0  0.15973  0.09782  0.87226  1.0000
  N   N22       1.0  0.14152  0.97696  0.87979  1.0000
  H   H715      1.0  0.14056  0.91382  0.89821  1.0000
  H   H716      1.0  0.12222  0.95345  0.88403  1.0000
  H   H717      1.0  0.23656  0.59649  0.82849  1.0000
  H   H718      1.0  0.05112  0.16282  0.85038  1.0000
  H   H719      1.0  0.07095  0.34295  0.78085  1.0000
  H   H720      1.0  0.22814  0.25271  0.94906  1.0000
  H   H721      1.0  0.00870  0.99906  0.91872  1.0000
  N   N23       1.0  0.22690  0.18222  0.95608  1.0000
  C   C410      1.0  0.21241  0.75914  0.86998  1.0000
  H   H722      1.0  0.20090  0.74671  0.89890  1.0000
  H   H723      1.0  0.10186  0.03205  0.88705  1.0000
  H   H724      1.0  0.22937  0.41874  0.98407  1.0000
  H   H725      1.0  0.15901  0.03589  0.85166  1.0000
  H   H726      1.0  0.24199  0.61609  0.86313  1.0000
  C   C411      1.0  0.22054  0.76658  0.82854  1.0000
  H   H727      1.0  0.20508  0.78719  0.86498  1.0000
  H   H728      1.0  0.02040  0.67150  0.76267  1.0000
  H   H729      1.0  0.09024  0.30113  0.79663  1.0000
  H   H730      1.0  0.15710  0.95555  0.85836  1.0000
  C   C412      1.0  0.14236  0.91057  0.85921  1.0000
  C   C413      1.0  0.02605  0.03076  0.99035  1.0000
  H   H731      1.0  0.10993  0.30533  0.92744  1.0000
  H   H732      1.0  0.13160  0.90924  0.86212  1.0000
  H   H733      1.0  0.14744  0.88555  0.86989  1.0000
  C   C414      1.0  0.24403  0.64648  0.86908  1.0000
  C   C415      1.0  0.14613  0.95759  0.86070  1.0000
  H   H734      1.0  0.15733  0.89782  0.83495  1.0000
  H   H735      1.0  0.00589  0.82900  0.92983  1.0000
  H   H736      1.0  0.21441  0.10152  0.95956  1.0000
  S   S93       1.0  0.00008  0.86913  0.84009  1.0000
  C   C416      1.0  0.22892  0.05993  0.94387  1.0000
  C   C417      1.0  0.21100  0.75359  0.89294  1.0000
  H   H737      1.0  0.01403  0.97684  0.94192  1.0000
  H   H738      1.0  0.06596  0.28564  0.80823  1.0000
  H   H739      1.0  0.10207  0.20344  0.84790  1.0000
  S   S94       1.0  0.22584  0.31224  0.88358  1.0000
  C   C418      1.0  0.01594  0.71802  0.78477  1.0000
  C   C419      1.0  0.23004  0.14165  0.94536  1.0000
  C   C420      1.0  0.11980  0.01909  0.86763  1.0000
  H   H740      1.0  0.08336  0.37862  0.78303  1.0000
  C   C421      1.0  0.02566  0.68922  0.77209  1.0000
  H   H741      1.0  0.09539  0.22794  0.81059  1.0000
  H   H742      1.0  0.12260  0.05269  0.86848  1.0000
  C   C422      1.0  0.14658  0.89681  0.83859  1.0000
  H   H743      1.0  0.10009  0.04684  0.86105  1.0000
  H   H744      1.0  0.14299  0.09718  0.95922  1.0000
  C   C423      1.0  0.07821  0.12203  0.98115  1.0000
  C   C424      1.0  0.22525  0.09821  0.95635  1.0000
  H   H745      1.0  0.18648  0.23160  0.96115  1.0000
  C   C425      1.0  0.15144  0.09686  0.86325  1.0000
  H   H746      1.0  0.14126  0.91905  0.82720  1.0000
  H   H747      1.0  0.12222  0.01014  0.85240  1.0000
  H   H748      1.0  0.22630  0.22548  0.92825  1.0000
  H   H749      1.0  0.09715  0.26683  0.87981  1.0000
  H   H750      1.0  0.11772  0.22745  0.98462  1.0000
  C   C426      1.0  0.22173  0.77073  0.80595  1.0000
  H   H751      1.0  0.02197  0.05159  0.94159  1.0000
  H   H752      1.0  0.24422  0.16297  0.84626  1.0000
  H   H753      1.0  0.23747  0.27577  0.79066  1.0000
  H   H754      1.0  0.24069  0.15272  0.88333  1.0000
  H   H755      1.0  0.21813  0.72641  0.89895  1.0000
  H   H756      1.0  0.00692  0.52984  0.87987  1.0000
  H   H757      1.0  0.03261  0.70968  0.76250  1.0000
  H   H758      1.0  0.00998  0.09852  0.94505  1.0000
  H   H759      1.0  0.24395  0.15620  0.97194  1.0000
  H   H760      1.0  0.00325  0.61469  0.89752  1.0000
  H   H761      1.0  0.00011  0.83434  0.75604  1.0000
  H   H762      1.0  0.00766  0.54466  0.82703  1.0000
  H   H763      1.0  0.23640  0.31005  0.83149  1.0000
  H   H764      1.0  0.22552  0.73846  0.80061  1.0000
  H   H765      1.0  0.03485  0.86619  0.78983  1.0000
  H   H766      1.0  0.15472  0.62151  0.75514  1.0000
  H   H767      1.0  0.07082  0.15156  0.98165  1.0000
  C   C427      1.0  0.24377  0.36237  0.99167  1.0000
  H   H768      1.0  0.24428  0.27633  0.91267  1.0000
  H   H769      1.0  0.18357  0.09795  0.99371  1.0000
  H   H770      1.0  0.23780  0.71612  0.86691  1.0000
  H   H771      1.0  0.23506  0.38597  0.96415  1.0000
  H   H772      1.0  0.01619  0.46014  0.86853  1.0000
  H   H773      1.0  0.21980  0.16049  0.84770  1.0000
  H   H774      1.0  0.00403  0.46843  0.82184  1.0000
  C   C428      1.0  0.99949  0.92090  0.92772  1.0000
  H   H775      1.0  0.07550  0.09685  0.99367  1.0000
  Fe  Fe50      1.0  0.32188  0.43309  0.04354  1.0000
  S   S95       1.0  0.31196  0.49774  0.02971  1.0000
  S   S96       1.0  0.34360  0.41911  0.03265  1.0000
  Fe  Fe51      1.0  0.29633  0.40960  0.06715  1.0000
  S   S97       1.0  0.28526  0.47362  0.05504  1.0000
  S   S98       1.0  0.28521  0.36342  0.09026  1.0000
  Fe  Fe52      1.0  0.29544  0.45809  0.02524  1.0000
  Fe  Fe53      1.0  0.30282  0.50701  0.06082  1.0000
  S   S99       1.0  0.30319  0.57519  0.07293  1.0000
  S   S100      1.0  0.30586  0.39307  0.03750  1.0000
  S   S101      1.0  0.31336  0.44342  0.07445  1.0000
  Fe  Fe54      1.0  0.30765  0.74589  0.16348  1.0000
  S   S102      1.0  0.31995  0.80200  0.15124  1.0000
  S   S103      1.0  0.30604  0.68148  0.14881  1.0000
  Fe  Fe55      1.0  0.30005  0.78740  0.20390  1.0000
  S   S104      1.0  0.31223  0.84355  0.19377  1.0000
  C   C429      1.0  0.24730  0.96532  0.05742  1.0000
  Fe  Fe56      1.0  0.30338  0.84738  0.16481  1.0000
  S   S105      1.0  0.29617  0.91949  0.15524  1.0000
  Fe  Fe57      1.0  0.32776  0.79441  0.18126  1.0000
  S   S106      1.0  0.34960  0.78977  0.18689  1.0000
  S   S107      1.0  0.29058  0.79273  0.17514  1.0000
  S   S108      1.0  0.31618  0.73651  0.19332  1.0000
  C   C430      1.0  0.44060  0.56323  0.15852  1.0000
  Fe  Fe58      1.0  0.41500  0.34733  0.07004  1.0000
  S   S109      1.0  0.42443  0.28688  0.05671  1.0000
  S   S110      1.0  0.39326  0.35466  0.08168  1.0000
  Fe  Fe59      1.0  0.44184  0.38110  0.07160  1.0000
  S   S111      1.0  0.45305  0.32163  0.05894  1.0000
  S   S112      1.0  0.44964  0.44626  0.07545  1.0000
  Fe  Fe60      1.0  0.43770  0.33160  0.03718  1.0000
  H   H776      1.0  0.48052  0.11601  0.07907  1.0000
  Fe  Fe61      1.0  0.43899  0.28085  0.07944  1.0000
  S   S113      1.0  0.44411  0.20849  0.09265  1.0000
  S   S114      1.0  0.42697  0.39269  0.04882  1.0000
  S   S115      1.0  0.42903  0.33979  0.09378  1.0000
  Fe  Fe62      1.0  0.44049  0.92025  0.17632  1.0000
  S   S116      1.0  0.44589  0.96865  0.19546  1.0000
  S   S117      1.0  0.45828  0.88740  0.15915  1.0000
  Fe  Fe63      1.0  0.41094  0.94089  0.18700  1.0000
  S   S118      1.0  0.41455  0.98992  0.20729  1.0000
  S   S119      1.0  0.38946  0.93811  0.18109  1.0000
  Fe  Fe64      1.0  0.42931  0.01510  0.18282  1.0000
  S   S120      1.0  0.43054  0.09013  0.17507  1.0000
  Fe  Fe65      1.0  0.43094  0.93973  0.21820  1.0000
  S   S121      1.0  0.28534  0.79120  0.23189  1.0000
  S   S122      1.0  0.42500  0.96883  0.16204  1.0000
  S   S123      1.0  0.42623  0.88872  0.19953  1.0000
  C   C431      1.0  0.43383  0.12273  0.15188  1.0000
  C   C432      1.0  0.43502  0.10495  0.13387  1.0000
  C   C433      1.0  0.43789  0.13186  0.11589  1.0000
  C   C434      1.0  0.43941  0.17710  0.11560  1.0000
  C   C435      1.0  0.43805  0.19502  0.13360  1.0000
  C   C436      1.0  0.43527  0.16801  0.15159  1.0000
  H   H777      1.0  0.43359  0.07055  0.13382  1.0000
  H   H778      1.0  0.43892  0.11755  0.10209  1.0000
  H   H779      1.0  0.43952  0.22938  0.13371  1.0000
  H   H780      1.0  0.43442  0.18217  0.16542  1.0000
  H   H781      1.0  0.46536  0.93233  0.11378  1.0000
  C   C437      1.0  0.47043  0.42507  0.09926  1.0000
  C   C438      1.0  0.46329  0.45751  0.08713  1.0000
  C   C439      1.0  0.46670  0.50121  0.08467  1.0000
  C   C440      1.0  0.47705  0.51252  0.09433  1.0000
  H   H782      1.0  0.46790  0.39134  0.10133  1.0000
  H   H783      1.0  0.46121  0.52658  0.07537  1.0000
  H   H784      1.0  0.47951  0.54624  0.09232  1.0000
  C   C441      1.0  0.46761  0.74011  0.15091  1.0000
  C   C442      1.0  0.47633  0.77088  0.14289  1.0000
  C   C443      1.0  0.47326  0.81588  0.14552  1.0000
  C   C444      1.0  0.46149  0.83051  0.15622  1.0000
  C   C445      1.0  0.45281  0.79974  0.16443  1.0000
  C   C446      1.0  0.45586  0.75467  0.16173  1.0000
  H   H785      1.0  0.48004  0.83943  0.13916  1.0000
  H   H786      1.0  0.44370  0.81069  0.17265  1.0000
  H   H787      1.0  0.44905  0.73104  0.16794  1.0000
  C   C447      1.0  0.36078  0.83103  0.18402  1.0000
  C   C448      1.0  0.37363  0.81918  0.18971  1.0000
  C   C449      1.0  0.38267  0.85107  0.18844  1.0000
  C   C450      1.0  0.37891  0.89550  0.18173  1.0000
  C   C451      1.0  0.36609  0.90722  0.17590  1.0000
  C   C452      1.0  0.35714  0.87520  0.17684  1.0000
  H   H788      1.0  0.37659  0.78507  0.19519  1.0000
  H   H789      1.0  0.39247  0.84144  0.19297  1.0000
  H   H790      1.0  0.36308  0.94137  0.17055  1.0000
  H   H791      1.0  0.34741  0.88471  0.17206  1.0000
  C   C453      1.0  0.28220  0.93796  0.14224  1.0000
  C   C454      1.0  0.27524  0.90880  0.13439  1.0000
  C   C455      1.0  0.26408  0.92524  0.12433  1.0000
  C   C456      1.0  0.25986  0.97087  0.12198  1.0000
  C   C457      1.0  0.26685  0.99999  0.12981  1.0000
  C   C458      1.0  0.27794  0.98347  0.13994  1.0000
  H   H792      1.0  0.27849  0.87368  0.13600  1.0000
  C   C459      1.0  0.40474  0.19128  0.07122  1.0000
  H   H793      1.0  0.26358  0.03505  0.12830  1.0000
  H   H794      1.0  0.28319  0.00588  0.14624  1.0000
  C   C460      1.0  0.30361  0.60386  0.09448  1.0000
  C   C461      1.0  0.30393  0.65031  0.09193  1.0000
  C   C462      1.0  0.30463  0.67440  0.10816  1.0000
  C   C463      1.0  0.30504  0.65264  0.12750  1.0000
  C   C464      1.0  0.30471  0.60614  0.13007  1.0000
  C   C465      1.0  0.30401  0.58204  0.11382  1.0000
  H   H795      1.0  0.30363  0.66800  0.07720  1.0000
  H   H796      1.0  0.30484  0.70994  0.10568  1.0000
  H   H797      1.0  0.30496  0.58855  0.14482  1.0000
  H   H798      1.0  0.30371  0.54654  0.11634  1.0000
  C   C466      1.0  0.35720  0.40238  0.04682  1.0000
  C   C467      1.0  0.36999  0.40381  0.03734  1.0000
  C   C468      1.0  0.38112  0.38979  0.04784  1.0000
  C   C469      1.0  0.37957  0.37386  0.06794  1.0000
  C   C470      1.0  0.36678  0.37309  0.07751  1.0000
  C   C471      1.0  0.35565  0.38710  0.06701  1.0000
  H   H799      1.0  0.37125  0.41570  0.02175  1.0000
  H   H800      1.0  0.39089  0.39098  0.04044  1.0000
  H   H801      1.0  0.36546  0.36137  0.09310  1.0000
  H   H802      1.0  0.34587  0.38545  0.07444  1.0000
  C   C472      1.0  0.27751  0.31848  0.08450  1.0000
  C   C473      1.0  0.26696  0.30285  0.09724  1.0000
  C   C474      1.0  0.26086  0.26639  0.09329  1.0000
  C   C475      1.0  0.26547  0.24470  0.07674  1.0000
  C   C476      1.0  0.27615  0.25990  0.06422  1.0000
  C   C477      1.0  0.28209  0.29672  0.06800  1.0000
  H   H803      1.0  0.26342  0.31934  0.11014  1.0000
  H   H804      1.0  0.26510  0.96281  0.21296  1.0000
  H   H805      1.0  0.27988  0.24298  0.05151  1.0000
  H   H806      1.0  0.29037  0.30789  0.05832  1.0000
  H   H807      1.0  0.32431  0.87980  0.22871  1.0000
  C   C478      1.0  0.42991  0.62351  0.17919  1.0000
  H   H808      1.0  0.43284  0.74845  0.23249  1.0000
  C   C479      1.0  0.27500  0.32433  0.99963  1.0000
  H   H809      1.0  0.43942  0.52598  0.12513  1.0000
  H   H810      1.0  0.43122  0.56344  0.15165  1.0000
  H   H811      1.0  0.44911  0.57746  0.10284  1.0000
  H   H812      1.0  0.43869  0.60752  0.12042  1.0000
  H   H813      1.0  0.43521  0.47812  0.15905  1.0000
  H   H814      1.0  0.43018  0.65841  0.18191  1.0000
  H   H815      1.0  0.42014  0.62031  0.17430  1.0000
  H   H816      1.0  0.43127  0.60175  0.19330  1.0000
  H   H817      1.0  0.40143  0.22369  0.06296  1.0000
  H   H818      1.0  0.46340  0.08297  0.11887  1.0000
  H   H819      1.0  0.49414  0.95143  0.14276  1.0000
  H   H820      1.0  0.25575  0.40099  0.07909  1.0000
  C   C480      1.0  0.40075  0.18267  0.13638  1.0000
  H   H821      1.0  0.45837  0.74732  0.23063  1.0000
  H   H822      1.0  0.25870  0.90251  0.11834  1.0000
  H   H823      1.0  0.46731  0.56474  0.12298  1.0000
  C   C481      1.0  0.48076  0.52115  0.18023  1.0000
  S   S124      1.0  0.25857  0.19798  0.07115  1.0000
  H   H824      1.0  0.29845  0.90960  0.22352  1.0000
  H   H825      1.0  0.39378  0.87516  0.23139  1.0000
  C   C482      1.0  0.26788  0.93413  0.20436  1.0000
  H   H826      1.0  0.47435  0.65515  0.03169  1.0000
  S   S125      1.0  0.44276  0.31792  0.00486  1.0000
  H   H827      1.0  0.25439  0.97108  0.06777  1.0000
  H   H828      1.0  0.39220  0.07416  0.14840  1.0000
  H   H829      1.0  0.42596  0.29952  0.13716  1.0000
  H   H830      1.0  0.49334  0.00659  0.11464  1.0000
  C   C483      1.0  0.27946  0.90442  0.21364  1.0000
  C   C484      1.0  0.25746  0.18946  0.16350  1.0000
  C   C485      1.0  0.39261  0.14320  0.13600  1.0000
  H   H831      1.0  0.45987  0.07841  0.18565  1.0000
  H   H832      1.0  0.39973  0.10693  0.16323  1.0000
  H   H833      1.0  0.28376  0.87950  0.20372  1.0000
  C   C486      1.0  0.39953  0.29242  0.02135  1.0000
  C   C487      1.0  0.25323  0.42546  0.06620  1.0000
  H   H834      1.0  0.26154  0.21506  0.17048  1.0000
  H   H835      1.0  0.45494  0.04310  0.15756  1.0000
  H   H836      1.0  0.47303  0.92391  0.18633  1.0000
  H   H837      1.0  0.46861  0.02375  0.18657  1.0000
  H   H838      1.0  0.44293  0.84054  0.22856  1.0000
  H   H839      1.0  0.25709  0.27786  0.03592  1.0000
  C   C488      1.0  0.48085  0.76101  0.19790  1.0000
  H   H840      1.0  0.42642  0.45093  0.01236  1.0000
  H   H841      1.0  0.26585  0.88982  0.17506  1.0000
  C   C489      1.0  0.45369  0.64367  0.10359  1.0000
  C   C490      1.0  0.40570  0.25879  0.12501  1.0000
  H   H842      1.0  0.49218  0.90033  0.10747  1.0000
  H   H843      1.0  0.26674  0.84887  0.19568  1.0000
  H   H844      1.0  0.46192  0.55858  0.18282  1.0000
  H   H845      1.0  0.40841  0.08985  0.14065  1.0000
  C   C491      1.0  0.45883  0.96364  0.11110  1.0000
  H   H846      1.0  0.48838  0.50954  0.16873  1.0000
  H   H847      1.0  0.42308  0.80124  0.23358  1.0000
  H   H848      1.0  0.26953  0.40065  0.04720  1.0000
  H   H849      1.0  0.39301  0.27537  0.01358  1.0000
  H   H850      1.0  0.25713  0.85800  0.22682  1.0000
  N   N24       1.0  0.47279  0.01613  0.12551  1.0000
  H   H851      1.0  0.28669  0.95716  0.22676  1.0000
  H   H852      1.0  0.29437  0.94834  0.20223  1.0000
  C   C492      1.0  0.32820  0.93690  0.20803  1.0000
  H   H853      1.0  0.25656  0.33831  0.05637  1.0000
  C   C493      1.0  0.41809  0.47274  0.00611  1.0000
  C   C494      1.0  0.43239  0.78438  0.22708  1.0000
  C   C495      1.0  0.24848  0.96878  0.17338  1.0000
  H   H854      1.0  0.25654  0.43340  0.03437  1.0000
  H   H855      1.0  0.46903  0.48534  0.04323  1.0000
  H   H856      1.0  0.47483  0.93781  0.21079  1.0000
  H   H857      1.0  0.48605  0.41138  0.11872  1.0000
  H   H858      1.0  0.39345  0.31222  0.03212  1.0000
  H   H859      1.0  0.34711  0.73862  0.22619  1.0000
  H   H860      1.0  0.47080  0.50433  0.14784  1.0000
  C   C496      1.0  0.47843  0.65085  0.04630  1.0000
  H   H861      1.0  0.34921  0.88137  0.21637  1.0000
  H   H862      1.0  0.35652  0.81053  0.22964  1.0000
  H   H863      1.0  0.33395  0.81348  0.22349  1.0000
  C   C497      1.0  0.26987  0.34365  0.01914  1.0000
  H   H864      1.0  0.45030  0.61680  0.16855  1.0000
  C   C498      1.0  0.49441  0.51187  0.04098  1.0000
  H   H865      1.0  0.26018  0.79108  0.17720  1.0000
  H   H866      1.0  0.29493  0.34040  0.00161  1.0000
  H   H867      1.0  0.45919  0.05223  0.09002  1.0000
  C   C499      1.0  0.25274  0.36412  0.04472  1.0000
  C   C500      1.0  0.33878  0.74732  0.23719  1.0000
  H   H868      1.0  0.25202  0.16837  0.17528  1.0000
  S   S126      1.0  0.28283  0.46255  0.99845  1.0000
  H   H869      1.0  0.37084  0.88258  0.22316  1.0000
  H   H870      1.0  0.47650  0.03701  0.08341  1.0000
  H   H871      1.0  0.25059  0.93312  0.05169  1.0000
  C   C501      1.0  0.45728  0.78268  0.22398  1.0000
  H   H872      1.0  0.48836  0.51235  0.05541  1.0000
  H   H873      1.0  0.48074  0.07734  0.11339  1.0000
  H   H874      1.0  0.47993  0.92783  0.13751  1.0000
  H   H875      1.0  0.44687  0.65839  0.09236  1.0000
  N   N25       1.0  0.28671  0.16504  0.12352  1.0000
  C   C502      1.0  0.27949  0.13927  0.11151  1.0000
  C   C503      1.0  0.27674  0.18950  0.13715  1.0000
  C   C504      1.0  0.29342  0.19942  0.10934  1.0000
  C   C505      1.0  0.29704  0.13629  0.13499  1.0000
  C   C506      1.0  0.29442  0.08755  0.14209  1.0000
  C   C507      1.0  0.28774  0.12031  0.09362  1.0000
  C   C508      1.0  0.29969  0.23431  0.11887  1.0000
  C   C509      1.0  0.26844  0.16073  0.15288  1.0000
  H   H876      1.0  0.41327  0.49327  0.01761  1.0000
  C   C510      1.0  0.30460  0.06451  0.15584  1.0000
  C   C511      1.0  0.28091  0.08500  0.08598  1.0000
  C   C512      1.0  0.30936  0.25857  0.10400  1.0000
  H   H877      1.0  0.27095  0.16069  0.10552  1.0000
  H   H878      1.0  0.27502  0.11154  0.12083  1.0000
  H   H879      1.0  0.28160  0.21035  0.14574  1.0000
  H   H880      1.0  0.26985  0.21291  0.12822  1.0000
  H   H881      1.0  0.28637  0.21808  0.09925  1.0000
  H   H882      1.0  0.30135  0.18313  0.09954  1.0000
  H   H883      1.0  0.30672  0.13409  0.12598  1.0000
  H   H884      1.0  0.29878  0.15191  0.14817  1.0000
  H   H885      1.0  0.29507  0.06840  0.12925  1.0000
  H   H886      1.0  0.28456  0.08519  0.15009  1.0000
  H   H887      1.0  0.28899  0.14735  0.08125  1.0000
  H   H888      1.0  0.29764  0.10551  0.09754  1.0000
  H   H889      1.0  0.30506  0.21877  0.13167  1.0000
  H   H890      1.0  0.29190  0.25973  0.12401  1.0000
  H   H891      1.0  0.26371  0.13613  0.14631  1.0000
  H   H892      1.0  0.27476  0.14328  0.16428  1.0000
  N   N26       1.0  0.25599  0.91107  0.20240  1.0000
  N   N27       1.0  0.39597  0.22570  0.12462  1.0000
  H   H893      1.0  0.48539  0.76003  0.13454  1.0000
  H   H894      1.0  0.30271  0.02936  0.16019  1.0000
  H   H895      1.0  0.31468  0.06488  0.14822  1.0000
  H   H896      1.0  0.30401  0.08103  0.16948  1.0000
  H   H897      1.0  0.28017  0.05574  0.09733  1.0000
  H   H898      1.0  0.27089  0.09863  0.08205  1.0000
  H   H899      1.0  0.28667  0.07392  0.07252  1.0000
  H   H900      1.0  0.30448  0.27420  0.09073  1.0000
  H   H901      1.0  0.31299  0.28519  0.11090  1.0000
  H   H902      1.0  0.31791  0.23531  0.09936  1.0000
  H   H903      1.0  0.47725  0.07194  0.17807  1.0000
  H   H904      1.0  0.48221  0.74320  0.22926  1.0000
  C   C513      1.0  0.47040  0.10645  0.07942  1.0000
  H   H905      1.0  0.41397  0.17730  0.06331  1.0000
  H   H906      1.0  0.48309  0.97870  0.10260  1.0000
  H   H907      1.0  0.35625  0.50405  0.02576  1.0000
  C   C514      1.0  0.40729  0.19721  0.09226  1.0000
  H   H908      1.0  0.33407  0.96564  0.20625  1.0000
  C   C515      1.0  0.46931  0.06057  0.09097  1.0000
  H   H909      1.0  0.44277  0.43112  0.12159  1.0000
  C   C516      1.0  0.25870  0.40736  0.04683  1.0000
  H   H910      1.0  0.33128  0.91674  0.19565  1.0000
  H   H911      1.0  0.38394  0.91660  0.24441  1.0000
  H   H912      1.0  0.47610  0.99235  0.15601  1.0000
  H   H913      1.0  0.41179  0.24400  0.15528  1.0000
  H   H914      1.0  0.27634  0.88673  0.22820  1.0000
  H   H915      1.0  0.34927  0.92591  0.23033  1.0000
  H   H916      1.0  0.46247  0.87465  0.22341  1.0000
  H   H917      1.0  0.40604  0.26664  0.02964  1.0000
  C   C517      1.0  0.34479  0.89448  0.23027  1.0000
  H   H918      1.0  0.37574  0.82827  0.23549  1.0000
  H   H919      1.0  0.25441  0.40784  0.00409  1.0000
  H   H920      1.0  0.46150  0.97876  0.09586  1.0000
  C   C518      1.0  0.47538  0.47894  0.02955  1.0000
  H   H921      1.0  0.31772  0.94968  0.20714  1.0000
  H   H922      1.0  0.37592  0.29140  0.10945  1.0000
  H   H923      1.0  0.32976  0.73628  0.23265  1.0000
  C   C519      1.0  0.46280  0.52037  0.15769  1.0000
  H   H924      1.0  0.24739  0.99250  0.04496  1.0000
  H   H925      1.0  0.46335  0.13172  0.08625  1.0000
  H   H926      1.0  0.48064  0.44507  0.03178  1.0000
  S   S127      1.0  0.49082  0.62205  0.10511  1.0000
  H   H927      1.0  0.44195  0.93319  0.12671  1.0000
  H   H928      1.0  0.47028  0.65778  0.05784  1.0000
  H   H929      1.0  0.46422  0.08973  0.14944  1.0000
  H   H930      1.0  0.38243  0.15056  0.14276  1.0000
  H   H931      1.0  0.48869  0.86532  0.21752  1.0000
  H   H932      1.0  0.47388  0.73570  0.19830  1.0000
  H   H933      1.0  0.43242  0.41196  0.14313  1.0000
  H   H934      1.0  0.46364  0.63733  0.09590  1.0000
  C   C520      1.0  0.46787  0.05729  0.17808  1.0000
  H   H935      1.0  0.37521  0.21942  0.13132  1.0000
  H   H936      1.0  0.45161  0.02085  0.12634  1.0000
  C   C521      1.0  0.44087  0.61147  0.16331  1.0000
  H   H937      1.0  0.25265  0.25502  0.10306  1.0000
  N   N28       1.0  0.46941  0.80465  0.22610  1.0000
  C   C522      1.0  0.33676  0.79734  0.23813  1.0000
  C   C523      1.0  0.25392  0.81784  0.16896  1.0000
  C   C524      1.0  0.40720  0.27246  0.14567  1.0000
  N   N29       1.0  0.34458  0.54755  0.07958  1.0000
  C   C525      1.0  0.34171  0.53244  0.06046  1.0000
  C   C526      1.0  0.33646  0.52406  0.09654  1.0000
  C   C527      1.0  0.34001  0.59658  0.07866  1.0000
  C   C528      1.0  0.35905  0.54037  0.08286  1.0000
  C   C529      1.0  0.36731  0.50023  0.07415  1.0000
  C   C530      1.0  0.34744  0.55952  0.04134  1.0000
  C   C531      1.0  0.34040  0.61802  0.09794  1.0000
  C   C532      1.0  0.33979  0.47336  0.10086  1.0000
  C   C533      1.0  0.33033  0.45376  0.11757  1.0000
  C   C534      1.0  0.38090  0.49147  0.08186  1.0000
  C   C535      1.0  0.34892  0.53351  0.02350  1.0000
  C   C536      1.0  0.33932  0.66858  0.09391  1.0000
  H   H938      1.0  0.33087  0.53455  0.05959  1.0000
  H   H939      1.0  0.34508  0.49681  0.05986  1.0000
  H   H940      1.0  0.33747  0.53697  0.11069  1.0000
  H   H941      1.0  0.32584  0.53073  0.09405  1.0000
  H   H942      1.0  0.32972  0.60327  0.07440  1.0000
  H   H943      1.0  0.34603  0.61571  0.06684  1.0000
  H   H944      1.0  0.36409  0.56998  0.07641  1.0000
  H   H945      1.0  0.36027  0.53717  0.09900  1.0000
  H   H946      1.0  0.36878  0.50665  0.05778  1.0000
  H   H947      1.0  0.36251  0.46940  0.07777  1.0000
  H   H948      1.0  0.34071  0.59015  0.03788  1.0000
  H   H949      1.0  0.35720  0.56969  0.04315  1.0000
  H   H950      1.0  0.34963  0.60662  0.10502  1.0000
  H   H951      1.0  0.33195  0.60932  0.10867  1.0000
  H   H952      1.0  0.33913  0.45669  0.08764  1.0000
  H   H953      1.0  0.34981  0.46549  0.10584  1.0000
  H   H954      1.0  0.33135  0.46721  0.13160  1.0000
  H   H955      1.0  0.31998  0.46161  0.11389  1.0000
  H   H956      1.0  0.33258  0.41716  0.11987  1.0000
  H   H957      1.0  0.38668  0.46363  0.07488  1.0000
  H   H958      1.0  0.38631  0.52126  0.07820  1.0000
  H   H959      1.0  0.38002  0.48204  0.09815  1.0000
  H   H960      1.0  0.48529  0.54201  0.18920  1.0000
  C   C537      1.0  0.48458  0.98760  0.11733  1.0000
  C   C538      1.0  0.28988  0.31202  0.99874  1.0000
  H   H961      1.0  0.33046  0.68145  0.08610  1.0000
  H   H962      1.0  0.33843  0.68291  0.10817  1.0000
  H   H963      1.0  0.34819  0.67959  0.08479  1.0000
  C   C539      1.0  0.37325  0.86379  0.23751  1.0000
  H   H964      1.0  0.25979  0.83200  0.15556  1.0000
  H   H965      1.0  0.36377  0.30086  0.15195  1.0000
  C   C540      1.0  0.37692  0.28923  0.12553  1.0000
  H   H966      1.0  0.47282  0.57812  0.16187  1.0000
  H   H967      1.0  0.40079  0.18718  0.15225  1.0000
  N   N30       1.0  0.25521  0.34756  0.02463  1.0000
  C   C541      1.0  0.48864  0.94406  0.13065  1.0000
  C   C542      1.0  0.36329  0.30173  0.13575  1.0000
  H   H968      1.0  0.43774  0.98128  0.10925  1.0000
  H   H969      1.0  0.40331  0.28925  0.11467  1.0000
  H   H970      1.0  0.39714  0.16819  0.07149  1.0000
  C   C543      1.0  0.44479  0.95122  0.11201  1.0000
  H   H971      1.0  0.35627  0.27870  0.13304  1.0000
  H   H972      1.0  0.41117  0.17226  0.13153  1.0000
  H   H973      1.0  0.41165  0.33984  0.13492  1.0000
  H   H974      1.0  0.41697  0.31881  0.15896  1.0000
  H   H975      1.0  0.35955  0.33587  0.12976  1.0000
  C   C544      1.0  0.38253  0.24181  0.13368  1.0000
  H   H976      1.0  0.38331  0.31446  0.12794  1.0000
  H   H977      1.0  0.45391  0.66797  0.11426  1.0000
  H   H978      1.0  0.38645  0.20066  0.10213  1.0000
  C   C545      1.0  0.29039  0.93184  0.21670  1.0000
  C   C546      1.0  0.32999  0.90860  0.22789  1.0000
  H   H979      1.0  0.41047  0.16395  0.09980  1.0000
  H   H980      1.0  0.39255  0.25242  0.09451  1.0000
  C   C547      1.0  0.39863  0.10114  0.14781  1.0000
  H   H981      1.0  0.39216  0.13564  0.12069  1.0000
  H   H982      1.0  0.41568  0.24545  0.11923  1.0000
  H   H983      1.0  0.46806  0.10626  0.06395  1.0000
  H   H984      1.0  0.29233  0.28341  0.00998  1.0000
  C   C548      1.0  0.47941  0.91852  0.19870  1.0000
  H   H985      1.0  0.25681  0.98893  0.17296  1.0000
  C   C549      1.0  0.46841  0.85027  0.21439  1.0000
  C   C550      1.0  0.43576  0.44196  0.13396  1.0000
  H   H986      1.0  0.33936  0.52249  0.02115  1.0000
  H   H987      1.0  0.47725  0.58086  0.05154  1.0000
  C   C551      1.0  0.44406  0.80437  0.23322  1.0000
  C   C552      1.0  0.46011  0.99488  0.12683  1.0000
  H   H988      1.0  0.45602  0.78214  0.20804  1.0000
  H   H989      1.0  0.46283  0.85082  0.20123  1.0000
  H   H990      1.0  0.41465  0.29921  0.99783  1.0000
  H   H991      1.0  0.48497  0.03792  0.14564  1.0000
  H   H992      1.0  0.45563  0.49842  0.12346  1.0000
  C   C553      1.0  0.44901  0.60045  0.11418  1.0000
  N   N31       1.0  0.45212  0.54422  0.14549  1.0000
  C   C554      1.0  0.47535  0.02419  0.14606  1.0000
  C   C555      1.0  0.48070  0.43656  0.10912  1.0000
  C   C556      1.0  0.47173  0.06058  0.11292  1.0000
  H   H993      1.0  0.45839  0.97485  0.14145  1.0000
  H   H994      1.0  0.43938  0.63557  0.14994  1.0000
  C   C557      1.0  0.48157  0.86924  0.20626  1.0000
  C   C558      1.0  0.25053  0.30201  0.02679  1.0000
  S   S128      1.0  0.47099  0.68338  0.14764  1.0000
  C   C559      1.0  0.39486  0.21968  0.10333  1.0000
  H   H995      1.0  0.47759  0.78987  0.18738  1.0000
  C   C560      1.0  0.44242  0.46885  0.14665  1.0000
  H   H996      1.0  0.39761  0.28428  0.15319  1.0000
  H   H997      1.0  0.41553  0.21795  0.09113  1.0000
  C   C561      1.0  0.44752  0.51050  0.13415  1.0000
  H   H998      1.0  0.47747  0.49196  0.19008  1.0000
  H   H999      1.0  0.43941  0.54138  0.17280  1.0000
  H   H1000     1.0  0.45072  0.44652  0.15274  1.0000
  H   H1001     1.0  0.46104  0.60590  0.13781  1.0000
  H   H1002     1.0  0.42708  0.46190  0.12775  1.0000
  H   H1003     1.0  0.46891  0.48044  0.01742  1.0000
  C   C562      1.0  0.46914  0.54833  0.17062  1.0000
  C   C563      1.0  0.45798  0.57902  0.13053  1.0000
  H   H1004     1.0  0.38241  0.24005  0.15006  1.0000
  H   H1005     1.0  0.27495  0.32336  0.03130  1.0000
  C   C564      1.0  0.38562  0.88050  0.24313  1.0000
  C   C565      1.0  0.48118  0.77454  0.21895  1.0000
  C   C566      1.0  0.48399  0.48040  0.10686  1.0000
  Fe  Fe66      1.0  0.49041  0.65499  0.13263  1.0000
  C   C567      1.0  0.25999  0.87614  0.18861  1.0000
  C   C568      1.0  0.41599  0.30996  0.14399  1.0000
  H   H1006     1.0  0.27205  0.94837  0.18953  1.0000
  H   H1007     1.0  0.43228  0.78893  0.21071  1.0000
  H   H1008     1.0  0.47924  0.54650  0.02202  1.0000
  C   C569      1.0  0.46474  0.05522  0.15688  1.0000
  H   H1009     1.0  0.45897  0.49320  0.16830  1.0000
  C   C570      1.0  0.40792  0.32186  0.00658  1.0000
  H   H1010     1.0  0.27366  0.37666  0.01759  1.0000
  H   H1011     1.0  0.25758  0.45640  0.06741  1.0000
  C   C571      1.0  0.25070  0.88875  0.22216  1.0000
  H   H1012     1.0  0.44416  0.92910  0.10058  1.0000
  H   H1013     1.0  0.41379  0.33954  0.01512  1.0000
  H   H1014     1.0  0.27058  0.29397  0.99792  1.0000
  H   H1015     1.0  0.40338  0.42729  0.01309  1.0000
  C   C572      1.0  0.40812  0.44543  0.99965  1.0000
  H   H1016     1.0  0.25039  0.20603  0.15293  1.0000
  C   C573      1.0  0.48494  0.60363  0.05096  1.0000
  H   H1017     1.0  0.35234  0.55482  0.00999  1.0000
  C   C574      1.0  0.49432  0.74075  0.18982  1.0000
  H   H1018     1.0  0.48564  0.67526  0.04623  1.0000
  H   H1019     1.0  0.39259  0.37506  0.00358  1.0000
  H   H1020     1.0  0.45994  0.94849  0.24391  1.0000
  C   C575      1.0  0.24817  0.38061  0.00980  1.0000
  C   C576      1.0  0.48509  0.51377  0.02437  1.0000
  C   C577      1.0  0.24881  0.91754  0.23959  1.0000
  C   C578      1.0  0.24861  0.85384  0.18211  1.0000
  H   H1021     1.0  0.25101  0.94467  0.16249  1.0000
  H   H1022     1.0  0.25124  0.28878  0.01237  1.0000
  C   C579      1.0  0.34947  0.81466  0.24294  1.0000
  H   H1023     1.0  0.48849  0.60103  0.06581  1.0000
  H   H1024     1.0  0.32557  0.92889  0.23968  1.0000
  H   H1025     1.0  0.49236  0.41219  0.99685  1.0000
  H   H1026     1.0  0.25846  0.92133  0.24472  1.0000
  H   H1027     1.0  0.48626  0.85184  0.19365  1.0000
  H   H1028     1.0  0.49048  0.78931  0.21922  1.0000
  S   S129      1.0  0.24548  0.98993  0.11007  1.0000
  H   H1029     1.0  0.24562  0.80301  0.16414  1.0000
  H   H1030     1.0  0.49080  0.50706  0.01019  1.0000
  H   H1031     1.0  0.49282  0.59985  0.02041  1.0000
  H   H1032     1.0  0.48900  0.93095  0.19313  1.0000
  H   H1033     1.0  0.49354  0.72965  0.17518  1.0000
  C   C580      1.0  0.24536  0.94511  0.19451  1.0000
  H   H1034     1.0  0.46046  0.07905  0.31922  1.0000
  H   H1035     1.0  0.48516  0.08040  0.27523  1.0000
  S   S130      1.0  0.26792  0.82338  0.37588  1.0000
  C   C581      1.0  0.26544  0.71026  0.28559  1.0000
  C   C582      1.0  0.45822  0.93710  0.25951  1.0000
  S   S131      1.0  0.27593  0.92177  0.35945  1.0000
  C   C583      1.0  0.41190  0.79696  0.45465  1.0000
  Fe  Fe67      1.0  0.27285  0.86095  0.34563  1.0000
  S   S132      1.0  0.28770  0.83372  0.32111  1.0000
  Fe  Fe68      1.0  0.26919  0.88668  0.38944  1.0000
  S   S133      1.0  0.27945  0.87933  0.41882  1.0000
  H   H1036     1.0  0.26009  0.05842  0.49096  1.0000
  C   C584      1.0  0.42758  0.80133  0.47948  1.0000
  Fe  Fe69      1.0  0.47472  0.89633  0.38719  1.0000
  H   H1037     1.0  0.32838  0.86275  0.26239  1.0000
  S   S134      1.0  0.45762  0.89867  0.41147  1.0000
  Fe  Fe70      1.0  0.48227  0.91211  0.34161  1.0000
  S   S135      1.0  0.24779  0.91105  0.38646  1.0000
  S   S136      1.0  0.47872  0.92736  0.30841  1.0000
  C   C585      1.0  0.28578  0.16336  0.49410  1.0000
  H   H1038     1.0  0.49159  0.06391  0.42853  1.0000
  H   H1039     1.0  0.47175  0.93540  0.46103  1.0000
  H   H1040     1.0  0.27115  0.75769  0.31875  1.0000
  S   S137      1.0  0.48010  0.85037  0.36338  1.0000
  S   S138      1.0  0.47526  0.95732  0.36488  1.0000
  H   H1041     1.0  0.48125  0.15853  0.26139  1.0000
  C   C586      1.0  0.45886  0.85391  0.47841  1.0000
  C   C587      1.0  0.46920  0.83920  0.46488  1.0000
  C   C588      1.0  0.46916  0.85339  0.44440  1.0000
  C   C589      1.0  0.45870  0.88232  0.43721  1.0000
  C   C590      1.0  0.44853  0.89794  0.45079  1.0000
  C   C591      1.0  0.44867  0.88422  0.47129  1.0000
  H   H1042     1.0  0.47721  0.81611  0.47023  1.0000
  H   H1043     1.0  0.47706  0.84108  0.43415  1.0000
  H   H1044     1.0  0.44052  0.92092  0.44538  1.0000
  H   H1045     1.0  0.44091  0.89683  0.48161  1.0000
  C   C592      1.0  0.44627  0.92072  0.26678  1.0000
  C   C593      1.0  0.41146  0.89319  0.48638  1.0000
  C   C594      1.0  0.46795  0.93882  0.27246  1.0000
  C   C595      1.0  0.46591  0.92459  0.29291  1.0000
  C   C596      1.0  0.45398  0.90808  0.30016  1.0000
  C   C597      1.0  0.44429  0.90600  0.28716  1.0000
  H   H1046     1.0  0.26711  0.67538  0.29229  1.0000
  H   H1047     1.0  0.47712  0.95120  0.26651  1.0000
  H   H1048     1.0  0.45222  0.89676  0.31576  1.0000
  H   H1049     1.0  0.43513  0.89312  0.29300  1.0000
  C   C598      1.0  0.32542  0.91647  0.28931  1.0000
  H   H1050     1.0  0.32850  0.80327  0.24943  1.0000
  N   N32       1.0  0.48785  0.97393  0.44955  1.0000
  N   N33       1.0  0.25230  0.73337  0.31838  1.0000
  H   H1051     1.0  0.26173  0.75552  0.35412  1.0000
  C   C599      1.0  0.28608  0.95034  0.47306  1.0000
  C   C600      1.0  0.27801  0.97176  0.45844  1.0000
  C   C601      1.0  0.27579  0.95078  0.44193  1.0000
  C   C602      1.0  0.28168  0.90782  0.43958  1.0000
  C   C603      1.0  0.28968  0.88632  0.45429  1.0000
  C   C604      1.0  0.29190  0.90733  0.47079  1.0000
  H   H1052     1.0  0.27346  0.00505  0.45981  1.0000
  H   H1053     1.0  0.26961  0.96804  0.43090  1.0000
  H   H1054     1.0  0.29439  0.85328  0.45273  1.0000
  H   H1055     1.0  0.29839  0.89061  0.48150  1.0000
  N   N34       1.0  0.41403  0.81669  0.47300  1.0000
  C   C605      1.0  0.29828  0.80060  0.26498  1.0000
  C   C606      1.0  0.29848  0.80980  0.28470  1.0000
  C   C607      1.0  0.28692  0.82546  0.29578  1.0000
  C   C608      1.0  0.27515  0.83237  0.28665  1.0000
  C   C609      1.0  0.27494  0.82246  0.26705  1.0000
  C   C610      1.0  0.48177  0.82790  0.25390  1.0000
  H   H1056     1.0  0.30763  0.80395  0.29156  1.0000
  H   H1057     1.0  0.26619  0.84471  0.29480  1.0000
  H   H1058     1.0  0.42407  0.83844  0.43283  1.0000
  H   H1059     1.0  0.27438  0.72671  0.28668  1.0000
  H   H1060     1.0  0.47054  0.04550  0.43620  1.0000
  H   H1061     1.0  0.42158  0.87699  0.45861  1.0000
  H   H1062     1.0  0.40243  0.81193  0.44896  1.0000
  H   H1063     1.0  0.49081  0.67502  0.36663  1.0000
  H   H1064     1.0  0.48407  0.78644  0.28207  1.0000
  H   H1065     1.0  0.48923  0.99314  0.41768  1.0000
  C   C611      1.0  0.46624  0.03062  0.40776  1.0000
  C   C612      1.0  0.48134  0.94567  0.48644  1.0000
  H   H1066     1.0  0.28256  0.07581  0.49172  1.0000
  H   H1067     1.0  0.34077  0.72928  0.25191  1.0000
  H   H1068     1.0  0.49352  0.90488  0.44613  1.0000
  H   H1069     1.0  0.38764  0.85343  0.48101  1.0000
  C   C613      1.0  0.41900  0.78479  0.41888  1.0000
  H   H1070     1.0  0.25342  0.77070  0.28902  1.0000
  H   H1071     1.0  0.25076  0.64276  0.30987  1.0000
  H   H1072     1.0  0.30713  0.78716  0.25697  1.0000
  S   S139      1.0  0.24881  0.01196  0.34071  1.0000
  H   H1073     1.0  0.28080  0.71671  0.36990  1.0000
  C   C614      1.0  0.26646  0.72501  0.34823  1.0000
  H   H1074     1.0  0.25596  0.80448  0.44742  1.0000
  H   H1075     1.0  0.28587  0.68745  0.34867  1.0000
  C   C615      1.0  0.47950  0.06610  0.33141  1.0000
  C   C616      1.0  0.38935  0.81734  0.48567  1.0000
  C   C617      1.0  0.24517  0.77663  0.32407  1.0000
  H   H1076     1.0  0.41782  0.74888  0.42222  1.0000
  H   H1077     1.0  0.43525  0.81444  0.46831  1.0000
  H   H1078     1.0  0.42991  0.73355  0.47068  1.0000
  H   H1079     1.0  0.30864  0.11906  0.47361  1.0000
  H   H1080     1.0  0.27200  0.69931  0.32068  1.0000
  H   H1081     1.0  0.40971  0.80292  0.41380  1.0000
  H   H1082     1.0  0.38865  0.86235  0.25735  1.0000
  H   H1083     1.0  0.26224  0.74453  0.25615  1.0000
  C   C618      1.0  0.28648  0.80651  0.25603  1.0000
  C   C619      1.0  0.46944  0.01577  0.42907  1.0000
  H   H1084     1.0  0.46001  0.08513  0.34517  1.0000
  H   H1085     1.0  0.32554  0.94690  0.29651  1.0000
  H   H1086     1.0  0.26157  0.69624  0.35587  1.0000
  H   H1087     1.0  0.47247  0.83531  0.28369  1.0000
  H   H1088     1.0  0.26599  0.87137  0.48452  1.0000
  C   C620      1.0  0.48646  0.03489  0.31645  1.0000
  C   C621      1.0  0.36155  0.86985  0.25358  1.0000
  H   H1089     1.0  0.49128  0.81219  0.24766  1.0000
  H   H1090     1.0  0.33846  0.93863  0.26412  1.0000
  H   H1091     1.0  0.47444  0.04719  0.39913  1.0000
  C   C622      1.0  0.40392  0.80222  0.48944  1.0000
  H   H1092     1.0  0.36411  0.84780  0.26725  1.0000
  H   H1093     1.0  0.46084  0.99997  0.43693  1.0000
  H   H1094     1.0  0.40377  0.95582  0.47055  1.0000
  H   H1095     1.0  0.41081  0.76094  0.45817  1.0000
  C   C623      1.0  0.26586  0.72886  0.32554  1.0000
  C   C624      1.0  0.47703  0.96185  0.46538  1.0000
  H   H1096     1.0  0.48167  0.10089  0.32718  1.0000
  H   H1097     1.0  0.42692  0.78919  0.40665  1.0000
  H   H1098     1.0  0.27144  0.14295  0.47623  1.0000
  Fe  Fe71      1.0  0.24696  0.84984  0.37153  1.0000
  C   C625      1.0  0.33849  0.86588  0.26588  1.0000
  C   C626      1.0  0.25869  0.00556  0.27778  1.0000
  H   H1099     1.0  0.46203  0.03055  0.33731  1.0000
  C   C627      1.0  0.32330  0.07071  0.48562  1.0000
  S   S140      1.0  0.43366  0.91693  0.25113  1.0000
  H   H1100     1.0  0.48689  0.00071  0.32445  1.0000
  H   H1101     1.0  0.32466  0.88789  0.30105  1.0000
  H   H1102     1.0  0.43225  0.78492  0.44094  1.0000
  H   H1103     1.0  0.44768  0.70259  0.49095  1.0000
  C   C628      1.0  0.42268  0.80294  0.43710  1.0000
  S   S141      1.0  0.25180  0.88354  0.34073  1.0000
  H   H1104     1.0  0.46948  0.99072  0.46683  1.0000
  H   H1105     1.0  0.26576  0.82663  0.26040  1.0000
  C   C629      1.0  0.28067  0.71860  0.35359  1.0000
  H   H1106     1.0  0.40434  0.87865  0.45955  1.0000
  C   C630      1.0  0.48202  0.82204  0.27641  1.0000
  H   H1107     1.0  0.26062  0.64250  0.33030  1.0000
  H   H1108     1.0  0.26365  0.00032  0.29170  1.0000
  H   H1109     1.0  0.29002  0.21064  0.45617  1.0000
  H   H1110     1.0  0.25786  0.85985  0.45192  1.0000
  C   C631      1.0  0.48785  0.10584  0.28370  1.0000
  C   C632      1.0  0.30897  0.09079  0.48553  1.0000
  H   H1111     1.0  0.34063  0.83789  0.27766  1.0000
  H   H1112     1.0  0.36131  0.90441  0.25716  1.0000
  H   H1113     1.0  0.45219  0.75320  0.47660  1.0000
  H   H1114     1.0  0.48299  0.05514  0.34626  1.0000
  H   H1115     1.0  0.34646  0.90761  0.28449  1.0000
  C   C633      1.0  0.26069  0.84295  0.49188  1.0000
  C   C634      1.0  0.41285  0.86656  0.46832  1.0000
  H   H1116     1.0  0.28602  0.74701  0.34662  1.0000
  C   C635      1.0  0.26171  0.80891  0.47671  1.0000
  H   H1117     1.0  0.32687  0.06066  0.47080  1.0000
  H   H1118     1.0  0.27317  0.69417  0.25633  1.0000
  H   H1119     1.0  0.42901  0.81540  0.49314  1.0000
  H   H1120     1.0  0.27212  0.80072  0.47109  1.0000
  H   H1121     1.0  0.35359  0.79147  0.25528  1.0000
  H   H1122     1.0  0.47987  0.03434  0.30467  1.0000
  H   H1123     1.0  0.48536  0.91017  0.48726  1.0000
  C   C636      1.0  0.46459  0.06507  0.33335  1.0000
  H   H1124     1.0  0.45721  0.05437  0.40764  1.0000
  H   H1125     1.0  0.47915  0.95054  0.42588  1.0000
  H   H1126     1.0  0.25121  0.80432  0.31845  1.0000
  H   H1127     1.0  0.27673  0.19125  0.44565  1.0000
  Fe  Fe72      1.0  0.25439  0.94232  0.35586  1.0000
  H   H1128     1.0  0.31659  0.92050  0.28089  1.0000
  C   C637      1.0  0.25429  0.82797  0.45875  1.0000
  H   H1129     1.0  0.24708  0.73396  0.38242  1.0000
  H   H1130     1.0  0.25720  0.97257  0.27380  1.0000
  H   H1131     1.0  0.24665  0.58079  0.33554  1.0000
  C   C638      1.0  0.25053  0.64881  0.32555  1.0000
  H   H1132     1.0  0.24758  0.06516  0.28583  1.0000
  C   C639      1.0  0.44527  0.73913  0.48873  1.0000
  H   H1133     1.0  0.38640  0.79976  0.47390  1.0000
  H   H1134     1.0  0.25751  0.77800  0.48331  1.0000
  C   C640      1.0  0.43105  0.75043  0.48369  1.0000
  H   H1135     1.0  0.46447  0.00161  0.40058  1.0000
  H   H1136     1.0  0.25571  0.69136  0.26157  1.0000
  C   C641      1.0  0.28025  0.19791  0.45968  1.0000
  H   H1137     1.0  0.40461  0.76547  0.49231  1.0000
  C   C642      1.0  0.25323  0.73569  0.29598  1.0000
  H   H1138     1.0  0.48902  0.00139  0.27999  1.0000
  C   C643      1.0  0.28129  0.15516  0.47399  1.0000
  H   H1139     1.0  0.49248  0.17431  0.27711  1.0000
  H   H1140     1.0  0.27316  0.22363  0.46614  1.0000
  H   H1141     1.0  0.48599  0.03521  0.46304  1.0000
  C   C644      1.0  0.33797  0.90935  0.27549  1.0000
  H   H1142     1.0  0.32964  0.09512  0.48912  1.0000
  C   C645      1.0  0.41191  0.94272  0.47987  1.0000
  C   C646      1.0  0.48195  0.98213  0.42992  1.0000
  C   C647      1.0  0.46986  0.80782  0.24788  1.0000
  H   H1143     1.0  0.29418  0.18388  0.49087  1.0000
  H   H1144     1.0  0.26518  0.02259  0.26593  1.0000
  C   C648      1.0  0.26398  0.71014  0.26359  1.0000
  H   H1145     1.0  0.24573  0.54205  0.43162  1.0000
  H   H1146     1.0  0.47917  0.11487  0.29397  1.0000
  H   H1147     1.0  0.28808  0.13025  0.46663  1.0000
  H   H1148     1.0  0.46933  0.77437  0.25647  1.0000
  H   H1149     1.0  0.42145  0.94913  0.47142  1.0000
  H   H1150     1.0  0.48898  0.96506  0.49022  1.0000
  H   H1151     1.0  0.48985  0.84031  0.28055  1.0000
  H   H1152     1.0  0.30325  0.06489  0.48189  1.0000
  C   C649      1.0  0.49022  0.14707  0.26915  1.0000
  H   H1153     1.0  0.25023  0.85647  0.49377  1.0000
  S   S142      1.0  0.28886  0.97957  0.49328  1.0000
  H   H1154     1.0  0.41076  0.96065  0.49316  1.0000
  H   H1155     1.0  0.44352  0.79875  0.24964  1.0000
  C   C650      1.0  0.49357  0.01394  0.45469  1.0000
  N   N35       1.0  0.34827  0.86171  0.24797  1.0000
  H   H1156     1.0  0.24541  0.13882  0.37315  1.0000
  H   H1157     1.0  0.24577  0.12470  0.25958  1.0000
  H   H1158     1.0  0.46116  0.82924  0.25362  1.0000
  H   H1159     1.0  0.48094  0.86408  0.24898  1.0000
  H   H1160     1.0  0.40188  0.88936  0.49508  1.0000
  C   C651      1.0  0.24551  0.03361  0.28104  1.0000
  Fe  Fe73      1.0  0.30236  0.29633  0.70162  1.0000
  S   S143      1.0  0.31523  0.34887  0.68736  1.0000
  C   C652      1.0  0.46974  0.94939  0.50230  1.0000
  Fe  Fe74      1.0  0.30802  0.24276  0.66424  1.0000
  S   S144      1.0  0.32114  0.29276  0.64885  1.0000
  S   S145      1.0  0.30241  0.18288  0.64964  1.0000
  Fe  Fe75      1.0  0.32970  0.29288  0.67789  1.0000
  S   S146      1.0  0.35226  0.29231  0.67388  1.0000
  Fe  Fe76      1.0  0.30586  0.34497  0.65957  1.0000
  S   S147      1.0  0.30147  0.40661  0.63802  1.0000
  S   S148      1.0  0.31736  0.23914  0.69334  1.0000
  S   S149      1.0  0.29219  0.29584  0.67373  1.0000
  S   S150      1.0  0.25975  0.69226  0.58148  1.0000
  H   H1161     1.0  0.29156  0.48292  0.61276  1.0000
  Fe  Fe77      1.0  0.31692  0.92017  0.55305  1.0000
  S   S151      1.0  0.31478  0.98709  0.53498  1.0000
  S   S152      1.0  0.33553  0.87424  0.55948  1.0000
  Fe  Fe78      1.0  0.28764  0.92450  0.56611  1.0000
  S   S153      1.0  0.28386  0.99286  0.54971  1.0000
  S   S154      1.0  0.26964  0.89422  0.58192  1.0000
  Fe  Fe79      1.0  0.29670  0.96441  0.52442  1.0000
  Fe  Fe80      1.0  0.30207  0.00976  0.56186  1.0000
  S   S155      1.0  0.30606  0.07654  0.57236  1.0000
  S   S156      1.0  0.29984  0.89600  0.54075  1.0000
  S   S157      1.0  0.30483  0.94316  0.58001  1.0000
  Fe  Fe81      1.0  0.44350  0.40903  0.66800  1.0000
  S   S158      1.0  0.44974  0.46892  0.67894  1.0000
  S   S159      1.0  0.46097  0.37549  0.65007  1.0000
  Fe  Fe82      1.0  0.41620  0.42170  0.68973  1.0000
  S   S160      1.0  0.42117  0.48175  0.70244  1.0000
  S   S161      1.0  0.39500  0.40571  0.69999  1.0000
  Fe  Fe83      1.0  0.43014  0.50391  0.67168  1.0000
  S   S162      1.0  0.42669  0.57921  0.66166  1.0000
  Fe  Fe84      1.0  0.44056  0.44307  0.70891  1.0000
  C   C653      1.0  0.24825  0.46781  0.68948  1.0000
  S   S163      1.0  0.42425  0.44589  0.65860  1.0000
  S   S164      1.0  0.43520  0.38125  0.69831  1.0000
  Fe  Fe85      1.0  0.44338  0.83840  0.53007  1.0000
  S   S165      1.0  0.43213  0.90032  0.53993  1.0000
  C   C654      1.0  0.47686  0.80195  0.59025  1.0000
  Fe  Fe86      1.0  0.43210  0.77926  0.56698  1.0000
  S   S166      1.0  0.41968  0.83745  0.57894  1.0000
  S   S167      1.0  0.43577  0.70587  0.57979  1.0000
  Fe  Fe87      1.0  0.41496  0.85949  0.54751  1.0000
  S   S168      1.0  0.39626  0.89721  0.53593  1.0000
  Fe  Fe88      1.0  0.43763  0.87421  0.57049  1.0000
  S   S169      1.0  0.44251  0.91784  0.59269  1.0000
  S   S170      1.0  0.42602  0.79853  0.53584  1.0000
  S   S171      1.0  0.45021  0.81523  0.56031  1.0000
  C   C655      1.0  0.45819  0.93372  0.59518  1.0000
  C   C656      1.0  0.45968  0.95676  0.61114  1.0000
  C   C657      1.0  0.47183  0.97154  0.61336  1.0000
  C   C658      1.0  0.48258  0.96384  0.59954  1.0000
  C   C659      1.0  0.46904  0.92481  0.58163  1.0000
  H   H1162     1.0  0.45136  0.96345  0.62178  1.0000
  H   H1163     1.0  0.47290  0.98906  0.62573  1.0000
  H   H1164     1.0  0.46802  0.90720  0.56924  1.0000
  C   C660      1.0  0.43261  0.67114  0.60255  1.0000
  C   C661      1.0  0.42624  0.68760  0.61960  1.0000
  C   C662      1.0  0.42454  0.65901  0.63746  1.0000
  C   C663      1.0  0.42892  0.61338  0.63851  1.0000
  C   C664      1.0  0.43516  0.59686  0.62140  1.0000
  C   C665      1.0  0.43705  0.62560  0.60362  1.0000
  H   H1165     1.0  0.42261  0.72231  0.61900  1.0000
  H   H1166     1.0  0.41966  0.67232  0.65051  1.0000
  H   H1167     1.0  0.43863  0.56199  0.62187  1.0000
  H   H1168     1.0  0.44199  0.61235  0.59057  1.0000
  C   C666      1.0  0.46299  0.32279  0.64151  1.0000
  C   C667      1.0  0.47562  0.30606  0.63417  1.0000
  C   C668      1.0  0.47773  0.26496  0.62660  1.0000
  C   C669      1.0  0.46714  0.24064  0.62589  1.0000
  C   C670      1.0  0.45450  0.25731  0.63319  1.0000
  C   C671      1.0  0.45244  0.29800  0.64122  1.0000
  H   H1169     1.0  0.48380  0.32523  0.63426  1.0000
  H   H1170     1.0  0.33464  0.54408  0.63104  1.0000
  H   H1171     1.0  0.44624  0.23877  0.63263  1.0000
  H   H1172     1.0  0.44266  0.31070  0.64672  1.0000
  C   C672      1.0  0.35234  0.88183  0.55290  1.0000
  C   C673      1.0  0.35632  0.91469  0.53806  1.0000
  C   C674      1.0  0.36981  0.91907  0.53320  1.0000
  C   C675      1.0  0.37945  0.89068  0.54309  1.0000
  C   C676      1.0  0.37547  0.85799  0.55802  1.0000
  C   C677      1.0  0.36198  0.85359  0.56285  1.0000
  H   H1173     1.0  0.34903  0.93609  0.53004  1.0000
  H   H1174     1.0  0.37280  0.94428  0.52154  1.0000
  H   H1175     1.0  0.38277  0.83585  0.56571  1.0000
  H   H1176     1.0  0.35899  0.82793  0.57431  1.0000
  C   C678      1.0  0.26218  0.74845  0.58228  1.0000
  C   C679      1.0  0.25198  0.78001  0.58794  1.0000
  C   C680      1.0  0.25440  0.82452  0.58781  1.0000
  C   C681      1.0  0.26701  0.83789  0.58200  1.0000
  C   C682      1.0  0.27719  0.80629  0.57640  1.0000
  C   C683      1.0  0.27477  0.76190  0.57649  1.0000
  H   H1177     1.0  0.47831  0.12466  0.67579  1.0000
  H   H1178     1.0  0.28698  0.81595  0.57227  1.0000
  H   H1179     1.0  0.28274  0.73767  0.57223  1.0000
  C   C684      1.0  0.30380  0.15355  0.62797  1.0000
  C   C685      1.0  0.31031  0.16883  0.60972  1.0000
  C   C686      1.0  0.31086  0.14498  0.59309  1.0000
  C   C687      1.0  0.30511  0.10484  0.59426  1.0000
  C   C688      1.0  0.29873  0.08928  0.61254  1.0000
  C   C689      1.0  0.29800  0.11351  0.62909  1.0000
  H   H1180     1.0  0.31494  0.19916  0.60839  1.0000
  H   H1181     1.0  0.31587  0.15770  0.57920  1.0000
  H   H1182     1.0  0.29420  0.05872  0.61395  1.0000
  H   H1183     1.0  0.29293  0.10092  0.64297  1.0000
  C   C690      1.0  0.36386  0.32501  0.68115  1.0000
  C   C691      1.0  0.36101  0.35023  0.69703  1.0000
  C   C692      1.0  0.37063  0.37470  0.70245  1.0000
  C   C693      1.0  0.38326  0.37440  0.69215  1.0000
  C   C694      1.0  0.38608  0.34935  0.67621  1.0000
  C   C695      1.0  0.37648  0.32469  0.67086  1.0000
  H   H1184     1.0  0.35150  0.35013  0.70542  1.0000
  H   H1185     1.0  0.36832  0.39368  0.71487  1.0000
  H   H1186     1.0  0.39572  0.34857  0.66815  1.0000
  H   H1187     1.0  0.37889  0.30499  0.65870  1.0000
  C   C696      1.0  0.28528  0.43179  0.63535  1.0000
  C   C697      1.0  0.27445  0.41456  0.64645  1.0000
  C   C698      1.0  0.26164  0.43322  0.64281  1.0000
  C   C699      1.0  0.25956  0.47018  0.62857  1.0000
  C   C700      1.0  0.27041  0.48861  0.61806  1.0000
  C   C701      1.0  0.28323  0.46920  0.62133  1.0000
  H   H1188     1.0  0.27594  0.38657  0.65766  1.0000
  H   H1189     1.0  0.47959  0.73509  0.60305  1.0000
  H   H1190     1.0  0.26891  0.51700  0.60701  1.0000
  N   N36       1.0  0.45216  0.09799  0.58122  1.0000
  C   C702      1.0  0.44534  0.14462  0.57970  1.0000
  C   C703      1.0  0.45721  0.08691  0.60141  1.0000
  C   C704      1.0  0.46397  0.09745  0.56604  1.0000
  C   C705      1.0  0.44351  0.06382  0.57742  1.0000
  C   C706      1.0  0.42853  0.07269  0.58348  1.0000
  C   C707      1.0  0.44190  0.16501  0.55867  1.0000
  C   C708      1.0  0.47324  0.05360  0.56656  1.0000
  C   C709      1.0  0.44681  0.08625  0.61950  1.0000
  C   C710      1.0  0.45332  0.08068  0.63887  1.0000
  C   C711      1.0  0.42155  0.03157  0.58275  1.0000
  C   C712      1.0  0.43204  0.20633  0.55943  1.0000
  H   H1191     1.0  0.26327  0.61817  0.64847  1.0000
  H   H1192     1.0  0.45160  0.16739  0.58493  1.0000
  H   H1193     1.0  0.43619  0.14691  0.58978  1.0000
  H   H1194     1.0  0.46269  0.05357  0.60282  1.0000
  H   H1195     1.0  0.46446  0.10998  0.60328  1.0000
  H   H1196     1.0  0.47009  0.12428  0.56765  1.0000
  H   H1197     1.0  0.46077  0.10422  0.55080  1.0000
  H   H1198     1.0  0.44436  0.05953  0.56139  1.0000
  H   H1199     1.0  0.44703  0.03056  0.58488  1.0000
  H   H1200     1.0  0.42402  0.09984  0.57314  1.0000
  H   H1201     1.0  0.42641  0.08248  0.59857  1.0000
  H   H1202     1.0  0.45092  0.17523  0.54965  1.0000
  H   H1203     1.0  0.43775  0.14082  0.55096  1.0000
  H   H1204     1.0  0.46765  0.02454  0.56713  1.0000
  H   H1205     1.0  0.47893  0.04952  0.57967  1.0000
  H   H1206     1.0  0.44010  0.11734  0.61925  1.0000
  H   H1207     1.0  0.44104  0.05761  0.61995  1.0000
  H   H1208     1.0  0.44567  0.07950  0.65160  1.0000
  H   H1209     1.0  0.46003  0.04951  0.64032  1.0000
  H   H1210     1.0  0.45897  0.10914  0.63950  1.0000
  H   H1211     1.0  0.42508  0.00425  0.59392  1.0000
  H   H1212     1.0  0.41079  0.03933  0.58613  1.0000
  H   H1213     1.0  0.42336  0.02014  0.56784  1.0000
  H   H1214     1.0  0.42257  0.19772  0.56755  1.0000
  H   H1215     1.0  0.43599  0.23149  0.56687  1.0000
  H   H1216     1.0  0.26921  0.37134  0.57893  1.0000
  H   H1217     1.0  0.46893  0.15828  0.65749  1.0000
  H   H1218     1.0  0.46684  0.35330  0.70006  1.0000
  N   N37       1.0  0.27052  0.30596  0.61283  1.0000
  C   C713      1.0  0.43468  0.63514  0.73454  1.0000
  C   C714      1.0  0.28375  0.31870  0.60338  1.0000
  H   H1219     1.0  0.45994  0.64883  0.65919  1.0000
  C   C715      1.0  0.26651  0.26756  0.60393  1.0000
  H   H1220     1.0  0.42783  0.72534  0.73918  1.0000
  H   H1221     1.0  0.47109  0.56472  0.71298  1.0000
  Fe  Fe89      1.0  0.48878  0.14717  0.61519  1.0000
  C   C716      1.0  0.29618  0.29543  0.61290  1.0000
  C   C717      1.0  0.30868  0.30497  0.59963  1.0000
  H   H1222     1.0  0.49302  0.76794  0.57285  1.0000
  H   H1223     1.0  0.35760  0.33615  0.60813  1.0000
  C   C718      1.0  0.26833  0.18485  0.60178  1.0000
  C   C719      1.0  0.26017  0.57275  0.67550  1.0000
  H   H1224     1.0  0.28492  0.31365  0.58743  1.0000
  H   H1225     1.0  0.28439  0.35481  0.60372  1.0000
  H   H1226     1.0  0.27947  0.20822  0.55170  1.0000
  H   H1227     1.0  0.47297  0.61454  0.64705  1.0000
  N   N38       1.0  0.46271  0.76477  0.62025  1.0000
  H   H1228     1.0  0.26681  0.27509  0.58755  1.0000
  S   S172      1.0  0.45923  0.83395  0.50398  1.0000
  H   H1229     1.0  0.45241  0.72101  0.64259  1.0000
  S   S173      1.0  0.46929  0.19057  0.61506  1.0000
  H   H1230     1.0  0.31288  0.52813  0.60575  1.0000
  C   C720      1.0  0.48022  0.19553  0.67316  1.0000
  H   H1231     1.0  0.46911  0.82963  0.58731  1.0000
  C   C721      1.0  0.29500  0.16986  0.53501  1.0000
  H   H1232     1.0  0.30966  0.34112  0.59750  1.0000
  H   H1233     1.0  0.31740  0.28749  0.60665  1.0000
  H   H1234     1.0  0.30855  0.29296  0.58503  1.0000
  H   H1235     1.0  0.45008  0.55793  0.73310  1.0000
  H   H1236     1.0  0.44108  0.53319  0.71751  1.0000
  H   H1237     1.0  0.26033  0.59965  0.68485  1.0000
  C   C722      1.0  0.25325  0.93315  0.53726  1.0000
  N   N39       1.0  0.28935  0.12298  0.50855  1.0000
  H   H1238     1.0  0.26803  0.56031  0.64557  1.0000
  H   H1239     1.0  0.25265  0.51404  0.70875  1.0000
  C   C723      1.0  0.40142  0.63398  0.69574  1.0000
  H   H1240     1.0  0.39175  0.65362  0.69840  1.0000
  H   H1241     1.0  0.40680  0.65020  0.68234  1.0000
  H   H1242     1.0  0.39966  0.60025  0.69294  1.0000
  H   H1243     1.0  0.24577  0.96176  0.53412  1.0000
  N   N40       1.0  0.34895  0.99877  0.59081  1.0000
  C   C724      1.0  0.34828  0.02110  0.60937  1.0000
  C   C725      1.0  0.36308  0.98234  0.58492  1.0000
  C   C726      1.0  0.34445  0.03382  0.57449  1.0000
  C   C727      1.0  0.34029  0.96146  0.59298  1.0000
  C   C728      1.0  0.33866  0.93393  0.61371  1.0000
  C   C729      1.0  0.33476  0.04654  0.61536  1.0000
  C   C730      1.0  0.34555  0.01943  0.55341  1.0000
  C   C731      1.0  0.37007  0.94700  0.59971  1.0000
  C   C732      1.0  0.38472  0.93833  0.59304  1.0000
  C   C733      1.0  0.33344  0.88969  0.61254  1.0000
  C   C734      1.0  0.33374  0.05670  0.63679  1.0000
  C   C735      1.0  0.33963  0.05643  0.53868  1.0000
  H   H1244     1.0  0.35570  0.04547  0.60765  1.0000
  H   H1245     1.0  0.35105  0.99719  0.62222  1.0000
  H   H1246     1.0  0.36384  0.96626  0.57112  1.0000
  H   H1247     1.0  0.36910  0.01090  0.58158  1.0000
  H   H1248     1.0  0.34999  0.06332  0.57366  1.0000
  H   H1249     1.0  0.33390  0.04591  0.57775  1.0000
  H   H1250     1.0  0.33013  0.97416  0.58926  1.0000
  H   H1251     1.0  0.34391  0.93823  0.58193  1.0000
  H   H1252     1.0  0.33156  0.95261  0.62378  1.0000
  H   H1253     1.0  0.34795  0.92639  0.62080  1.0000
  H   H1254     1.0  0.33348  0.07878  0.60583  1.0000
  H   H1255     1.0  0.32648  0.02761  0.61359  1.0000
  H   H1256     1.0  0.34030  0.98976  0.55349  1.0000
  H   H1257     1.0  0.35596  0.01192  0.54770  1.0000
  H   H1258     1.0  0.36931  0.95726  0.61476  1.0000
  H   H1259     1.0  0.36581  0.91507  0.60031  1.0000
  H   H1260     1.0  0.38942  0.91156  0.60339  1.0000
  H   H1261     1.0  0.38615  0.92757  0.57800  1.0000
  H   H1262     1.0  0.38972  0.96864  0.59288  1.0000
  H   H1263     1.0  0.33195  0.87159  0.62762  1.0000
  H   H1264     1.0  0.32390  0.89496  0.60595  1.0000
  H   H1265     1.0  0.34057  0.86875  0.60342  1.0000
  H   H1266     1.0  0.34173  0.07650  0.63904  1.0000
  H   H1267     1.0  0.32417  0.07623  0.64032  1.0000
  H   H1268     1.0  0.33428  0.02553  0.64714  1.0000
  H   H1269     1.0  0.32905  0.06517  0.54311  1.0000
  H   H1270     1.0  0.34488  0.08643  0.53779  1.0000
  H   H1271     1.0  0.34056  0.04511  0.52377  1.0000
  C   C736      1.0  0.33668  0.43872  0.68298  1.0000
  C   C737      1.0  0.32721  0.44814  0.70108  1.0000
  H   H1272     1.0  0.25618  0.92312  0.50663  1.0000
  H   H1273     1.0  0.32906  0.49630  0.66526  1.0000
  H   H1274     1.0  0.36184  0.42474  0.66560  1.0000
  H   H1275     1.0  0.33855  0.40232  0.68318  1.0000
  H   H1276     1.0  0.34589  0.45263  0.68479  1.0000
  H   H1277     1.0  0.31751  0.43644  0.70008  1.0000
  H   H1278     1.0  0.33134  0.43051  0.71467  1.0000
  H   H1279     1.0  0.28559  0.83374  0.49785  1.0000
  H   H1280     1.0  0.37832  0.48979  0.63844  1.0000
  H   H1281     1.0  0.38413  0.44789  0.65748  1.0000
  C   C738      1.0  0.45023  0.79449  0.61631  1.0000
  C   C739      1.0  0.43991  0.79772  0.63455  1.0000
  C   C740      1.0  0.43072  0.84072  0.63271  1.0000
  H   H1282     1.0  0.44524  0.78252  0.60460  1.0000
  H   H1283     1.0  0.45236  0.82839  0.60999  1.0000
  H   H1284     1.0  0.43379  0.76967  0.63598  1.0000
  H   H1285     1.0  0.44461  0.79559  0.64854  1.0000
  C   C741      1.0  0.47223  0.15678  0.67249  1.0000
  H   H1286     1.0  0.43630  0.86968  0.63269  1.0000
  H   H1287     1.0  0.42575  0.84441  0.61888  1.0000
  H   H1288     1.0  0.42308  0.84042  0.64544  1.0000
  H   H1289     1.0  0.47291  0.93411  0.51691  1.0000
  H   H1290     1.0  0.44439  0.62871  0.74084  1.0000
  H   H1291     1.0  0.26248  0.37318  0.61656  1.0000
  C   C742      1.0  0.28018  0.80837  0.50749  1.0000
  H   H1292     1.0  0.25025  0.91498  0.55188  1.0000
  H   H1293     1.0  0.27475  0.88142  0.52048  1.0000
  C   C743      1.0  0.28790  0.79262  0.52589  1.0000
  H   H1294     1.0  0.28675  0.81785  0.53629  1.0000
  H   H1295     1.0  0.32894  0.54475  0.59639  1.0000
  H   H1296     1.0  0.41057  0.66589  0.71581  1.0000
  H   H1297     1.0  0.24647  0.84869  0.59226  1.0000
  H   H1298     1.0  0.48864  0.19246  0.66170  1.0000
  H   H1299     1.0  0.46512  0.74718  0.59036  1.0000
  H   H1300     1.0  0.29608  0.25913  0.61587  1.0000
  H   H1301     1.0  0.28460  0.22358  0.59879  1.0000
  H   H1302     1.0  0.33957  0.39558  0.61174  1.0000
  H   H1303     1.0  0.26334  0.02271  0.51351  1.0000
  C   C744      1.0  0.45871  0.71942  0.62841  1.0000
  C   C745      1.0  0.48046  0.84525  0.64617  1.0000
  H   H1304     1.0  0.24656  0.54261  0.66110  1.0000
  H   H1305     1.0  0.30990  0.13433  0.50709  1.0000
  C   C746      1.0  0.47047  0.78130  0.63489  1.0000
  H   H1306     1.0  0.26553  0.54203  0.68243  1.0000
  H   H1307     1.0  0.47231  0.26693  0.70381  1.0000
  H   H1308     1.0  0.25908  0.18009  0.61140  1.0000
  C   C747      1.0  0.26672  0.09159  0.51395  1.0000
  H   H1309     1.0  0.24869  0.62468  0.50101  1.0000
  H   H1310     1.0  0.31734  0.58113  0.60995  1.0000
  H   H1311     1.0  0.32260  0.45794  0.62700  1.0000
  H   H1312     1.0  0.24564  0.58810  0.71015  1.0000
  H   H1313     1.0  0.42124  0.57342  0.70454  1.0000
  H   H1314     1.0  0.26713  0.24469  0.67158  1.0000
  H   H1315     1.0  0.48476  0.31129  0.71997  1.0000
  H   H1316     1.0  0.30781  0.77131  0.53337  1.0000
  H   H1317     1.0  0.45753  0.62820  0.63638  1.0000
  H   H1318     1.0  0.26278  0.77888  0.53749  1.0000
  H   H1319     1.0  0.26606  0.19186  0.58610  1.0000
  H   H1320     1.0  0.47972  0.38568  0.70370  1.0000
  H   H1321     1.0  0.25549  0.33995  0.57858  1.0000
  H   H1322     1.0  0.32108  0.44848  0.66338  1.0000
  C   C748      1.0  0.48123  0.93944  0.58394  1.0000
  H   H1323     1.0  0.25448  0.25410  0.64183  1.0000
  C   C749      1.0  0.37545  0.47057  0.65284  1.0000
  H   H1324     1.0  0.46609  0.98470  0.50337  1.0000
  H   H1325     1.0  0.34655  0.32074  0.62950  1.0000
  C   C750      1.0  0.33092  0.46040  0.66361  1.0000
  H   H1326     1.0  0.42471  0.73628  0.49653  1.0000
  H   H1327     1.0  0.28776  0.16153  0.56624  1.0000
  C   C751      1.0  0.25425  0.90264  0.52109  1.0000
  H   H1328     1.0  0.28441  0.76158  0.53387  1.0000
  H   H1329     1.0  0.28787  0.10516  0.54041  1.0000
  H   H1330     1.0  0.35054  0.50361  0.65147  1.0000
  C   C752      1.0  0.48444  0.79304  0.57046  1.0000
  C   C753      1.0  0.46971  0.83253  0.63487  1.0000
  C   C754      1.0  0.36413  0.44358  0.65101  1.0000
  H   H1331     1.0  0.26609  0.44321  0.70391  1.0000
  H   H1332     1.0  0.48590  0.25447  0.58115  1.0000
  H   H1333     1.0  0.26531  0.08847  0.53039  1.0000
  H   H1334     1.0  0.37262  0.49355  0.66424  1.0000
  H   H1335     1.0  0.29585  0.19795  0.52311  1.0000
  H   H1336     1.0  0.42017  0.53698  0.73778  1.0000
  H   H1337     1.0  0.43013  0.22103  0.54415  1.0000
  H   H1338     1.0  0.40320  0.61627  0.72663  1.0000
  C   C755      1.0  0.40925  0.63137  0.71374  1.0000
  C   C756      1.0  0.38020  0.80670  0.50436  1.0000
  C   C757      1.0  0.35200  0.47381  0.64339  1.0000
  C   C758      1.0  0.32656  0.52520  0.62832  1.0000
  H   H1339     1.0  0.25328  0.41879  0.65098  1.0000
  H   H1340     1.0  0.42816  0.62425  0.69786  1.0000
  N   N41       1.0  0.33922  0.45315  0.64451  1.0000
  H   H1341     1.0  0.34733  0.38583  0.65411  1.0000
  H   H1342     1.0  0.36781  0.41901  0.64061  1.0000
  H   H1343     1.0  0.31841  0.52920  0.64018  1.0000
  H   H1344     1.0  0.48808  0.82420  0.56284  1.0000
  H   H1345     1.0  0.32418  0.04072  0.49664  1.0000
  C   C759      1.0  0.34125  0.40414  0.64263  1.0000
  C   C760      1.0  0.42284  0.60450  0.71032  1.0000
  H   H1346     1.0  0.47978  0.28353  0.68012  1.0000
  H   H1347     1.0  0.33169  0.38958  0.64563  1.0000
  H   H1348     1.0  0.35516  0.48666  0.62783  1.0000
  C   C761      1.0  0.33142  0.47538  0.62770  1.0000
  C   C762      1.0  0.32112  0.54591  0.60887  1.0000
  H   H1349     1.0  0.44701  0.58458  0.68894  1.0000
  H   H1350     1.0  0.26533  0.85201  0.53993  1.0000
  H   H1351     1.0  0.41931  0.88195  0.49637  1.0000
  H   H1352     1.0  0.47064  0.85071  0.61982  1.0000
  H   H1353     1.0  0.44668  0.75236  0.50265  1.0000
  C   C763      1.0  0.34740  0.39191  0.62206  1.0000
  H   H1354     1.0  0.33733  0.47287  0.61323  1.0000
  H   H1355     1.0  0.35495  0.41399  0.61556  1.0000
  H   H1356     1.0  0.25150  0.41854  0.71514  1.0000
  C   C764      1.0  0.28159  0.08487  0.50701  1.0000
  N   N42       1.0  0.43100  0.59349  0.72777  1.0000
  C   C765      1.0  0.45176  0.58651  0.70260  1.0000
  N   N43       1.0  0.26598  0.82646  0.51161  1.0000
  C   C766      1.0  0.26557  0.86458  0.52387  1.0000
  H   H1357     1.0  0.45290  0.62170  0.70360  1.0000
  C   C767      1.0  0.35380  0.34413  0.62319  1.0000
  H   H1358     1.0  0.46012  0.84535  0.64211  1.0000
  C   C768      1.0  0.25036  0.40714  0.58456  1.0000
  H   H1359     1.0  0.48401  0.81237  0.59932  1.0000
  C   C769      1.0  0.44343  0.56582  0.72099  1.0000
  H   H1360     1.0  0.25405  0.47830  0.67548  1.0000
  C   C770      1.0  0.46549  0.56140  0.70033  1.0000
  C   C771      1.0  0.25952  0.36398  0.58654  1.0000
  H   H1361     1.0  0.48102  0.76815  0.63262  1.0000
  H   H1362     1.0  0.47130  0.24777  0.55477  1.0000
  H   H1363     1.0  0.36214  0.33948  0.63258  1.0000
  H   H1364     1.0  0.29583  0.21081  0.55842  1.0000
  H   H1365     1.0  0.30671  0.81351  0.51248  1.0000
  H   H1366     1.0  0.26045  0.75943  0.51510  1.0000
  N   N44       1.0  0.49175  0.23294  0.69783  1.0000
  H   H1367     1.0  0.27758  0.18544  0.50080  1.0000
  C   C772      1.0  0.27499  0.22252  0.60780  1.0000
  C   C773      1.0  0.25929  0.05639  0.50737  1.0000
  H   H1368     1.0  0.47743  0.69318  0.64103  1.0000
  H   H1369     1.0  0.47805  0.78097  0.56064  1.0000
  H   H1370     1.0  0.47498  0.67149  0.61853  1.0000
  H   H1371     1.0  0.47376  0.22635  0.66931  1.0000
  C   C774      1.0  0.25683  0.43099  0.70090  1.0000
  H   H1372     1.0  0.45258  0.70768  0.61805  1.0000
  H   H1373     1.0  0.26211  0.30222  0.67502  1.0000
  H   H1374     1.0  0.46482  0.52565  0.69967  1.0000
  H   H1375     1.0  0.25448  0.43342  0.59103  1.0000
  S   S174      1.0  0.28802  0.31043  0.72939  1.0000
  H   H1376     1.0  0.48574  0.22424  0.72934  1.0000
  S   S175      1.0  0.45444  0.44730  0.73299  1.0000
  H   H1377     1.0  0.48748  0.25257  0.62092  1.0000
  H   H1378     1.0  0.30644  0.08026  0.51764  1.0000
  H   H1379     1.0  0.26284  0.94586  0.53794  1.0000
  H   H1380     1.0  0.47093  0.57503  0.68642  1.0000
  H   H1381     1.0  0.24978  0.31152  0.64539  1.0000
  C   C775      1.0  0.47094  0.75996  0.60087  1.0000
  C   C776      1.0  0.30259  0.78298  0.51993  1.0000
  C   C777      1.0  0.42366  0.56508  0.74396  1.0000
  H   H1382     1.0  0.46725  0.76782  0.65033  1.0000
  H   H1383     1.0  0.27840  0.26914  0.63923  1.0000
  H   H1384     1.0  0.30504  0.15389  0.53770  1.0000
  C   C778      1.0  0.25875  0.78952  0.52293  1.0000
  H   H1385     1.0  0.26222  0.12483  0.50811  1.0000
  H   H1386     1.0  0.48212  0.19988  0.54782  1.0000
  C   C779      1.0  0.47846  0.21983  0.56011  1.0000
  H   H1387     1.0  0.27609  0.14901  0.53205  1.0000
  C   C780      1.0  0.28655  0.13530  0.52940  1.0000
  C   C781      1.0  0.25940  0.27288  0.66896  1.0000
  C   C782      1.0  0.47745  0.35744  0.69642  1.0000
  C   C783      1.0  0.28911  0.18873  0.55400  1.0000
  C   C784      1.0  0.27073  0.29637  0.63503  1.0000
  H   H1388     1.0  0.29681  0.30820  0.62721  1.0000
  C   C785      1.0  0.25771  0.28376  0.64687  1.0000
  H   H1389     1.0  0.25606  0.26275  0.60883  1.0000
  H   H1390     1.0  0.46338  0.15852  0.68326  1.0000
  H   H1391     1.0  0.27358  0.32567  0.64094  1.0000
  H   H1392     1.0  0.25946  0.40291  0.69194  1.0000
  C   C786      1.0  0.30384  0.10731  0.50567  1.0000
  C   C787      1.0  0.46476  0.64104  0.64456  1.0000
  H   H1393     1.0  0.25040  0.33746  0.61441  1.0000
  C   C788      1.0  0.26782  0.58615  0.65564  1.0000
  H   H1394     1.0  0.28578  0.05452  0.51591  1.0000
  H   H1395     1.0  0.32578  0.48422  0.70241  1.0000
  C   C789      1.0  0.48989  0.23712  0.56827  1.0000
  H   H1396     1.0  0.27672  0.21366  0.62360  1.0000
  H   H1397     1.0  0.43612  0.66076  0.72158  1.0000
  H   H1398     1.0  0.25002  0.26341  0.67705  1.0000
  C   C790      1.0  0.26046  0.34543  0.60866  1.0000
  H   H1399     1.0  0.47329  0.19846  0.57203  1.0000
  C   C791      1.0  0.47003  0.68213  0.63261  1.0000
  C   C792      1.0  0.48531  0.19354  0.69379  1.0000
  C   C793      1.0  0.48199  0.27389  0.69574  1.0000
  H   H1400     1.0  0.27498  0.15351  0.60353  1.0000
  H   H1401     1.0  0.27810  0.59018  0.65802  1.0000
  H   H1402     1.0  0.47691  0.18759  0.70516  1.0000
  C   C794      1.0  0.48326  0.05360  0.54840  1.0000
  C   C795      1.0  0.24585  0.56539  0.67262  1.0000
  H   H1403     1.0  0.49034  0.83529  0.63885  1.0000
  H   H1404     1.0  0.48957  0.93284  0.57332  1.0000
  H   H1405     1.0  0.47824  0.05525  0.53468  1.0000
  H   H1406     1.0  0.48260  0.32670  0.57795  1.0000
  C   C796      1.0  0.48844  0.38475  0.58727  1.0000
  H   H1407     1.0  0.30437  0.75680  0.50984  1.0000
  H   H1408     1.0  0.24874  0.06150  0.51283  1.0000
  H   H1409     1.0  0.24928  0.41871  0.56868  1.0000
  H   H1410     1.0  0.48919  0.08206  0.54733  1.0000
  H   H1411     1.0  0.48455  0.40758  0.57473  1.0000
  C   C797      1.0  0.48601  0.31534  0.70355  1.0000
  S   S176      1.0  0.49007  0.08464  0.63640  1.0000
  H   H1412     1.0  0.47941  0.36573  0.68017  1.0000
  H   H1413     1.0  0.36985  0.81805  0.50142  1.0000
  H   H1414     1.0  0.48076  0.38439  0.59999  1.0000
  H   H1415     1.0  0.49005  0.02250  0.54978  1.0000
  H   H1416     1.0  0.38266  0.82401  0.51656  1.0000
  H   H1417     1.0  0.47942  0.88181  0.64624  1.0000
  H   H1418     1.0  0.47968  0.82927  0.66172  1.0000
  H   H1419     1.0  0.46158  0.93181  0.49882  1.0000
  H   H1420     1.0  0.38103  0.77045  0.50915  1.0000
  H   H1421     1.0  0.28098  0.77910  0.49919  1.0000
  H   H1422     1.0  0.40593  0.81321  0.50365  1.0000
  H   H1423     1.0  0.49229  0.16287  0.69508  1.0000
  H   H1424     1.0  0.49018  0.29033  0.54381  1.0000
  C   C798      1.0  0.49186  0.33786  0.58152  1.0000
  H   H1425     1.0  0.38293  0.44062  0.98941  1.0000
  Fe  Fe90      1.0  0.26930  0.35898  0.84700  1.0000
  H   H1426     1.0  0.47455  0.30161  0.84435  1.0000
  S   S177      1.0  0.28394  0.32777  0.82312  1.0000
  Fe  Fe91      1.0  0.26777  0.38153  0.89115  1.0000
  C   C799      1.0  0.46754  0.27888  0.84135  1.0000
  S   S178      1.0  0.28095  0.37592  0.91726  1.0000
  H   H1427     1.0  0.47948  0.38669  0.98811  1.0000
  H   H1428     1.0  0.29378  0.41713  0.81452  1.0000
  C   C800      1.0  0.37428  0.46190  0.96218  1.0000
  H   H1429     1.0  0.47455  0.45614  0.75791  1.0000
  S   S179      1.0  0.26536  0.31986  0.87717  1.0000
  S   S180      1.0  0.27329  0.41828  0.86112  1.0000
  H   H1430     1.0  0.26119  0.27465  0.82522  1.0000
  S   S181      1.0  0.47517  0.46709  0.86931  1.0000
  C   C801      1.0  0.46146  0.32264  0.75545  1.0000
  C   C802      1.0  0.38236  0.42709  0.97535  1.0000
  S   S182      1.0  0.46948  0.36336  0.87570  1.0000
  Fe  Fe92      1.0  0.47213  0.41581  0.84951  1.0000
  S   S183      1.0  0.45646  0.41845  0.82745  1.0000
  Fe  Fe93      1.0  0.47414  0.41232  0.89499  1.0000
  S   S184      1.0  0.46381  0.43067  0.92478  1.0000
  H   H1431     1.0  0.48752  0.35433  0.77570  1.0000
  H   H1432     1.0  0.43862  0.51648  0.75695  1.0000
  C   C803      1.0  0.45897  0.39808  0.94730  1.0000
  C   C804      1.0  0.45891  0.35212  0.94867  1.0000
  C   C805      1.0  0.45419  0.32815  0.96654  1.0000
  C   C806      1.0  0.44975  0.34950  0.98340  1.0000
  C   C807      1.0  0.45022  0.39531  0.98223  1.0000
  C   C808      1.0  0.45465  0.41946  0.96422  1.0000
  H   H1433     1.0  0.46219  0.33517  0.93582  1.0000
  H   H1434     1.0  0.45387  0.29275  0.96724  1.0000
  S   S185      1.0  0.24801  0.38345  0.84435  1.0000
  H   H1435     1.0  0.45467  0.45499  0.96335  1.0000
  C   C809      1.0  0.45616  0.42694  0.80114  1.0000
  C   C810      1.0  0.46690  0.44002  0.78833  1.0000
  C   C811      1.0  0.46618  0.44581  0.76760  1.0000
  C   C812      1.0  0.43166  0.54448  0.76153  1.0000
  C   C813      1.0  0.44398  0.42556  0.77212  1.0000
  C   C814      1.0  0.44469  0.41991  0.79285  1.0000
  H   H1436     1.0  0.47572  0.44611  0.79440  1.0000
  C   C815      1.0  0.39617  0.41385  0.96482  1.0000
  H   H1437     1.0  0.43509  0.42001  0.76608  1.0000
  H   H1438     1.0  0.43629  0.40990  0.80256  1.0000
  H   H1439     1.0  0.37914  0.49295  0.95896  1.0000
  H   H1440     1.0  0.26473  0.17337  0.83709  1.0000
  S   S186      1.0  0.24637  0.51307  0.84901  1.0000
  N   N45       1.0  0.31276  0.37122  0.86715  1.0000
  C   C816      1.0  0.49215  0.41911  0.96469  1.0000
  H   H1441     1.0  0.28241  0.22324  0.76230  1.0000
  C   C817      1.0  0.33614  0.39410  0.85577  1.0000
  C   C818      1.0  0.42278  0.52618  0.77929  1.0000
  H   H1442     1.0  0.26811  0.35297  0.75574  1.0000
  H   H1443     1.0  0.42041  0.33092  0.92473  1.0000
  C   C819      1.0  0.28278  0.43890  0.97560  1.0000
  C   C820      1.0  0.27191  0.45031  0.96426  1.0000
  C   C821      1.0  0.27117  0.43185  0.94645  1.0000
  C   C822      1.0  0.28131  0.40126  0.93960  1.0000
  C   C823      1.0  0.29222  0.39004  0.95088  1.0000
  C   C824      1.0  0.29303  0.40893  0.96855  1.0000
  H   H1444     1.0  0.26397  0.47384  0.96927  1.0000
  H   H1445     1.0  0.26273  0.44131  0.93806  1.0000
  H   H1446     1.0  0.30019  0.36662  0.94589  1.0000
  H   H1447     1.0  0.47147  0.24432  0.84634  1.0000
  C   C825      1.0  0.42809  0.34664  0.93076  1.0000
  C   C826      1.0  0.27617  0.33977  0.76448  1.0000
  C   C827      1.0  0.27501  0.34441  0.78498  1.0000
  C   C828      1.0  0.28518  0.32655  0.79673  1.0000
  C   C829      1.0  0.29663  0.30517  0.78740  1.0000
  C   C830      1.0  0.29789  0.30129  0.76683  1.0000
  H   H1448     1.0  0.28240  0.18900  0.85587  1.0000
  H   H1449     1.0  0.26617  0.36124  0.79172  1.0000
  H   H1450     1.0  0.30459  0.29107  0.79618  1.0000
  C   C831      1.0  0.49182  0.71774  0.90022  1.0000
  H   H1451     1.0  0.30671  0.28428  0.76010  1.0000
  H   H1452     1.0  0.31098  0.40618  0.80606  1.0000
  C   C832      1.0  0.48408  0.51622  0.93390  1.0000
  C   C833      1.0  0.35065  0.37944  0.85840  1.0000
  H   H1453     1.0  0.45885  0.25913  0.81688  1.0000
  H   H1454     1.0  0.31676  0.44101  0.83508  1.0000
  H   H1455     1.0  0.29745  0.37091  0.84772  1.0000
  H   H1456     1.0  0.45281  0.31166  0.78538  1.0000
  H   H1457     1.0  0.45052  0.32359  0.85052  1.0000
  H   H1458     1.0  0.48163  0.28212  0.77285  1.0000
  H   H1459     1.0  0.45632  0.28242  0.86989  1.0000
  H   H1460     1.0  0.33065  0.34594  0.88069  1.0000
  C   C834      1.0  0.48566  0.23852  0.81077  1.0000
  H   H1461     1.0  0.30129  0.22314  0.87502  1.0000
  C   C835      1.0  0.30889  0.41133  0.87809  1.0000
  H   H1462     1.0  0.33360  0.42596  0.86203  1.0000
  C   C836      1.0  0.47596  0.53864  0.91719  1.0000
  C   C837      1.0  0.41472  0.35566  0.96371  1.0000
  H   H1463     1.0  0.29004  0.26452  0.88612  1.0000
  H   H1464     1.0  0.45943  0.31733  0.81611  1.0000
  H   H1465     1.0  0.35384  0.34796  0.85196  1.0000
  C   C838      1.0  0.30371  0.42803  0.81452  1.0000
  H   H1466     1.0  0.30356  0.46241  0.80691  1.0000
  H   H1467     1.0  0.31342  0.35604  0.83687  1.0000
  H   H1468     1.0  0.24883  0.19565  0.92448  1.0000
  H   H1469     1.0  0.30541  0.24510  0.89655  1.0000
  C   C839      1.0  0.27410  0.21489  0.85295  1.0000
  H   H1470     1.0  0.43749  0.56872  0.76635  1.0000
  C   C840      1.0  0.30059  0.25348  0.88255  1.0000
  H   H1471     1.0  0.31327  0.48003  0.89939  1.0000
  H   H1472     1.0  0.27207  0.25145  0.79330  1.0000
  C   C841      1.0  0.46533  0.28455  0.81904  1.0000
  H   H1473     1.0  0.42546  0.63611  0.76507  1.0000
  H   H1474     1.0  0.31248  0.44162  0.86961  1.0000
  H   H1475     1.0  0.37303  0.44933  0.94804  1.0000
  C   C842      1.0  0.30776  0.37910  0.84679  1.0000
  C   C843      1.0  0.25649  0.24334  0.82949  1.0000
  H   H1476     1.0  0.48614  0.69831  0.89216  1.0000
  H   H1477     1.0  0.35674  0.40526  0.85068  1.0000
  H   H1478     1.0  0.46691  0.55731  0.92348  1.0000
  H   H1479     1.0  0.28096  0.17870  0.78211  1.0000
  H   H1480     1.0  0.25233  0.20948  0.94799  1.0000
  C   C844      1.0  0.47324  0.28093  0.78437  1.0000
  H   H1481     1.0  0.26130  0.26131  0.77377  1.0000
  C   C845      1.0  0.26793  0.20701  0.83451  1.0000
  H   H1482     1.0  0.41474  0.66052  0.74689  1.0000
  H   H1483     1.0  0.43396  0.36414  0.91821  1.0000
  C   C846      1.0  0.30730  0.42687  0.83573  1.0000
  N   N46       1.0  0.47758  0.28178  0.80475  1.0000
  C   C847      1.0  0.30915  0.45108  0.90836  1.0000
  H   H1484     1.0  0.47737  0.49893  0.94534  1.0000
  C   C848      1.0  0.42179  0.37971  0.94481  1.0000
  H   H1485     1.0  0.31245  0.44794  0.92348  1.0000
  H   H1486     1.0  0.32466  0.40404  0.89820  1.0000
  H   H1487     1.0  0.48926  0.23853  0.82558  1.0000
  C   C849      1.0  0.28760  0.31811  0.75515  1.0000
  H   H1488     1.0  0.29964  0.44912  0.84333  1.0000
  H   H1489     1.0  0.42012  0.43357  0.97307  1.0000
  C   C850      1.0  0.30730  0.28961  0.86899  1.0000
  Fe  Fe94      1.0  0.49132  0.34583  0.87037  1.0000
  H   H1490     1.0  0.47822  0.35023  0.80983  1.0000
  C   C851      1.0  0.48507  0.32084  0.80609  1.0000
  H   H1491     1.0  0.40033  0.44478  0.95780  1.0000
  H   H1492     1.0  0.27796  0.24772  0.85074  1.0000
  H   H1493     1.0  0.31008  0.32390  0.89350  1.0000
  H   H1494     1.0  0.37678  0.39761  0.97879  1.0000
  H   H1495     1.0  0.47302  0.51385  0.90848  1.0000
  H   H1496     1.0  0.42890  0.51078  0.79134  1.0000
  H   H1497     1.0  0.29543  0.34333  0.88203  1.0000
  C   C852      1.0  0.27531  0.20401  0.77224  1.0000
  H   H1498     1.0  0.32999  0.32966  0.85704  1.0000
  H   H1499     1.0  0.29797  0.41841  0.87971  1.0000
  N   N47       1.0  0.40610  0.38503  0.97711  1.0000
  H   H1500     1.0  0.36438  0.46965  0.96992  1.0000
  H   H1501     1.0  0.29823  0.45704  0.90966  1.0000
  C   C853      1.0  0.30613  0.33312  0.87884  1.0000
  H   H1502     1.0  0.35236  0.37475  0.87434  1.0000
  H   H1503     1.0  0.30257  0.29496  0.85490  1.0000
  H   H1504     1.0  0.31771  0.27642  0.86586  1.0000
  C   C854      1.0  0.31376  0.40856  0.89899  1.0000
  H   H1505     1.0  0.30990  0.38088  0.90914  1.0000
  H   H1506     1.0  0.48777  0.54285  0.94059  1.0000
  H   H1507     1.0  0.27294  0.34966  0.98686  1.0000
  H   H1508     1.0  0.41458  0.58366  0.75010  1.0000
  H   H1509     1.0  0.27583  0.20734  0.82215  1.0000
  Fe  Fe95      1.0  0.25165  0.44035  0.86008  1.0000
  C   C855      1.0  0.39914  0.35536  0.99327  1.0000
  H   H1510     1.0  0.42186  0.71665  0.76496  1.0000
  C   C856      1.0  0.46257  0.31848  0.77774  1.0000
  H   H1511     1.0  0.44728  0.26641  0.85128  1.0000
  H   H1512     1.0  0.47936  0.21074  0.81234  1.0000
  H   H1513     1.0  0.42979  0.39727  0.94885  1.0000
  H   H1514     1.0  0.42276  0.39147  0.99294  1.0000
  H   H1515     1.0  0.47815  0.44602  0.98732  1.0000
  C   C857      1.0  0.32739  0.35817  0.86575  1.0000
  H   H1516     1.0  0.33517  0.39943  0.83962  1.0000
  H   H1517     1.0  0.46922  0.24897  0.78358  1.0000
  H   H1518     1.0  0.46486  0.35063  0.78148  1.0000
  H   H1519     1.0  0.49136  0.31331  0.81866  1.0000
  H   H1520     1.0  0.26056  0.26225  0.92050  1.0000
  H   H1521     1.0  0.43477  0.32042  0.93852  1.0000
  C   C858      1.0  0.45459  0.28844  0.85396  1.0000
  H   H1522     1.0  0.26677  0.21329  0.86608  1.0000
  H   H1523     1.0  0.30158  0.40017  0.97674  1.0000
  H   H1524     1.0  0.39262  0.33595  0.98655  1.0000
  H   H1525     1.0  0.42279  0.33611  0.97168  1.0000
  C   C859      1.0  0.41488  0.41295  0.98530  1.0000
  H   H1526     1.0  0.41503  0.40428  0.93641  1.0000
  H   H1527     1.0  0.40884  0.33107  0.95903  1.0000
  H   H1528     1.0  0.41720  0.50037  0.77509  1.0000
  H   H1529     1.0  0.39404  0.39669  0.95227  1.0000
  C   C860      1.0  0.42868  0.70252  0.75312  1.0000
  H   H1530     1.0  0.48452  0.42296  0.95416  1.0000
  H   H1531     1.0  0.40074  0.46949  0.99228  1.0000
  H   H1532     1.0  0.48484  0.73705  0.91020  1.0000
  C   C861      1.0  0.48516  0.41599  0.98557  1.0000
  H   H1533     1.0  0.49079  0.45298  0.92344  1.0000
  C   C862      1.0  0.24992  0.26482  0.92566  1.0000
  H   H1534     1.0  0.48168  0.56229  0.90713  1.0000
  H   H1535     1.0  0.29361  0.30282  0.98384  1.0000
  C   C863      1.0  0.45474  0.43861  0.75932  1.0000
  H   H1536     1.0  0.41580  0.55313  0.78497  1.0000
  H   H1537     1.0  0.26967  0.18732  0.76294  1.0000
  H   H1538     1.0  0.42205  0.49509  0.99331  1.0000
  H   H1539     1.0  0.25199  0.34340  0.98367  1.0000
  H   H1540     1.0  0.25451  0.65155  0.86478  1.0000
  C   C864      1.0  0.26608  0.23528  0.78439  1.0000
  H   H1541     1.0  0.26040  0.17829  0.80412  1.0000
  H   H1542     1.0  0.24558  0.42291  0.97132  1.0000
  H   H1543     1.0  0.24797  0.28987  0.93628  1.0000
  S   S187      1.0  0.24634  0.40712  0.89079  1.0000
  H   H1544     1.0  0.45276  0.34608  0.75159  1.0000
  H   H1545     1.0  0.46025  0.29011  0.75072  1.0000
  H   H1546     1.0  0.49261  0.77129  0.87671  1.0000
  H   H1547     1.0  0.25028  0.24880  0.84348  1.0000
  C   C865      1.0  0.49379  0.33752  0.78730  1.0000
  C   C866      1.0  0.24618  0.21968  0.93548  1.0000
  H   H1548     1.0  0.47031  0.33602  0.74725  1.0000
  S   S188      1.0  0.49381  0.39564  0.84354  1.0000
  H   H1549     1.0  0.43887  0.70017  0.75746  1.0000
  C   C867      1.0  0.25549  0.21041  0.79778  1.0000
  C   C868      1.0  0.42506  0.65672  0.75051  1.0000
  H   H1550     1.0  0.44690  0.41224  0.99505  1.0000
  H   H1551     1.0  0.24857  0.20148  0.78781  1.0000
  H   H1552     1.0  0.24593  0.14222  0.82246  1.0000
  N   N48       1.0  0.24800  0.23559  0.81374  1.0000
  H   H1553     1.0  0.25063  0.30069  0.79811  1.0000
  Fe  Fe96      1.0  0.51061  0.64681  0.09579  1.0000
  H   H1554     1.0  0.56313  0.68443  0.22327  1.0000
  S   S189      1.0  0.51220  0.67429  0.06270  1.0000
  Fe  Fe97      1.0  0.51915  0.62268  0.13840  1.0000
  S   S190      1.0  0.55055  0.53449  0.24309  1.0000
  S   S191      1.0  0.53427  0.63350  0.15938  1.0000
  H   H1555     1.0  0.51736  0.50509  0.02058  1.0000
  H   H1556     1.0  0.50787  0.54750  0.00668  1.0000
  Fe  Fe98      1.0  0.50190  0.56384  0.12119  1.0000
  C   C869      1.0  0.58340  0.67144  0.03779  1.0000
  S   S192      1.0  0.52191  0.58654  0.11101  1.0000
  S   S193      1.0  0.50918  0.68521  0.12229  1.0000
  Fe  Fe99      1.0  0.73535  0.71583  0.09856  1.0000
  S   S194      1.0  0.71415  0.70152  0.10392  1.0000
  C   C870      1.0  0.73833  0.66065  0.00803  1.0000
  H   H1557     1.0  0.74284  0.59397  0.02310  1.0000
  S   S195      1.0  0.72465  0.59683  0.11056  1.0000
  H   H1558     1.0  0.57527  0.72131  0.21359  1.0000
  Fe  Fe100     1.0  0.71994  0.64701  0.08401  1.0000
  S   S196      1.0  0.70714  0.64484  0.05794  1.0000
  Fe  Fe101     1.0  0.72065  0.65322  0.12982  1.0000
  S   S197      1.0  0.71101  0.63963  0.16199  1.0000
  H   H1559     1.0  0.68670  0.62949  0.99706  1.0000
  H   H1560     1.0  0.60500  0.49920  0.24072  1.0000
  H   H1561     1.0  0.74222  0.59065  0.16279  1.0000
  H   H1562     1.0  0.57199  0.59643  0.22866  1.0000
  N   N49       1.0  0.50376  0.54709  0.03834  1.0000
  H   H1563     1.0  0.53773  0.52503  0.99916  1.0000
  H   H1564     1.0  0.58696  0.68715  0.04970  1.0000
  H   H1565     1.0  0.50341  0.61841  0.03547  1.0000
  C   C871      1.0  0.69598  0.63563  0.02353  1.0000
  C   C872      1.0  0.70589  0.61864  0.03613  1.0000
  C   C873      1.0  0.71433  0.58166  0.03101  1.0000
  C   C874      1.0  0.71285  0.56218  0.01375  1.0000
  N   N50       1.0  0.59036  0.56914  0.21446  1.0000
  H   H1566     1.0  0.68930  0.66399  0.02725  1.0000
  H   H1567     1.0  0.72191  0.56765  0.04051  1.0000
  H   H1568     1.0  0.58048  0.65599  0.00163  1.0000
  C   C875      1.0  0.70199  0.71694  0.21699  1.0000
  C   C876      1.0  0.70493  0.73951  0.19800  1.0000
  C   C877      1.0  0.70818  0.71648  0.18118  1.0000
  C   C878      1.0  0.70835  0.67031  0.18299  1.0000
  C   C879      1.0  0.70576  0.64756  0.20206  1.0000
  C   C880      1.0  0.70271  0.67056  0.21893  1.0000
  H   H1569     1.0  0.70454  0.77529  0.19620  1.0000
  H   H1570     1.0  0.71018  0.73467  0.16672  1.0000
  H   H1571     1.0  0.70590  0.61188  0.20377  1.0000
  S   S198      1.0  0.73929  0.78825  0.09146  1.0000
  H   H1572     1.0  0.60257  0.60055  0.23129  1.0000
  H   H1573     1.0  0.64467  0.79471  0.22851  1.0000
  C   C881      1.0  0.57195  0.68849  0.21262  1.0000
  C   C882      1.0  0.67457  0.70459  0.16976  1.0000
  H   H1574     1.0  0.62303  0.63646  0.20948  1.0000
  C   C883      1.0  0.51092  0.54318  0.05677  1.0000
  H   H1575     1.0  0.53361  0.52943  0.07681  1.0000
  C   C884      1.0  0.54452  0.56391  0.22096  1.0000
  C   C885      1.0  0.53948  0.54035  0.20759  1.0000
  C   C886      1.0  0.53565  0.56156  0.18914  1.0000
  C   C887      1.0  0.53708  0.60657  0.18360  1.0000
  C   C888      1.0  0.54195  0.63023  0.19710  1.0000
  C   C889      1.0  0.54537  0.60932  0.21580  1.0000
  H   H1576     1.0  0.53871  0.50526  0.21138  1.0000
  H   H1577     1.0  0.53204  0.54271  0.17891  1.0000
  H   H1578     1.0  0.54307  0.66504  0.19305  1.0000
  H   H1579     1.0  0.54887  0.62813  0.22610  1.0000
  C   C890      1.0  0.57101  0.47279  0.20379  1.0000
  C   C891      1.0  0.54620  0.65307  0.02632  1.0000
  C   C892      1.0  0.53708  0.65270  0.04330  1.0000
  C   C893      1.0  0.52425  0.67316  0.04190  1.0000
  C   C894      1.0  0.52065  0.69320  0.02322  1.0000
  H   H1580     1.0  0.63930  0.70185  0.23943  1.0000
  H   H1581     1.0  0.55613  0.63769  0.02768  1.0000
  H   H1582     1.0  0.54002  0.63715  0.05751  1.0000
  H   H1583     1.0  0.51077  0.70920  0.02192  1.0000
  H   H1584     1.0  0.60262  0.64003  0.02955  1.0000
  H   H1585     1.0  0.73678  0.53618  0.20380  1.0000
  C   C895      1.0  0.58295  0.65194  0.21767  1.0000
  C   C896      1.0  0.59795  0.56916  0.23225  1.0000
  H   H1586     1.0  0.58497  0.65355  0.23318  1.0000
  H   H1587     1.0  0.73820  0.75202  0.03806  1.0000
  C   C897      1.0  0.57906  0.60525  0.21565  1.0000
  H   H1588     1.0  0.52096  0.60524  0.01479  1.0000
  H   H1589     1.0  0.52061  0.50344  0.09241  1.0000
  C   C898      1.0  0.59954  0.57599  0.19581  1.0000
  C   C899      1.0  0.59339  0.59974  0.17688  1.0000
  H   H1590     1.0  0.71942  0.53347  0.01018  1.0000
  H   H1591     1.0  0.60748  0.59600  0.19811  1.0000
  C   C900      1.0  0.60316  0.59678  0.15854  1.0000
  C   C901      1.0  0.52474  0.56973  0.01679  1.0000
  C   C902      1.0  0.58490  0.52490  0.21623  1.0000
  H   H1592     1.0  0.67394  0.73927  0.20541  1.0000
  C   C903      1.0  0.67054  0.68482  0.19092  1.0000
  C   C904      1.0  0.74405  0.68388  0.17846  1.0000
  H   H1593     1.0  0.70068  0.65244  0.23339  1.0000
  H   H1594     1.0  0.67068  0.74147  0.24063  1.0000
  C   C905      1.0  0.57677  0.51727  0.19939  1.0000
  H   H1595     1.0  0.71821  0.54800  0.18299  1.0000
  H   H1596     1.0  0.59861  0.61482  0.14536  1.0000
  H   H1597     1.0  0.60476  0.54357  0.19226  1.0000
  H   H1598     1.0  0.74281  0.61827  0.21249  1.0000
  C   C906      1.0  0.66582  0.66432  0.23338  1.0000
  C   C907      1.0  0.60915  0.53106  0.23556  1.0000
  H   H1599     1.0  0.65834  0.74608  0.19572  1.0000
  H   H1600     1.0  0.60586  0.56165  0.15590  1.0000
  H   H1601     1.0  0.74095  0.68444  0.19444  1.0000
  H   H1602     1.0  0.62305  0.65300  0.23376  1.0000
  C   C908      1.0  0.51319  0.54040  0.02027  1.0000
  H   H1603     1.0  0.74245  0.69280  0.00713  1.0000
  H   H1604     1.0  0.65455  0.85738  0.23816  1.0000
  H   H1605     1.0  0.66057  0.80146  0.21535  1.0000
  H   H1606     1.0  0.49792  0.71149  0.19996  1.0000
  C   C909      1.0  0.52972  0.69300  0.00619  1.0000
  C   C910      1.0  0.65540  0.79083  0.22995  1.0000
  C   C911      1.0  0.69448  0.61612  0.00628  1.0000
  H   H1607     1.0  0.58440  0.58586  0.17408  1.0000
  H   H1608     1.0  0.57936  0.64024  0.04451  1.0000
  H   H1609     1.0  0.72816  0.66446  0.01527  1.0000
  H   H1610     1.0  0.49995  0.47830  0.04188  1.0000
  C   C912      1.0  0.49654  0.59300  0.03532  1.0000
  H   H1611     1.0  0.58319  0.51598  0.18536  1.0000
  H   H1612     1.0  0.57319  0.60807  0.20276  1.0000
  H   H1613     1.0  0.66336  0.66108  0.19023  1.0000
  H   H1614     1.0  0.57541  0.69446  0.03115  1.0000
  H   H1615     1.0  0.72564  0.49145  0.18424  1.0000
  H   H1616     1.0  0.59196  0.65933  0.20800  1.0000
  H   H1617     1.0  0.66584  0.72126  0.16249  1.0000
  H   H1618     1.0  0.58807  0.60532  0.01288  1.0000
  H   H1619     1.0  0.51453  0.47070  0.06396  1.0000
  H   H1620     1.0  0.72903  0.39407  0.12625  1.0000
  H   H1621     1.0  0.74303  0.93269  0.02175  1.0000
  H   H1622     1.0  0.57897  0.44495  0.20489  1.0000
  H   H1623     1.0  0.59295  0.49734  0.21649  1.0000
  H   H1624     1.0  0.67927  0.67782  0.16103  1.0000
  H   H1625     1.0  0.53430  0.46987  0.08155  1.0000
  H   H1626     1.0  0.59061  0.63542  0.17824  1.0000
  H   H1627     1.0  0.56925  0.68791  0.19735  1.0000
  C   C913      1.0  0.52763  0.50093  0.07902  1.0000
  H   H1628     1.0  0.73309  0.60881  0.18434  1.0000
  H   H1629     1.0  0.57873  0.51937  0.23057  1.0000
  H   H1630     1.0  0.61219  0.61203  0.16030  1.0000
  H   H1631     1.0  0.56502  0.46868  0.19168  1.0000
  C   C914      1.0  0.72721  0.52634  0.17868  1.0000
  H   H1632     1.0  0.50378  0.54478  0.07014  1.0000
  C   C915      1.0  0.59475  0.66195  0.02209  1.0000
  H   H1633     1.0  0.67637  0.66858  0.23404  1.0000
  H   H1634     1.0  0.50155  0.76558  0.18782  1.0000
  C   C916      1.0  0.64424  0.70468  0.22413  1.0000
  C   C917      1.0  0.64032  0.66724  0.21351  1.0000
  H   H1635     1.0  0.73706  0.42470  0.14158  1.0000
  H   H1636     1.0  0.51663  0.57207  0.05655  1.0000
  H   H1637     1.0  0.56453  0.47131  0.21784  1.0000
  H   H1638     1.0  0.61567  0.52750  0.22175  1.0000
  C   C918      1.0  0.62561  0.66266  0.21771  1.0000
  N   N51       1.0  0.65876  0.70735  0.22462  1.0000
  H   H1639     1.0  0.73286  0.44965  0.11742  1.0000
  H   H1640     1.0  0.66590  0.63763  0.22387  1.0000
  H   H1641     1.0  0.61970  0.69428  0.21290  1.0000
  C   C919      1.0  0.66519  0.72163  0.20419  1.0000
  H   H1642     1.0  0.52769  0.49476  0.04831  1.0000
  H   H1643     1.0  0.56850  0.54348  0.19721  1.0000
  H   H1644     1.0  0.61509  0.59804  0.00297  1.0000
  C   C920      1.0  0.66022  0.74223  0.23777  1.0000
  H   H1645     1.0  0.63951  0.73605  0.21664  1.0000
  H   H1646     1.0  0.64560  0.63460  0.21834  1.0000
  H   H1647     1.0  0.64230  0.67531  0.19727  1.0000
  C   C921      1.0  0.54261  0.67324  0.00765  1.0000
  H   H1648     1.0  0.67942  0.66573  0.19685  1.0000
  H   H1649     1.0  0.61608  0.65570  0.99927  1.0000
  H   H1650     1.0  0.73554  0.67762  0.17091  1.0000
  C   C922      1.0  0.52022  0.49987  0.06092  1.0000
  H   H1651     1.0  0.73885  0.75471  0.17213  1.0000
  H   H1652     1.0  0.68178  0.72892  0.16969  1.0000
  H   H1653     1.0  0.72882  0.52939  0.16226  1.0000
  H   H1654     1.0  0.53098  0.56394  0.02934  1.0000
  C   C923      1.0  0.73635  0.41805  0.12617  1.0000
  S   S199      1.0  0.69703  0.74854  0.23740  1.0000
  H   H1655     1.0  0.50645  0.92610  0.11183  1.0000
  S   S200      1.0  0.74075  0.66453  0.07762  1.0000
  C   C924      1.0  0.70292  0.57911  0.00117  1.0000
  H   H1656     1.0  0.50071  0.88126  0.12915  1.0000
  C   C925      1.0  0.73907  0.53919  0.18750  1.0000
  H   H1657     1.0  0.59869  0.69368  0.01635  1.0000
  S   S201      1.0  0.74148  0.67071  0.12534  1.0000
  S   S202      1.0  0.49656  0.49379  0.12029  1.0000
  C   C926      1.0  0.53357  0.56034  0.99809  1.0000
  C   C927      1.0  0.59019  0.63876  0.00551  1.0000
  S   S203      1.0  0.50025  0.59459  0.14964  1.0000
  C   C928      1.0  0.49755  0.91108  0.11897  1.0000
  C   C929      1.0  0.74193  0.58724  0.17929  1.0000
  C   C930      1.0  0.65798  0.82292  0.24410  1.0000
  H   H1658     1.0  0.54184  0.58132  0.99614  1.0000
  H   H1659     1.0  0.57686  0.76695  0.24549  1.0000
  H   H1660     1.0  0.66869  0.82112  0.24570  1.0000
  Fe  Fe102     1.0  0.55846  0.56008  0.26911  1.0000
  S   S204      1.0  0.56300  0.62961  0.26892  1.0000
  C   C931      1.0  0.72310  0.06311  0.33635  1.0000
  Fe  Fe103     1.0  0.56569  0.53392  0.31206  1.0000
  S   S205      1.0  0.57047  0.60356  0.31457  1.0000
  S   S206      1.0  0.56901  0.48384  0.33980  1.0000
  Fe  Fe104     1.0  0.55224  0.62673  0.29924  1.0000
  S   S207      1.0  0.53719  0.68631  0.30237  1.0000
  Fe  Fe105     1.0  0.58105  0.60157  0.28419  1.0000
  S   S208      1.0  0.59907  0.63748  0.27164  1.0000
  S   S209      1.0  0.54659  0.55810  0.29880  1.0000
  S   S210      1.0  0.57739  0.53092  0.28224  1.0000
  Fe  Fe106     1.0  0.55229  0.25135  0.41077  1.0000
  S   S211      1.0  0.56770  0.19408  0.40550  1.0000
  S   S212      1.0  0.54720  0.30498  0.38481  1.0000
  Fe  Fe107     1.0  0.54442  0.20891  0.45384  1.0000
  S   S213      1.0  0.55950  0.15026  0.45115  1.0000
  S   S214      1.0  0.52899  0.21273  0.48067  1.0000
  Fe  Fe108     1.0  0.57309  0.19918  0.43605  1.0000
  S   S215      1.0  0.59411  0.20190  0.44339  1.0000
  Fe  Fe109     1.0  0.55277  0.14956  0.42087  1.0000
  S   S216      1.0  0.55093  0.08118  0.41203  1.0000
  S   S217      1.0  0.55845  0.25898  0.44076  1.0000
  S   S218      1.0  0.53694  0.20578  0.42415  1.0000
  Fe  Fe110     1.0  0.67058  0.69217  0.30205  1.0000
  S   S219      1.0  0.67197  0.76152  0.28690  1.0000
  S   S220      1.0  0.65220  0.65481  0.30990  1.0000
  Fe  Fe111     1.0  0.69985  0.68058  0.30917  1.0000
  S   S221      1.0  0.70292  0.74926  0.29428  1.0000
  S   S222      1.0  0.71843  0.64259  0.32063  1.0000
  Fe  Fe112     1.0  0.68402  0.77227  0.31172  1.0000
  S   S223      1.0  0.67889  0.83204  0.33046  1.0000
  Fe  Fe113     1.0  0.69092  0.73226  0.27093  1.0000
  H   H1661     1.0  0.52340  0.56756  0.32959  1.0000
  S   S224      1.0  0.68159  0.70384  0.32751  1.0000
  S   S225      1.0  0.68890  0.66265  0.28508  1.0000
  Fe  Fe114     1.0  0.68716  0.10549  0.41648  1.0000
  S   S226      1.0  0.70188  0.04805  0.42501  1.0000
  S   S227      1.0  0.69189  0.17262  0.40074  1.0000
  Fe  Fe115     1.0  0.66396  0.05531  0.43407  1.0000
  S   S228      1.0  0.67744  0.99473  0.44452  1.0000
  S   S229      1.0  0.64184  0.05029  0.43620  1.0000
  Fe  Fe116     1.0  0.68969  0.04352  0.45466  1.0000
  H   H1662     1.0  0.54520  0.68059  0.34257  1.0000
  Fe  Fe117     1.0  0.68831  0.00466  0.41398  1.0000
  S   S230      1.0  0.69679  0.95064  0.39337  1.0000
  S   S231      1.0  0.67535  0.10272  0.44617  1.0000
  S   S232      1.0  0.67447  0.06355  0.40348  1.0000
  C   C932      1.0  0.73292  0.22169  0.39266  1.0000
  C   C933      1.0  0.73135  0.17752  0.40034  1.0000
  C   C934      1.0  0.71879  0.16249  0.40362  1.0000
  C   C935      1.0  0.70771  0.19113  0.39855  1.0000
  C   C936      1.0  0.70928  0.23529  0.39089  1.0000
  C   C937      1.0  0.72181  0.25065  0.38807  1.0000
  H   H1663     1.0  0.71674  0.81819  0.42176  1.0000
  H   H1664     1.0  0.71770  0.12874  0.40992  1.0000
  H   H1665     1.0  0.70076  0.25776  0.38701  1.0000
  C   C938      1.0  0.68414  0.86456  0.34797  1.0000
  C   C939      1.0  0.67465  0.89129  0.35889  1.0000
  C   C940      1.0  0.67824  0.91751  0.37277  1.0000
  C   C941      1.0  0.69147  0.91798  0.37599  1.0000
  C   C942      1.0  0.70097  0.89160  0.36493  1.0000
  C   C943      1.0  0.69737  0.86525  0.35114  1.0000
  H   H1666     1.0  0.66438  0.89161  0.35667  1.0000
  H   H1667     1.0  0.67072  0.93739  0.38098  1.0000
  H   H1668     1.0  0.71125  0.89167  0.36698  1.0000
  H   H1669     1.0  0.70489  0.84618  0.34265  1.0000
  C   C944      1.0  0.71968  0.58956  0.33448  1.0000
  C   C945      1.0  0.70882  0.56550  0.33957  1.0000
  C   C946      1.0  0.71031  0.52346  0.35076  1.0000
  C   C947      1.0  0.72264  0.50508  0.35682  1.0000
  C   C948      1.0  0.73344  0.52937  0.35186  1.0000
  C   C949      1.0  0.73197  0.57134  0.34066  1.0000
  H   H1670     1.0  0.69929  0.57931  0.33498  1.0000
  H   H1671     1.0  0.72183  0.99759  0.38184  1.0000
  C   C950      1.0  0.71560  0.20421  0.34105  1.0000
  H   H1672     1.0  0.50647  0.02779  0.42697  1.0000
  C   C951      1.0  0.60733  0.15979  0.44077  1.0000
  C   C952      1.0  0.60562  0.11928  0.43454  1.0000
  C   C953      1.0  0.61631  0.08622  0.43316  1.0000
  C   C954      1.0  0.62885  0.09351  0.43769  1.0000
  C   C955      1.0  0.63058  0.13415  0.44379  1.0000
  C   C956      1.0  0.61984  0.16701  0.44542  1.0000
  H   H1673     1.0  0.59606  0.11338  0.43080  1.0000
  H   H1674     1.0  0.61488  0.05478  0.42850  1.0000
  H   H1675     1.0  0.64015  0.13999  0.44750  1.0000
  H   H1676     1.0  0.62124  0.19821  0.45033  1.0000
  C   C957      1.0  0.51526  0.03861  0.38648  1.0000
  C   C958      1.0  0.51581  0.08334  0.38877  1.0000
  C   C959      1.0  0.52661  0.09684  0.39665  1.0000
  C   C960      1.0  0.53700  0.06567  0.40236  1.0000
  C   C961      1.0  0.53645  0.02087  0.40007  1.0000
  C   C962      1.0  0.52563  0.00734  0.39218  1.0000
  C   C963      1.0  0.73085  0.14946  0.45674  1.0000
  H   H1677     1.0  0.52693  0.13142  0.39824  1.0000
  H   H1678     1.0  0.54447  0.99654  0.40436  1.0000
  C   C964      1.0  0.56273  0.43411  0.35197  1.0000
  C   C965      1.0  0.56685  0.41631  0.37066  1.0000
  C   C966      1.0  0.56227  0.37702  0.38091  1.0000
  C   C967      1.0  0.55347  0.35470  0.37261  1.0000
  C   C968      1.0  0.54922  0.37285  0.35404  1.0000
  C   C969      1.0  0.55387  0.41199  0.34373  1.0000
  H   H1679     1.0  0.57368  0.43301  0.37728  1.0000
  H   H1680     1.0  0.56544  0.36425  0.39532  1.0000
  H   H1681     1.0  0.54240  0.35610  0.34744  1.0000
  H   H1682     1.0  0.55070  0.42463  0.32930  1.0000
  C   C970      1.0  0.61327  0.64379  0.28343  1.0000
  C   C971      1.0  0.62115  0.67762  0.27546  1.0000
  C   C972      1.0  0.63288  0.68239  0.28367  1.0000
  C   C973      1.0  0.63705  0.65268  0.29969  1.0000
  C   C974      1.0  0.62896  0.61963  0.30796  1.0000
  C   C975      1.0  0.61714  0.61525  0.29995  1.0000
  H   H1683     1.0  0.61812  0.70043  0.26292  1.0000
  H   H1684     1.0  0.63874  0.70881  0.27758  1.0000
  H   H1685     1.0  0.63199  0.59672  0.32049  1.0000
  H   H1686     1.0  0.61120  0.58908  0.30631  1.0000
  C   C976      1.0  0.53172  0.71609  0.32264  1.0000
  C   C977      1.0  0.52156  0.75069  0.32027  1.0000
  C   C978      1.0  0.51687  0.77579  0.33583  1.0000
  C   C979      1.0  0.52233  0.76641  0.35396  1.0000
  C   C980      1.0  0.53252  0.73176  0.35639  1.0000
  C   C981      1.0  0.53727  0.70679  0.34073  1.0000
  H   H1687     1.0  0.51725  0.75816  0.30629  1.0000
  H   H1688     1.0  0.52000  0.48291  0.41673  1.0000
  H   H1689     1.0  0.53681  0.72457  0.37038  1.0000
  C   C982      1.0  0.49811  0.93435  0.44915  1.0000
  H   H1690     1.0  0.66177  0.66787  0.26543  1.0000
  H   H1691     1.0  0.72749  0.62097  0.27001  1.0000
  C   C983      1.0  0.74358  0.45576  0.25569  1.0000
  H   H1692     1.0  0.50566  0.69028  0.35236  1.0000
  Fe  Fe118     1.0  0.50099  0.85597  0.36925  1.0000
  H   H1693     1.0  0.63381  0.14080  0.39969  1.0000
  H   H1694     1.0  0.51007  0.10405  0.43227  1.0000
  H   H1695     1.0  0.61007  0.82655  0.30311  1.0000
  H   H1696     1.0  0.62176  0.78126  0.29609  1.0000
  C   C984      1.0  0.72135  0.15713  0.34812  1.0000
  H   H1697     1.0  0.56371  0.76967  0.27757  1.0000
  C   C985      1.0  0.73932  0.07231  0.44823  1.0000
  H   H1698     1.0  0.53680  0.49237  0.33652  1.0000
  H   H1699     1.0  0.71953  0.08453  0.32312  1.0000
  H   H1700     1.0  0.73741  0.08211  0.43249  1.0000
  H   H1701     1.0  0.74117  0.15544  0.45801  1.0000
  H   H1702     1.0  0.50119  0.95840  0.25457  1.0000
  H   H1703     1.0  0.71648  0.59021  0.28720  1.0000
  H   H1704     1.0  0.73231  0.08811  0.36902  1.0000
  H   H1705     1.0  0.69573  0.21006  0.48656  1.0000
  H   H1706     1.0  0.70740  0.17666  0.44681  1.0000
  H   H1707     1.0  0.50938  0.48752  0.32332  1.0000
  H   H1708     1.0  0.50170  0.61382  0.34889  1.0000
  H   H1709     1.0  0.62793  0.16286  0.34488  1.0000
  H   H1710     1.0  0.71880  0.45504  0.31951  1.0000
  H   H1711     1.0  0.70719  0.84269  0.40180  1.0000
  H   H1712     1.0  0.60020  0.77340  0.28554  1.0000
  N   N52       1.0  0.50005  0.04500  0.30782  1.0000
  H   H1713     1.0  0.52026  0.55628  0.39230  1.0000
  H   H1714     1.0  0.63397  0.06199  0.48025  1.0000
  H   H1715     1.0  0.58534  0.81264  0.30868  1.0000
  H   H1716     1.0  0.65225  0.21450  0.39004  1.0000
  H   H1717     1.0  0.70187  0.50500  0.35472  1.0000
  H   H1718     1.0  0.50136  0.00316  0.46497  1.0000
  H   H1719     1.0  0.56299  0.52811  0.37939  1.0000
  H   H1720     1.0  0.50777  0.95168  0.41911  1.0000
  H   H1721     1.0  0.71480  0.24233  0.43582  1.0000
  H   H1722     1.0  0.70736  0.21559  0.35167  1.0000
  H   H1723     1.0  0.62083  0.13228  0.37385  1.0000
  H   H1724     1.0  0.50010  0.09888  0.45549  1.0000
  N   N53       1.0  0.70023  0.72409  0.38169  1.0000
  C   C986      1.0  0.70912  0.68599  0.39107  1.0000
  C   C987      1.0  0.69869  0.76282  0.39380  1.0000
  C   C988      1.0  0.68684  0.70812  0.38182  1.0000
  C   C989      1.0  0.70507  0.73812  0.36046  1.0000
  C   C990      1.0  0.71894  0.75410  0.35693  1.0000
  C   C991      1.0  0.71146  0.64357  0.38040  1.0000
  C   C992      1.0  0.67545  0.74408  0.37598  1.0000
  C   C993      1.0  0.71065  0.77046  0.40459  1.0000
  C   C994      1.0  0.70827  0.81424  0.41357  1.0000
  C   C995      1.0  0.72344  0.76127  0.33485  1.0000
  C   C996      1.0  0.50007  0.08956  0.29533  1.0000
  C   C997      1.0  0.66244  0.72391  0.37720  1.0000
  H   H1725     1.0  0.70511  0.67622  0.40660  1.0000
  H   H1726     1.0  0.71901  0.69583  0.39227  1.0000
  H   H1727     1.0  0.69559  0.79423  0.38445  1.0000
  H   H1728     1.0  0.69064  0.75878  0.40594  1.0000
  H   H1729     1.0  0.68376  0.69138  0.39678  1.0000
  H   H1730     1.0  0.68717  0.68285  0.37141  1.0000
  H   H1731     1.0  0.70480  0.71097  0.35120  1.0000
  H   H1732     1.0  0.69834  0.76593  0.35387  1.0000
  H   H1733     1.0  0.72639  0.72981  0.36402  1.0000
  H   H1734     1.0  0.71875  0.78643  0.36269  1.0000
  H   H1735     1.0  0.70216  0.62922  0.37957  1.0000
  H   H1736     1.0  0.71622  0.65085  0.36519  1.0000
  H   H1737     1.0  0.67742  0.75956  0.36062  1.0000
  H   H1738     1.0  0.67399  0.77076  0.38577  1.0000
  H   H1739     1.0  0.71224  0.74353  0.41694  1.0000
  H   H1740     1.0  0.71985  0.77091  0.39467  1.0000
  H   H1741     1.0  0.69925  0.81503  0.42405  1.0000
  H   H1742     1.0  0.50094  0.11613  0.30469  1.0000
  H   H1743     1.0  0.52310  0.50864  0.30767  1.0000
  H   H1744     1.0  0.50536  0.67690  0.37893  1.0000
  H   H1745     1.0  0.71527  0.38319  0.33922  1.0000
  H   H1746     1.0  0.50205  0.92516  0.46381  1.0000
  H   H1747     1.0  0.72461  0.72938  0.32845  1.0000
  S   S233      1.0  0.49538  0.89723  0.39452  1.0000
  H   H1748     1.0  0.50166  0.03124  0.26567  1.0000
  H   H1749     1.0  0.66318  0.69768  0.36721  1.0000
  H   H1750     1.0  0.65962  0.70954  0.39261  1.0000
  H   H1751     1.0  0.65458  0.75012  0.37251  1.0000
  H   H1752     1.0  0.52944  0.02846  0.34866  1.0000
  C   C998      1.0  0.72962  0.09910  0.46175  1.0000
  C   C999      1.0  0.53076  0.49313  0.38754  1.0000
  H   H1753     1.0  0.64058  0.16145  0.37566  1.0000
  C   C1000     1.0  0.56458  0.77597  0.31811  1.0000
  H   H1754     1.0  0.52782  0.90088  0.42270  1.0000
  H   H1755     1.0  0.72556  0.51508  0.30368  1.0000
  H   H1756     1.0  0.73006  0.02788  0.40968  1.0000
  C   C1001     1.0  0.51910  0.89588  0.43345  1.0000
  S   S234      1.0  0.70067  0.03438  0.48325  1.0000
  C   C1002     1.0  0.52028  0.48570  0.32098  1.0000
  H   H1757     1.0  0.59050  0.73568  0.25726  1.0000
  H   H1758     1.0  0.64984  0.64113  0.25492  1.0000
  H   H1759     1.0  0.69871  0.24527  0.46366  1.0000
  C   C1003     1.0  0.50612  0.00793  0.29611  1.0000
  H   H1760     1.0  0.59299  0.66282  0.31839  1.0000
  H   H1761     1.0  0.55635  0.75624  0.31661  1.0000
  C   C1004     1.0  0.50827  0.04463  0.32494  1.0000
  H   H1762     1.0  0.54721  0.61803  0.36784  1.0000
  H   H1763     1.0  0.54406  0.57579  0.34238  1.0000
  H   H1764     1.0  0.52851  0.02246  0.31346  1.0000
  H   H1765     1.0  0.51648  0.96352  0.43907  1.0000
  S   S235      1.0  0.72410  0.45218  0.37080  1.0000
  H   H1766     1.0  0.71638  0.59936  0.40695  1.0000
  H   H1767     1.0  0.72397  0.50080  0.27995  1.0000
  C   C1005     1.0  0.54765  0.58177  0.37246  1.0000
  H   H1768     1.0  0.68372  0.20506  0.44759  1.0000
  H   H1769     1.0  0.63661  0.20289  0.31360  1.0000
  C   C1006     1.0  0.52361  0.46399  0.40409  1.0000
  H   H1770     1.0  0.73991  0.15504  0.40403  1.0000
  H   H1771     1.0  0.51173  0.52476  0.37906  1.0000
  Fe  Fe119     1.0  0.49630  0.95589  0.37131  1.0000
  C   C1007     1.0  0.72595  0.29567  0.43865  1.0000
  H   H1772     1.0  0.72808  0.35534  0.32387  1.0000
  H   H1773     1.0  0.73259  0.96978  0.31134  1.0000
  C   C1008     1.0  0.72419  0.58758  0.27462  1.0000
  C   C1009     1.0  0.50577  0.61971  0.36260  1.0000
  H   H1774     1.0  0.72842  0.42428  0.28805  1.0000
  C   C1010     1.0  0.72424  0.24628  0.44150  1.0000
  H   H1775     1.0  0.59818  0.16109  0.48203  1.0000
  H   H1776     1.0  0.74034  0.56882  0.29230  1.0000
  H   H1777     1.0  0.51364  0.87065  0.42851  1.0000
  H   H1778     1.0  0.60957  0.07935  0.47507  1.0000
  H   H1779     1.0  0.58732  0.11252  0.46663  1.0000
  H   H1780     1.0  0.50785  0.10782  0.38437  1.0000
  H   H1781     1.0  0.54004  0.06439  0.33333  1.0000
  S   S236      1.0  0.50357  0.91506  0.34652  1.0000
  C   C1011     1.0  0.57454  0.76156  0.27759  1.0000
  C   C1012     1.0  0.59958  0.08994  0.37233  1.0000
  H   H1782     1.0  0.58707  0.70811  0.29259  1.0000
  H   H1783     1.0  0.61508  0.78110  0.32147  1.0000
  C   C1013     1.0  0.61276  0.79020  0.30586  1.0000
  C   C1014     1.0  0.66041  0.64558  0.25442  1.0000
  H   H1784     1.0  0.57755  0.00491  0.45511  1.0000
  H   H1785     1.0  0.53459  0.47219  0.37578  1.0000
  H   H1786     1.0  0.74300  0.14403  0.49039  1.0000
  H   H1787     1.0  0.65264  0.81509  0.25888  1.0000
  H   H1788     1.0  0.62541  0.51154  0.25384  1.0000
  H   H1789     1.0  0.52260  0.47303  0.35178  1.0000
  H   H1790     1.0  0.51519  0.45120  0.39853  1.0000
  H   H1791     1.0  0.54734  0.84163  0.35265  1.0000
  H   H1792     1.0  0.73235  0.22974  0.43224  1.0000
  H   H1793     1.0  0.71197  0.20563  0.32623  1.0000
  H   H1794     1.0  0.72161  0.57714  0.38402  1.0000
  H   H1795     1.0  0.57017  0.70383  0.29783  1.0000
  C   C1015     1.0  0.52095  0.60944  0.36089  1.0000
  H   H1796     1.0  0.56372  0.80463  0.30634  1.0000
  C   C1016     1.0  0.57763  0.72809  0.29606  1.0000
  C   C1017     1.0  0.55011  0.83167  0.33759  1.0000
  C   C1018     1.0  0.57962  0.74267  0.25829  1.0000
  H   H1797     1.0  0.53944  0.50295  0.39359  1.0000
  H   H1798     1.0  0.52483  0.62940  0.34715  1.0000
  H   H1799     1.0  0.51652  0.01217  0.29090  1.0000
  C   C1019     1.0  0.72688  0.42770  0.31930  1.0000
  H   H1800     1.0  0.66407  0.58903  0.27648  1.0000
  H   H1801     1.0  0.56618  0.04759  0.46505  1.0000
  H   H1802     1.0  0.53048  0.43511  0.40941  1.0000
  H   H1803     1.0  0.57001  0.69201  0.33295  1.0000
  H   H1804     1.0  0.56752  0.56788  0.35865  1.0000
  C   C1020     1.0  0.59130  0.67948  0.33201  1.0000
  C   C1021     1.0  0.73521  0.42935  0.29896  1.0000
  H   H1805     1.0  0.57029  0.80939  0.34224  1.0000
  H   H1806     1.0  0.51645  0.96055  0.26503  1.0000
  H   H1807     1.0  0.52460  0.08755  0.34466  1.0000
  H   H1808     1.0  0.71887  0.24887  0.47317  1.0000
  H   H1809     1.0  0.59115  0.77954  0.32968  1.0000
  H   H1810     1.0  0.71332  0.38227  0.31338  1.0000
  H   H1811     1.0  0.52439  0.62336  0.37344  1.0000
  C   C1022     1.0  0.52166  0.53503  0.38003  1.0000
  H   H1812     1.0  0.55887  0.76872  0.35011  1.0000
  H   H1813     1.0  0.58226  0.62428  0.34956  1.0000
  H   H1814     1.0  0.59989  0.62021  0.34895  1.0000
  N   N54       1.0  0.71527  0.07597  0.35511  1.0000
  C   C1023     1.0  0.70334  0.05105  0.36072  1.0000
  C   C1024     1.0  0.72370  0.06870  0.37227  1.0000
  C   C1025     1.0  0.71051  0.12487  0.35209  1.0000
  C   C1026     1.0  0.69232  0.06197  0.34643  1.0000
  H   H1815     1.0  0.54141  0.81971  0.33250  1.0000
  C   C1027     1.0  0.68311  0.02554  0.34885  1.0000
  H   H1816     1.0  0.57891  0.79298  0.27765  1.0000
  H   H1817     1.0  0.69879  0.05776  0.37569  1.0000
  S   S237      1.0  0.51680  0.79792  0.37364  1.0000
  H   H1818     1.0  0.71793  0.08109  0.38552  1.0000
  H   H1819     1.0  0.70394  0.13449  0.36521  1.0000
  H   H1820     1.0  0.70442  0.13235  0.33932  1.0000
  H   H1821     1.0  0.73354  0.06957  0.33639  1.0000
  H   H1822     1.0  0.68632  0.09329  0.34968  1.0000
  H   H1823     1.0  0.69644  0.06646  0.33074  1.0000
  H   H1824     1.0  0.72596  0.15884  0.36190  1.0000
  C   C1028     1.0  0.56164  0.79521  0.33820  1.0000
  H   H1825     1.0  0.67883  0.01972  0.36445  1.0000
  H   H1826     1.0  0.68851  0.99413  0.34452  1.0000
  H   H1827     1.0  0.71323  0.00959  0.32751  1.0000
  N   N55       1.0  0.57767  0.74842  0.31500  1.0000
  H   H1828     1.0  0.74323  0.00658  0.31846  1.0000
  H   H1829     1.0  0.58991  0.65825  0.36382  1.0000
  C   C1029     1.0  0.72954  0.02056  0.37846  1.0000
  C   C1030     1.0  0.60161  0.76506  0.30150  1.0000
  H   H1830     1.0  0.52255  0.88331  0.44820  1.0000
  H   H1831     1.0  0.74038  0.58997  0.33694  1.0000
  H   H1832     1.0  0.62000  0.12954  0.49021  1.0000
  H   H1833     1.0  0.70432  0.14311  0.46940  1.0000
  C   C1031     1.0  0.56209  0.56386  0.37355  1.0000
  C   C1032     1.0  0.72052  0.38439  0.32414  1.0000
  C   C1033     1.0  0.52596  0.49706  0.33926  1.0000
  H   H1834     1.0  0.50904  0.80242  0.33380  1.0000
  C   C1034     1.0  0.72169  0.16631  0.49041  1.0000
  H   H1835     1.0  0.71963  0.09149  0.45963  1.0000
  H   H1836     1.0  0.72549  0.30862  0.42276  1.0000
  H   H1837     1.0  0.55284  0.86124  0.32745  1.0000
  H   H1838     1.0  0.59986  0.69735  0.33342  1.0000
  H   H1839     1.0  0.73115  0.02728  0.30108  1.0000
  H   H1840     1.0  0.73681  0.00908  0.36657  1.0000
  N   N56       1.0  0.61378  0.20083  0.37777  1.0000
  C   C1035     1.0  0.62493  0.20762  0.38950  1.0000
  C   C1036     1.0  0.60125  0.22464  0.38665  1.0000
  C   C1037     1.0  0.61600  0.22058  0.35647  1.0000
  C   C1038     1.0  0.60176  0.27384  0.38975  1.0000
  C   C1039     1.0  0.58836  0.29415  0.39808  1.0000
  H   H1841     1.0  0.62874  0.24009  0.38412  1.0000
  H   H1842     1.0  0.62127  0.20950  0.40534  1.0000
  H   H1843     1.0  0.59809  0.20674  0.40130  1.0000
  H   H1844     1.0  0.59305  0.22475  0.37725  1.0000
  H   H1845     1.0  0.60702  0.22046  0.34868  1.0000
  H   H1846     1.0  0.61754  0.25614  0.35560  1.0000
  H   H1847     1.0  0.59073  0.15541  0.37564  1.0000
  H   H1848     1.0  0.60444  0.29422  0.37562  1.0000
  H   H1849     1.0  0.60895  0.27686  0.40039  1.0000
  H   H1850     1.0  0.62804  0.25443  0.32028  1.0000
  H   H1851     1.0  0.58073  0.29282  0.38787  1.0000
  H   H1852     1.0  0.58538  0.27627  0.41275  1.0000
  H   H1853     1.0  0.58891  0.32937  0.39997  1.0000
  H   H1854     1.0  0.59811  0.07782  0.38837  1.0000
  N   N57       1.0  0.52627  0.56122  0.36074  1.0000
  H   H1855     1.0  0.72289  0.28480  0.38227  1.0000
  H   H1856     1.0  0.67496  0.03541  0.33923  1.0000
  H   H1857     1.0  0.52540  0.97286  0.39038  1.0000
  C   C1040     1.0  0.54105  0.55949  0.35745  1.0000
  C   C1041     1.0  0.73313  0.00412  0.31460  1.0000
  C   C1042     1.0  0.73687  0.01775  0.39699  1.0000
  C   C1043     1.0  0.61189  0.15221  0.37961  1.0000
  C   C1044     1.0  0.60029  0.14002  0.36934  1.0000
  H   H1858     1.0  0.61040  0.13916  0.39552  1.0000
  H   H1859     1.0  0.65619  0.15844  0.40116  1.0000
  H   H1860     1.0  0.60500  0.72932  0.30384  1.0000
  H   H1861     1.0  0.54562  0.52492  0.35752  1.0000
  H   H1862     1.0  0.52416  0.45142  0.31817  1.0000
  H   H1863     1.0  0.70609  0.01476  0.36230  1.0000
  H   H1864     1.0  0.52064  0.33548  0.48997  1.0000
  C   C1045     1.0  0.57853  0.71184  0.33207  1.0000
  C   C1046     1.0  0.70756  0.17592  0.46312  1.0000
  H   H1865     1.0  0.71985  0.57704  0.26202  1.0000
  H   H1866     1.0  0.64492  0.19604  0.41451  1.0000
  C   C1047     1.0  0.58863  0.77773  0.31437  1.0000
  H   H1867     1.0  0.60873  0.07230  0.36576  1.0000
  H   H1868     1.0  0.49849  0.13948  0.25788  1.0000
  C   C1048     1.0  0.62791  0.19926  0.34400  1.0000
  C   C1049     1.0  0.62781  0.21789  0.32216  1.0000
  H   H1869     1.0  0.60145  0.15071  0.35318  1.0000
  H   H1870     1.0  0.61889  0.20994  0.31603  1.0000
  C   C1050     1.0  0.72493  0.22631  0.46345  1.0000
  H   H1871     1.0  0.74292  0.39112  0.47180  1.0000
  H   H1872     1.0  0.59113  0.08199  0.36505  1.0000
  C   C1051     1.0  0.63681  0.17110  0.39037  1.0000
  C   C1052     1.0  0.64820  0.18613  0.39958  1.0000
  C   C1053     1.0  0.52109  0.54505  0.34340  1.0000
  C   C1054     1.0  0.59074  0.64344  0.34969  1.0000
  H   H1873     1.0  0.54258  0.57684  0.38758  1.0000
  H   H1874     1.0  0.63717  0.20721  0.34903  1.0000
  C   C1055     1.0  0.72301  0.01464  0.33180  1.0000
  H   H1875     1.0  0.57784  0.72588  0.34638  1.0000
  H   H1876     1.0  0.56667  0.58217  0.38354  1.0000
  C   C1056     1.0  0.51041  0.93983  0.43430  1.0000
  H   H1877     1.0  0.73045  0.61876  0.39140  1.0000
  H   H1878     1.0  0.73813  0.03648  0.45198  1.0000
  H   H1879     1.0  0.50796  0.01267  0.33480  1.0000
  C   C1057     1.0  0.66761  0.60026  0.26092  1.0000
  H   H1880     1.0  0.51020  0.54617  0.34549  1.0000
  C   C1058     1.0  0.50668  0.08009  0.44485  1.0000
  N   N58       1.0  0.72126  0.17957  0.46844  1.0000
  C   C1059     1.0  0.69665  0.21142  0.47020  1.0000
  H   H1881     1.0  0.71624  0.78490  0.32676  1.0000
  C   C1060     1.0  0.68331  0.20421  0.46395  1.0000
  H   H1882     1.0  0.72957  0.15751  0.44073  1.0000
  H   H1883     1.0  0.68026  0.17189  0.47110  1.0000
  S   S238      1.0  0.50145  0.02396  0.37623  1.0000
  C   C1061     1.0  0.58598  0.04230  0.47465  1.0000
  C   C1062     1.0  0.49974  0.00297  0.27713  1.0000
  H   H1884     1.0  0.73525  0.22792  0.46656  1.0000
  H   H1885     1.0  0.61142  0.54183  0.26588  1.0000
  H   H1886     1.0  0.72512  0.98989  0.34466  1.0000
  C   C1063     1.0  0.57653  0.03921  0.45916  1.0000
  C   C1064     1.0  0.58496  0.09022  0.48042  1.0000
  H   H1887     1.0  0.58594  0.23658  0.48521  1.0000
  H   H1888     1.0  0.57877  0.06203  0.44552  1.0000
  H   H1889     1.0  0.57525  0.71162  0.25745  1.0000
  H   H1890     1.0  0.71800  0.31436  0.44743  1.0000
  C   C1065     1.0  0.60720  0.07649  0.49142  1.0000
  H   H1891     1.0  0.73170  0.08724  0.47725  1.0000
  C   C1066     1.0  0.73130  0.50917  0.28937  1.0000
  C   C1067     1.0  0.52962  0.05853  0.33767  1.0000
  H   H1892     1.0  0.73308  0.77499  0.33268  1.0000
  H   H1893     1.0  0.51546  0.06380  0.45212  1.0000
  H   H1894     1.0  0.73567  0.30127  0.44303  1.0000
  C   C1068     1.0  0.50170  0.66841  0.36533  1.0000
  H   H1895     1.0  0.74291  0.51586  0.35676  1.0000
  H   H1896     1.0  0.73594  0.48348  0.25199  1.0000
  H   H1897     1.0  0.50898  0.08973  0.28456  1.0000
  H   H1898     1.0  0.67837  0.60213  0.26014  1.0000
  C   C1069     1.0  0.72054  0.60770  0.39144  1.0000
  H   H1899     1.0  0.59602  0.03172  0.46817  1.0000
  H   H1900     1.0  0.50622  0.97561  0.30581  1.0000
  H   H1901     1.0  0.73308  0.43004  0.33131  1.0000
  H   H1902     1.0  0.67577  0.23083  0.46859  1.0000
  C   C1070     1.0  0.52298  0.05189  0.31947  1.0000
  C   C1071     1.0  0.73585  0.55471  0.28078  1.0000
  H   H1903     1.0  0.52408  0.08143  0.30841  1.0000
  H   H1904     1.0  0.57436  0.09948  0.48487  1.0000
  H   H1905     1.0  0.72332  0.22717  0.34001  1.0000
  C   C1072     1.0  0.61755  0.53941  0.25160  1.0000
  Fe  Fe120     1.0  0.74362  0.40898  0.37320  1.0000
  H   H1906     1.0  0.72915  0.14654  0.33672  1.0000
  H   H1907     1.0  0.50115  0.59894  0.37537  1.0000
  H   H1908     1.0  0.59115  0.56831  0.24605  1.0000
  H   H1909     1.0  0.73895  0.42431  0.25862  1.0000
  H   H1910     1.0  0.74399  0.49457  0.32027  1.0000
  C   C1073     1.0  0.49945  0.04567  0.43726  1.0000
  H   H1911     1.0  0.74112  0.98305  0.40098  1.0000
  N   N59       1.0  0.74189  0.47099  0.29246  1.0000
  H   H1912     1.0  0.50410  0.07089  0.33434  1.0000
  H   H1913     1.0  0.66565  0.57544  0.25140  1.0000
  H   H1914     1.0  0.74269  0.39972  0.29971  1.0000
  H   H1915     1.0  0.65483  0.73516  0.25258  1.0000
  H   H1916     1.0  0.62225  0.57056  0.24732  1.0000
  C   C1074     1.0  0.50565  0.96061  0.26846  1.0000
  H   H1917     1.0  0.50356  0.93095  0.27904  1.0000
  H   H1918     1.0  0.71802  0.13339  0.49486  1.0000
  H   H1919     1.0  0.57354  0.17120  0.48728  1.0000
  H   H1920     1.0  0.74294  0.55243  0.26756  1.0000
  H   H1921     1.0  0.58349  0.01819  0.48766  1.0000
  H   H1922     1.0  0.49717  0.35612  0.55075  1.0000
  S   S239      1.0  0.50803  0.16754  0.62144  1.0000
  H   H1923     1.0  0.57577  0.08252  0.55445  1.0000
  H   H1924     1.0  0.64449  0.28365  0.72082  1.0000
  S   S240      1.0  0.52026  0.06461  0.61744  1.0000
  C   C1075     1.0  0.52568  0.28675  0.58299  1.0000
  Fe  Fe121     1.0  0.50997  0.10302  0.64171  1.0000
  S   S241      1.0  0.51215  0.09950  0.67512  1.0000
  Fe  Fe122     1.0  0.51672  0.12764  0.59657  1.0000
  S   S242      1.0  0.53304  0.14887  0.57298  1.0000
  H   H1925     1.0  0.74230  0.27038  0.59962  1.0000
  H   H1926     1.0  0.52526  0.32111  0.54367  1.0000
  H   H1927     1.0  0.49723  0.39739  0.59178  1.0000
  S   S243      1.0  0.71910  0.18973  0.60176  1.0000
  H   H1928     1.0  0.53983  0.90837  0.72208  1.0000
  Fe  Fe123     1.0  0.73118  0.06828  0.62011  1.0000
  S   S244      1.0  0.70975  0.09283  0.61831  1.0000
  H   H1929     1.0  0.57933  0.88261  0.72041  1.0000
  Fe  Fe124     1.0  0.71602  0.12803  0.58819  1.0000
  S   S245      1.0  0.70480  0.13429  0.55989  1.0000
  Fe  Fe125     1.0  0.71457  0.15162  0.63210  1.0000
  S   S246      1.0  0.70056  0.17947  0.65744  1.0000
  H   H1930     1.0  0.54567  0.99800  0.69775  1.0000
  C   C1076     1.0  0.58562  0.06327  0.55326  1.0000
  C   C1077     1.0  0.53898  0.97469  0.70597  1.0000
  C   C1078     1.0  0.69326  0.10148  0.50821  1.0000
  C   C1079     1.0  0.69445  0.12276  0.52508  1.0000
  C   C1080     1.0  0.70355  0.10534  0.53892  1.0000
  C   C1081     1.0  0.71149  0.06620  0.53543  1.0000
  C   C1082     1.0  0.71038  0.04510  0.51850  1.0000
  H   H1931     1.0  0.52462  0.99433  0.68457  1.0000
  H   H1932     1.0  0.68818  0.15288  0.52751  1.0000
  H   H1933     1.0  0.71857  0.05250  0.54570  1.0000
  H   H1934     1.0  0.59620  0.00175  0.72994  1.0000
  C   C1083     1.0  0.70286  0.20443  0.72265  1.0000
  C   C1084     1.0  0.69130  0.21630  0.71324  1.0000
  C   C1085     1.0  0.69080  0.20824  0.69342  1.0000
  C   C1086     1.0  0.70184  0.18827  0.68258  1.0000
  C   C1087     1.0  0.71341  0.17630  0.69200  1.0000
  C   C1088     1.0  0.71391  0.18444  0.71181  1.0000
  H   H1935     1.0  0.68283  0.23259  0.72113  1.0000
  H   H1936     1.0  0.68181  0.21804  0.68633  1.0000
  H   H1937     1.0  0.72199  0.16086  0.68398  1.0000
  H   H1938     1.0  0.72294  0.17518  0.71875  1.0000
  H   H1939     1.0  0.50922  0.20416  0.68161  1.0000
  C   C1089     1.0  0.73377  0.29328  0.64571  1.0000
  H   H1940     1.0  0.73962  0.29966  0.71602  1.0000
  C   C1090     1.0  0.72523  0.96704  0.57509  1.0000
  H   H1941     1.0  0.58233  0.80178  0.72876  1.0000
  S   S247      1.0  0.49783  0.98372  0.60145  1.0000
  H   H1942     1.0  0.53259  0.99211  0.71722  1.0000
  H   H1943     1.0  0.74150  0.93320  0.68583  1.0000
  C   C1091     1.0  0.54256  0.18604  0.51414  1.0000
  C   C1092     1.0  0.54320  0.17250  0.53460  1.0000
  C   C1093     1.0  0.53182  0.16318  0.54707  1.0000
  C   C1094     1.0  0.51979  0.16747  0.53878  1.0000
  C   C1095     1.0  0.51913  0.18195  0.51840  1.0000
  H   H1944     1.0  0.53343  0.29599  0.57117  1.0000
  H   H1945     1.0  0.55254  0.16957  0.54083  1.0000
  H   H1946     1.0  0.51098  0.16020  0.54811  1.0000
  H   H1947     1.0  0.67694  0.14372  0.72391  1.0000
  C   C1096     1.0  0.54574  0.08699  0.71629  1.0000
  C   C1097     1.0  0.53265  0.08482  0.72399  1.0000
  C   C1098     1.0  0.52261  0.08785  0.71112  1.0000
  C   C1099     1.0  0.52543  0.09393  0.69040  1.0000
  C   C1100     1.0  0.53852  0.09600  0.68270  1.0000
  C   C1101     1.0  0.54859  0.09237  0.69557  1.0000
  H   H1948     1.0  0.57671  0.08761  0.51807  1.0000
  H   H1949     1.0  0.51258  0.08527  0.71727  1.0000
  H   H1950     1.0  0.54090  0.10050  0.66683  1.0000
  H   H1951     1.0  0.55868  0.09385  0.68942  1.0000
  H   H1952     1.0  0.72310  0.96676  0.55953  1.0000
  H   H1953     1.0  0.71660  0.01491  0.51610  1.0000
  H   H1954     1.0  0.52419  0.26611  0.53855  1.0000
  H   H1955     1.0  0.50684  0.29468  0.51534  1.0000
  H   H1956     1.0  0.53600  0.94720  0.67909  1.0000
  H   H1957     1.0  0.58673  0.22774  0.51180  1.0000
  H   H1958     1.0  0.55266  0.91675  0.70315  1.0000
  H   H1959     1.0  0.73761  0.00630  0.53607  1.0000
  H   H1960     1.0  0.74180  0.20430  0.65472  1.0000
  H   H1961     1.0  0.49645  0.32017  0.69881  1.0000
  H   H1962     1.0  0.73290  0.33394  0.68309  1.0000
  H   H1963     1.0  0.63111  0.03462  0.50516  1.0000
  H   H1964     1.0  0.53794  0.22598  0.59213  1.0000
  H   H1965     1.0  0.71263  0.30860  0.62277  1.0000
  H   H1966     1.0  0.53071  0.34833  0.50808  1.0000
  C   C1102     1.0  0.71339  0.99220  0.58571  1.0000
  C   C1103     1.0  0.51472  0.26507  0.57498  1.0000
  H   H1967     1.0  0.50194  0.24371  0.54123  1.0000
  H   H1968     1.0  0.73321  0.11124  0.52227  1.0000
  C   C1104     1.0  0.64623  0.25767  0.73347  1.0000
  H   H1969     1.0  0.73722  0.30289  0.62995  1.0000
  H   H1970     1.0  0.53967  0.27198  0.60524  1.0000
  H   H1971     1.0  0.61968  0.10802  0.72377  1.0000
  H   H1972     1.0  0.68609  0.11520  0.49799  1.0000
  C   C1105     1.0  0.57794  0.97150  0.73282  1.0000
  C   C1106     1.0  0.50217  0.33709  0.56332  1.0000
  H   H1973     1.0  0.49658  0.20793  0.57374  1.0000
  H   H1974     1.0  0.59931  0.15461  0.50770  1.0000
  H   H1975     1.0  0.73742  0.01190  0.67331  1.0000
  H   H1976     1.0  0.64595  0.07824  0.73472  1.0000
  H   H1977     1.0  0.73798  0.23237  0.68388  1.0000
  C   C1107     1.0  0.54690  0.93240  0.71558  1.0000
  H   H1978     1.0  0.52526  0.24269  0.61079  1.0000
  H   H1979     1.0  0.59062  0.06644  0.56656  1.0000
  H   H1980     1.0  0.50016  0.25202  0.72283  1.0000
  H   H1981     1.0  0.74217  0.99161  0.50145  1.0000
  C   C1108     1.0  0.74005  0.29895  0.54526  1.0000
  C   C1109     1.0  0.67265  0.08366  0.71354  1.0000
  C   C1110     1.0  0.51821  0.29832  0.54076  1.0000
  H   H1982     1.0  0.51909  0.23266  0.57034  1.0000
  H   H1983     1.0  0.70242  0.27014  0.63727  1.0000
  H   H1984     1.0  0.71460  0.99013  0.60177  1.0000
  H   H1985     1.0  0.71221  0.02767  0.57949  1.0000
  H   H1986     1.0  0.70429  0.97739  0.58399  1.0000
  H   H1987     1.0  0.55130  0.19383  0.50479  1.0000
  S   S248      1.0  0.55893  0.08061  0.73177  1.0000
  S   S249      1.0  0.49722  0.11236  0.58891  1.0000
  C   C1111     1.0  0.51307  0.31738  0.52046  1.0000
  H   H1988     1.0  0.53070  0.29166  0.50311  1.0000
  Fe  Fe126     1.0  0.73990  0.15887  0.60440  1.0000
  C   C1112     1.0  0.72237  0.26436  0.64574  1.0000
  H   H1989     1.0  0.72585  0.25340  0.55797  1.0000
  N   N60       1.0  0.55589  0.93965  0.73068  1.0000
  H   H1990     1.0  0.64425  0.12392  0.71617  1.0000
  C   C1113     1.0  0.51662  0.26401  0.65185  1.0000
  C   C1114     1.0  0.71022  0.29198  0.63794  1.0000
  H   H1991     1.0  0.52143  0.31680  0.58986  1.0000
  C   C1115     1.0  0.59385  0.08097  0.53461  1.0000
  C   C1116     1.0  0.49748  0.26693  0.55193  1.0000
  H   H1992     1.0  0.57403  0.99073  0.74517  1.0000
  H   H1993     1.0  0.64475  0.20374  0.71678  1.0000
  H   H1994     1.0  0.60364  0.06139  0.53457  1.0000
  Fe  Fe127     1.0  0.50016  0.05125  0.61077  1.0000
  H   H1995     1.0  0.51167  0.25176  0.69235  1.0000
  H   H1996     1.0  0.56269  0.99935  0.71441  1.0000
  H   H1997     1.0  0.50974  0.18595  0.51222  1.0000
  C   C1117     1.0  0.58735  0.07570  0.51578  1.0000
  H   H1998     1.0  0.58440  0.02772  0.55308  1.0000
  H   H1999     1.0  0.51012  0.35714  0.56557  1.0000
  H   H2000     1.0  0.68477  0.05488  0.68947  1.0000
  C   C1118     1.0  0.53051  0.19117  0.50592  1.0000
  H   H2001     1.0  0.72952  0.32495  0.65113  1.0000
  S   S250      1.0  0.73714  0.09970  0.58937  1.0000
  H   H2002     1.0  0.72119  0.29477  0.68393  1.0000
  H   H2003     1.0  0.50078  0.30228  0.66670  1.0000
  H   H2004     1.0  0.73830  0.86690  0.70423  1.0000
  H   H2005     1.0  0.52442  0.27479  0.65963  1.0000
  H   H2006     1.0  0.51953  0.22947  0.64846  1.0000
  H   H2007     1.0  0.51568  0.28604  0.63771  1.0000
  H   H2008     1.0  0.73803  0.93544  0.72118  1.0000
  H   H2009     1.0  0.72820  0.25861  0.71672  1.0000
  H   H2010     1.0  0.74150  0.46475  0.54129  1.0000
  C   C1119     1.0  0.58849  0.99698  0.72043  1.0000
  H   H2011     1.0  0.66416  0.06649  0.71104  1.0000
  C   C1120     1.0  0.53251  0.25485  0.59877  1.0000
  H   H2012     1.0  0.58761  0.03941  0.51543  1.0000
  C   C1121     1.0  0.66802  0.12974  0.72048  1.0000
  H   H2013     1.0  0.61692  0.10178  0.51467  1.0000
  C   C1122     1.0  0.68161  0.08814  0.69422  1.0000
  H   H2014     1.0  0.52282  0.94115  0.69875  1.0000
  H   H2015     1.0  0.59490  0.11607  0.53586  1.0000
  H   H2016     1.0  0.66444  0.15113  0.70728  1.0000
  H   H2017     1.0  0.65315  0.26890  0.74275  1.0000
  H   H2018     1.0  0.69053  0.10364  0.69631  1.0000
  C   C1123     1.0  0.73532  0.16517  0.49845  1.0000
  C   C1124     1.0  0.73103  0.29926  0.68819  1.0000
  H   H2019     1.0  0.73666  0.02270  0.56723  1.0000
  S   S251      1.0  0.73563  0.12472  0.63533  1.0000
  C   C1125     1.0  0.56130  0.89515  0.74048  1.0000
  H   H2020     1.0  0.56543  0.85741  0.71478  1.0000
  H   H2021     1.0  0.53029  0.08021  0.73985  1.0000
  C   C1126     1.0  0.73027  0.29288  0.71081  1.0000
  H   H2022     1.0  0.57124  0.95034  0.70677  1.0000
  C   C1127     1.0  0.53009  0.96337  0.69122  1.0000
  C   C1128     1.0  0.65194  0.21408  0.72579  1.0000
  N   N61       1.0  0.50792  0.29194  0.55813  1.0000
  H   H2023     1.0  0.51290  0.17848  0.71459  1.0000
  H   H2024     1.0  0.59314  0.97840  0.70816  1.0000
  H   H2025     1.0  0.58415  0.03022  0.71419  1.0000
  H   H2026     1.0  0.73736  0.31936  0.55768  1.0000
  H   H2027     1.0  0.71965  0.24826  0.66082  1.0000
  H   H2028     1.0  0.66088  0.22086  0.71579  1.0000
  H   H2029     1.0  0.67640  0.10871  0.68222  1.0000
  H   H2030     1.0  0.73394  0.31273  0.53303  1.0000
  C   C1129     1.0  0.63197  0.13343  0.74294  1.0000
  H   H2031     1.0  0.72537  0.23794  0.63597  1.0000
  H   H2032     1.0  0.57440  0.16156  0.51378  1.0000
  H   H2033     1.0  0.73816  0.99592  0.59129  1.0000
  C   C1130     1.0  0.65555  0.17777  0.74301  1.0000
  H   H2034     1.0  0.74309  0.86910  0.73908  1.0000
  C   C1131     1.0  0.74438  0.96461  0.51354  1.0000
  S   S252      1.0  0.73631  0.99578  0.63157  1.0000
  C   C1132     1.0  0.73492  0.14673  0.52033  1.0000
  H   H2035     1.0  0.50769  0.25650  0.58795  1.0000
  H   H2036     1.0  0.70630  0.31727  0.64791  1.0000
  C   C1133     1.0  0.57064  0.86582  0.72697  1.0000
  H   H2037     1.0  0.63671  0.25355  0.74245  1.0000
  H   H2038     1.0  0.72701  0.16550  0.52918  1.0000
  H   H2039     1.0  0.72218  0.31615  0.71684  1.0000
  C   C1134     1.0  0.50389  0.18129  0.72498  1.0000
  H   H2040     1.0  0.49852  0.15189  0.72496  1.0000
  H   H2041     1.0  0.74269  0.36058  0.50729  1.0000
  C   C1135     1.0  0.50441  0.23753  0.68466  1.0000
  C   C1136     1.0  0.52451  0.32360  0.50451  1.0000
  C   C1137     1.0  0.64526  0.11513  0.73231  1.0000
  H   H2042     1.0  0.67847  0.06249  0.72465  1.0000
  C   C1138     1.0  0.70127  0.06243  0.50468  1.0000
  H   H2043     1.0  0.72867  0.00121  0.69733  1.0000
  H   H2044     1.0  0.63976  0.08342  0.50065  1.0000
  H   H2045     1.0  0.60802  0.04027  0.49656  1.0000
  H   H2046     1.0  0.49602  0.25714  0.65595  1.0000
  N   N62       1.0  0.65765  0.13081  0.73786  1.0000
  C   C1139     1.0  0.56676  0.96542  0.72017  1.0000
  H   H2047     1.0  0.74282  0.38332  0.53814  1.0000
  H   H2048     1.0  0.73818  0.23113  0.54016  1.0000
  H   H2049     1.0  0.74231  0.23650  0.56468  1.0000
  H   H2050     1.0  0.72602  0.93244  0.58236  1.0000
  C   C1140     1.0  0.58100  0.22276  0.49954  1.0000
  C   C1141     1.0  0.73860  0.00233  0.68929  1.0000
  C   C1142     1.0  0.62077  0.10714  0.73980  1.0000
  H   H2051     1.0  0.73994  0.80348  0.68486  1.0000
  H   H2052     1.0  0.73588  0.94459  0.51648  1.0000
  C   C1143     1.0  0.57572  0.82230  0.73872  1.0000
  H   H2053     1.0  0.73837  0.19911  0.49714  1.0000
  C   C1144     1.0  0.73642  0.25210  0.55245  1.0000
  C   C1145     1.0  0.73795  0.98927  0.57582  1.0000
  C   C1146     1.0  0.50347  0.26695  0.66450  1.0000
  C   C1147     1.0  0.74169  0.26531  0.67921  1.0000
  H   H2054     1.0  0.62927  0.16849  0.73706  1.0000
  C   C1148     1.0  0.61867  0.09675  0.49887  1.0000
  H   H2055     1.0  0.54591  0.00057  0.74035  1.0000
  H   H2056     1.0  0.50726  0.35007  0.52125  1.0000
  H   H2057     1.0  0.74271  0.92295  0.55065  1.0000
  H   H2058     1.0  0.71483  0.18943  0.49886  1.0000
  H   H2059     1.0  0.74369  0.02809  0.69453  1.0000
  H   H2060     1.0  0.58283  0.93929  0.73910  1.0000
  N   N63       1.0  0.59335  0.09740  0.49638  1.0000
  C   C1149     1.0  0.57966  0.17357  0.49945  1.0000
  H   H2061     1.0  0.57108  0.24124  0.50160  1.0000
  H   H2062     1.0  0.56742  0.80323  0.74518  1.0000
  H   H2063     1.0  0.49543  0.31671  0.59468  1.0000
  C   C1150     1.0  0.49496  0.22462  0.71918  1.0000
  C   C1151     1.0  0.50811  0.17957  0.74585  1.0000
  C   C1152     1.0  0.59331  0.14678  0.49633  1.0000
  H   H2064     1.0  0.74446  0.14940  0.52609  1.0000
  C   C1153     1.0  0.63164  0.06728  0.49605  1.0000
  Fe  Fe128     1.0  0.55427  0.68726  0.95304  1.0000
  S   S253      1.0  0.55660  0.62552  0.93797  1.0000
  H   H2065     1.0  0.55511  0.96794  0.75828  1.0000
  Fe  Fe129     1.0  0.55828  0.74640  0.91208  1.0000
  S   S254      1.0  0.56117  0.68692  0.89510  1.0000
  S   S255      1.0  0.55977  0.81979  0.89939  1.0000
  Fe  Fe130     1.0  0.54393  0.66318  0.91537  1.0000
  S   S256      1.0  0.52488  0.64030  0.90762  1.0000
  Fe  Fe131     1.0  0.57368  0.65439  0.91943  1.0000
  S   S257      1.0  0.59262  0.60725  0.91724  1.0000
  S   S258      1.0  0.54046  0.72412  0.93151  1.0000
  S   S259      1.0  0.57187  0.71472  0.93517  1.0000
  H   H2066     1.0  0.54289  0.57336  0.88830  1.0000
  Fe  Fe132     1.0  0.55613  0.02367  0.80708  1.0000
  S   S260      1.0  0.56249  0.07830  0.82201  1.0000
  S   S261      1.0  0.55096  0.95309  0.81959  1.0000
  Fe  Fe133     1.0  0.55914  0.07751  0.76551  1.0000
  S   S262      1.0  0.56628  0.13432  0.77762  1.0000
  C   C1154     1.0  0.66315  0.10049  0.75499  1.0000
  Fe  Fe134     1.0  0.57847  0.08454  0.79683  1.0000
  S   S263      1.0  0.59945  0.08836  0.80460  1.0000
  Fe  Fe135     1.0  0.54985  0.12558  0.80180  1.0000
  S   S264      1.0  0.53922  0.19441  0.80497  1.0000
  S   S265      1.0  0.57281  0.02740  0.78290  1.0000
  S   S266      1.0  0.54208  0.07102  0.78861  1.0000
  Fe  Fe136     1.0  0.66953  0.60626  0.92426  1.0000
  S   S267      1.0  0.67289  0.53895  0.94177  1.0000
  S   S268      1.0  0.65078  0.65443  0.92315  1.0000
  Fe  Fe137     1.0  0.69824  0.60401  0.90738  1.0000
  S   S269      1.0  0.70328  0.53582  0.92320  1.0000
  S   S270      1.0  0.71368  0.63919  0.88689  1.0000
  Fe  Fe138     1.0  0.68436  0.51810  0.91344  1.0000
  S   S271      1.0  0.68005  0.45327  0.90160  1.0000
  Fe  Fe139     1.0  0.69159  0.56275  0.94992  1.0000
  H   H2067     1.0  0.53555  0.39851  0.89214  1.0000
  S   S272      1.0  0.68014  0.58508  0.89601  1.0000
  S   S273      1.0  0.68738  0.63116  0.93401  1.0000
  Fe  Fe140     1.0  0.66097  0.23191  0.79509  1.0000
  S   S274      1.0  0.67399  0.28513  0.78174  1.0000
  S   S275      1.0  0.63976  0.23618  0.78668  1.0000
  Fe  Fe141     1.0  0.68345  0.17788  0.81574  1.0000
  S   S276      1.0  0.69779  0.22699  0.80403  1.0000
  S   S277      1.0  0.68789  0.10801  0.83097  1.0000
  Fe  Fe142     1.0  0.68136  0.27965  0.81234  1.0000
  S   S278      1.0  0.68578  0.34291  0.82543  1.0000
  Fe  Fe143     1.0  0.68939  0.22887  0.77456  1.0000
  H   H2068     1.0  0.74100  0.76259  0.86993  1.0000
  S   S279      1.0  0.66742  0.22942  0.82578  1.0000
  S   S280      1.0  0.67595  0.17709  0.78618  1.0000
  C   C1155     1.0  0.68218  0.42258  0.88033  1.0000
  C   C1156     1.0  0.67670  0.38191  0.88162  1.0000
  C   C1157     1.0  0.67771  0.35716  0.86523  1.0000
  C   C1158     1.0  0.68434  0.37227  0.84706  1.0000
  C   C1159     1.0  0.68994  0.41269  0.84584  1.0000
  C   C1160     1.0  0.68884  0.43763  0.86220  1.0000
  H   H2069     1.0  0.67167  0.36920  0.89550  1.0000
  H   H2070     1.0  0.67339  0.32621  0.86668  1.0000
  H   H2071     1.0  0.69514  0.42502  0.83203  1.0000
  H   H2072     1.0  0.69320  0.46852  0.86074  1.0000
  C   C1161     1.0  0.72828  0.05463  0.85200  1.0000
  C   C1162     1.0  0.72457  0.10052  0.84923  1.0000
  C   C1163     1.0  0.71217  0.11731  0.84297  1.0000
  C   C1164     1.0  0.70339  0.08829  0.83942  1.0000
  C   C1165     1.0  0.70698  0.04237  0.84266  1.0000
  C   C1166     1.0  0.71940  0.02554  0.84891  1.0000
  H   H2073     1.0  0.70934  0.15267  0.84094  1.0000
  H   H2074     1.0  0.70017  0.01974  0.84016  1.0000
  H   H2075     1.0  0.72214  0.99013  0.85111  1.0000
  C   C1167     1.0  0.72695  0.77381  0.89483  1.0000
  C   C1168     1.0  0.73318  0.74936  0.87996  1.0000
  C   C1169     1.0  0.72908  0.70798  0.87781  1.0000
  C   C1170     1.0  0.71888  0.69042  0.89064  1.0000
  C   C1171     1.0  0.71284  0.71447  0.90575  1.0000
  C   C1172     1.0  0.71678  0.75614  0.90770  1.0000
  H   H2076     1.0  0.51949  0.87855  0.85101  1.0000
  H   H2077     1.0  0.73382  0.68954  0.86608  1.0000
  H   H2078     1.0  0.70494  0.70144  0.91561  1.0000
  C   C1173     1.0  0.61048  0.12998  0.79921  1.0000
  C   C1174     1.0  0.62197  0.12507  0.80914  1.0000
  C   C1175     1.0  0.63100  0.15716  0.80551  1.0000
  C   C1176     1.0  0.62871  0.19460  0.79175  1.0000
  C   C1177     1.0  0.61723  0.19953  0.78175  1.0000
  C   C1178     1.0  0.60821  0.16728  0.78535  1.0000
  H   H2079     1.0  0.62386  0.09630  0.81985  1.0000
  H   H2080     1.0  0.63972  0.15298  0.81344  1.0000
  H   H2081     1.0  0.61535  0.22831  0.77106  1.0000
  H   H2082     1.0  0.59958  0.17102  0.77733  1.0000
  C   C1179     1.0  0.51108  0.25186  0.85407  1.0000
  C   C1180     1.0  0.51589  0.27923  0.83760  1.0000
  C   C1181     1.0  0.52479  0.26110  0.82300  1.0000
  C   C1182     1.0  0.52898  0.21548  0.82473  1.0000
  C   C1183     1.0  0.52452  0.18823  0.84150  1.0000
  C   C1184     1.0  0.51554  0.20639  0.85607  1.0000
  H   H2083     1.0  0.51271  0.31433  0.83609  1.0000
  H   H2084     1.0  0.52828  0.28244  0.81012  1.0000
  H   H2085     1.0  0.52772  0.15308  0.84301  1.0000
  H   H2086     1.0  0.51191  0.18505  0.86886  1.0000
  C   C1185     1.0  0.55822  0.85566  0.87657  1.0000
  C   C1186     1.0  0.55540  0.84056  0.85917  1.0000
  C   C1187     1.0  0.55330  0.87071  0.84198  1.0000
  C   C1188     1.0  0.55439  0.91637  0.84159  1.0000
  C   C1189     1.0  0.55754  0.93133  0.85883  1.0000
  C   C1190     1.0  0.55932  0.90128  0.87618  1.0000
  H   H2087     1.0  0.55484  0.80565  0.85896  1.0000
  H   H2088     1.0  0.55093  0.85850  0.82878  1.0000
  H   H2089     1.0  0.55838  0.96620  0.85894  1.0000
  H   H2090     1.0  0.56151  0.91361  0.88946  1.0000
  C   C1191     1.0  0.60856  0.62140  0.91976  1.0000
  C   C1192     1.0  0.61152  0.66537  0.91709  1.0000
  C   C1193     1.0  0.62447  0.67494  0.91833  1.0000
  C   C1194     1.0  0.63459  0.64074  0.92220  1.0000
  C   C1195     1.0  0.63158  0.59689  0.92533  1.0000
  C   C1196     1.0  0.61863  0.58730  0.92408  1.0000
  H   H2091     1.0  0.60387  0.69196  0.91376  1.0000
  H   H2092     1.0  0.62668  0.70904  0.91603  1.0000
  H   H2093     1.0  0.63923  0.57051  0.92885  1.0000
  H   H2094     1.0  0.61637  0.55328  0.92649  1.0000
  C   C1197     1.0  0.52244  0.59643  0.89416  1.0000
  C   C1198     1.0  0.50951  0.58940  0.89145  1.0000
  C   C1199     1.0  0.50701  0.55463  0.88118  1.0000
  C   C1200     1.0  0.51742  0.52621  0.87359  1.0000
  C   C1201     1.0  0.53037  0.53352  0.87610  1.0000
  C   C1202     1.0  0.53289  0.56829  0.88642  1.0000
  H   H2095     1.0  0.72882  0.24621  0.80378  1.0000
  H   H2096     1.0  0.72842  0.04502  0.93614  1.0000
  H   H2097     1.0  0.53850  0.51205  0.87008  1.0000
  C   C1203     1.0  0.51450  0.42833  0.93299  1.0000
  S   S281      1.0  0.70426  0.21570  0.74742  1.0000
  C   C1204     1.0  0.50353  0.17768  0.80230  1.0000
  C   C1205     1.0  0.59686  0.59390  0.97831  1.0000
  C   C1206     1.0  0.59687  0.67427  0.97168  1.0000
  C   C1207     1.0  0.54861  0.96565  0.74650  1.0000
  H   H2098     1.0  0.54393  0.53241  0.95352  1.0000
  C   C1208     1.0  0.58243  0.59156  0.97411  1.0000
  H   H2099     1.0  0.49652  0.90999  0.84544  1.0000
  H   H2100     1.0  0.73164  0.68039  0.93957  1.0000
  H   H2101     1.0  0.49654  0.15520  0.79896  1.0000
  H   H2102     1.0  0.52024  0.96290  0.77960  1.0000
  C   C1209     1.0  0.52698  0.49909  0.94971  1.0000
  C   C1210     1.0  0.59974  0.75420  0.95818  1.0000
  C   C1211     1.0  0.73225  0.21968  0.81536  1.0000
  H   H2103     1.0  0.53745  0.37925  0.91787  1.0000
  H   H2104     1.0  0.51338  0.82766  0.92392  1.0000
  H   H2105     1.0  0.51305  0.17049  0.79342  1.0000
  H   H2106     1.0  0.60280  0.59104  0.96388  1.0000
  H   H2107     1.0  0.60167  0.66730  0.95692  1.0000
  H   H2108     1.0  0.58620  0.68030  0.96962  1.0000
  C   C1212     1.0  0.51446  0.50740  0.93838  1.0000
  H   H2109     1.0  0.49543  0.48764  0.96674  1.0000
  H   H2110     1.0  0.49937  0.17957  0.75685  1.0000
  H   H2111     1.0  0.69175  0.68672  0.96826  1.0000
  H   H2112     1.0  0.57946  0.61823  0.96233  1.0000
  C   C1213     1.0  0.49818  0.22613  0.79712  1.0000
  H   H2113     1.0  0.49940  0.49633  0.91152  1.0000
  H   H2114     1.0  0.60597  0.74323  0.94507  1.0000
  C   C1214     1.0  0.73847  0.64442  0.98737  1.0000
  H   H2115     1.0  0.52794  0.56857  0.98488  1.0000
  H   H2116     1.0  0.52956  0.56957  0.94752  1.0000
  C   C1215     1.0  0.50264  0.37107  0.79174  1.0000
  H   H2117     1.0  0.52642  0.01059  0.76484  1.0000
  H   H2118     1.0  0.53325  0.46872  0.94607  1.0000
  H   H2119     1.0  0.70594  0.11895  0.79305  1.0000
  H   H2120     1.0  0.70602  0.05448  0.76215  1.0000
  H   H2121     1.0  0.71372  0.06288  0.79480  1.0000
  S   S282      1.0  0.49931  0.27305  0.87216  1.0000
  C   C1216     1.0  0.53020  0.39227  0.90704  1.0000
  H   H2122     1.0  0.71258  0.75248  0.96320  1.0000
  N   N64       1.0  0.67498  0.76755  0.87988  1.0000
  C   C1217     1.0  0.66390  0.80364  0.87599  1.0000
  C   C1218     1.0  0.68774  0.78816  0.87761  1.0000
  C   C1219     1.0  0.67502  0.73444  0.86531  1.0000
  C   C1220     1.0  0.67317  0.74373  0.90057  1.0000
  C   C1221     1.0  0.67204  0.77325  0.91763  1.0000
  C   C1222     1.0  0.64979  0.79015  0.88196  1.0000
  C   C1223     1.0  0.68694  0.69839  0.86481  1.0000
  C   C1224     1.0  0.69171  0.81173  0.85674  1.0000
  C   C1225     1.0  0.70528  0.82796  0.85587  1.0000
  C   C1226     1.0  0.66641  0.74913  0.93708  1.0000
  C   C1227     1.0  0.63941  0.82818  0.87602  1.0000
  H   H2123     1.0  0.67278  0.11061  0.75784  1.0000
  H   H2124     1.0  0.66437  0.81635  0.85995  1.0000
  H   H2125     1.0  0.66499  0.83308  0.88344  1.0000
  H   H2126     1.0  0.68738  0.81339  0.88805  1.0000
  H   H2127     1.0  0.69594  0.76301  0.88193  1.0000
  H   H2128     1.0  0.67434  0.75147  0.85000  1.0000
  H   H2129     1.0  0.66611  0.71642  0.86859  1.0000
  H   H2130     1.0  0.66450  0.72457  0.90217  1.0000
  H   H2131     1.0  0.68161  0.71827  0.90347  1.0000
  H   H2132     1.0  0.66559  0.80448  0.91463  1.0000
  H   H2133     1.0  0.68194  0.78188  0.91984  1.0000
  H   H2134     1.0  0.64808  0.76127  0.87468  1.0000
  H   H2135     1.0  0.64810  0.78138  0.89822  1.0000
  H   H2136     1.0  0.68743  0.67815  0.87940  1.0000
  H   H2137     1.0  0.69634  0.71318  0.86078  1.0000
  H   H2138     1.0  0.69214  0.78920  0.84520  1.0000
  H   H2139     1.0  0.68457  0.84102  0.85301  1.0000
  H   H2140     1.0  0.70765  0.84684  0.84118  1.0000
  H   H2141     1.0  0.70562  0.84996  0.86748  1.0000
  H   H2142     1.0  0.71292  0.79936  0.85798  1.0000
  H   H2143     1.0  0.66625  0.77011  0.94919  1.0000
  H   H2144     1.0  0.65617  0.74221  0.93588  1.0000
  H   H2145     1.0  0.67247  0.71734  0.94097  1.0000
  H   H2146     1.0  0.62944  0.81777  0.88062  1.0000
  H   H2147     1.0  0.64048  0.85766  0.88341  1.0000
  N   N65       1.0  0.50634  0.46889  0.93973  1.0000
  H   H2148     1.0  0.52680  0.70888  0.99202  1.0000
  H   H2149     1.0  0.69274  0.06932  0.78023  1.0000
  C   C1228     1.0  0.53603  0.94680  0.75721  1.0000
  C   C1229     1.0  0.71797  0.68563  0.97752  1.0000
  H   H2150     1.0  0.71151  0.70910  0.94797  1.0000
  H   H2151     1.0  0.51226  0.87910  0.90775  1.0000
  H   H2152     1.0  0.50853  0.53654  0.94410  1.0000
  H   H2153     1.0  0.51361  0.20813  0.74704  1.0000
  H   H2154     1.0  0.50692  0.95191  0.84814  1.0000
  H   H2155     1.0  0.52988  0.45955  0.91260  1.0000
  H   H2156     1.0  0.50805  0.40214  0.93183  1.0000
  H   H2157     1.0  0.53541  0.88885  0.91305  1.0000
  H   H2158     1.0  0.50595  0.24692  0.79913  1.0000
  H   H2159     1.0  0.72056  0.15043  0.80569  1.0000
  H   H2160     1.0  0.50912  0.44789  0.97057  1.0000
  H   H2161     1.0  0.72755  0.08472  0.76188  1.0000
  H   H2162     1.0  0.51739  0.51921  0.92262  1.0000
  C   C1230     1.0  0.70145  0.08118  0.77098  1.0000
  H   H2163     1.0  0.72758  0.07990  0.91279  1.0000
  H   H2164     1.0  0.72409  0.18730  0.78433  1.0000
  H   H2165     1.0  0.49667  0.39979  0.79774  1.0000
  H   H2166     1.0  0.53618  0.83778  0.92971  1.0000
  H   H2167     1.0  0.49823  0.38706  0.96310  1.0000
  C   C1231     1.0  0.73506  0.65698  0.95224  1.0000
  S   S283      1.0  0.73113  0.82704  0.89768  1.0000
  H   H2168     1.0  0.52478  0.88446  0.93577  1.0000
  H   H2169     1.0  0.50136  0.61111  0.89726  1.0000
  H   H2170     1.0  0.73834  0.81238  0.96059  1.0000
  C   C1232     1.0  0.71117  0.09289  0.78441  1.0000
  H   H2171     1.0  0.51598  0.44808  0.90099  1.0000
  H   H2172     1.0  0.49851  0.69410  0.90926  1.0000
  H   H2173     1.0  0.71184  0.77503  0.91914  1.0000
  H   H2174     1.0  0.61119  0.71602  0.97984  1.0000
  C   C1233     1.0  0.68587  0.66685  0.84961  1.0000
  S   S284      1.0  0.70166  0.55278  0.97941  1.0000
  H   H2175     1.0  0.50040  0.83485  0.86443  1.0000
  H   H2176     1.0  0.50961  0.35542  0.80260  1.0000
  C   C1234     1.0  0.50214  0.92302  0.85602  1.0000
  C   C1235     1.0  0.72352  0.10963  0.77202  1.0000
  C   C1236     1.0  0.60089  0.71894  0.97609  1.0000
  H   H2177     1.0  0.66513  0.06586  0.75137  1.0000
  C   C1237     1.0  0.52925  0.97680  0.77224  1.0000
  C   C1238     1.0  0.49970  0.74864  0.88539  1.0000
  N   N66       1.0  0.64017  0.50525  0.87952  1.0000
  C   C1239     1.0  0.63772  0.55503  0.87536  1.0000
  C   C1240     1.0  0.62793  0.48569  0.87604  1.0000
  C   C1241     1.0  0.64351  0.49332  0.90063  1.0000
  C   C1242     1.0  0.65151  0.48700  0.86602  1.0000
  C   C1243     1.0  0.65078  0.50189  0.84354  1.0000
  C   C1244     1.0  0.64957  0.58097  0.87686  1.0000
  C   C1245     1.0  0.64445  0.44329  0.90854  1.0000
  C   C1246     1.0  0.61556  0.49635  0.89044  1.0000
  C   C1247     1.0  0.60403  0.47314  0.88601  1.0000
  C   C1248     1.0  0.66258  0.48073  0.83136  1.0000
  C   C1249     1.0  0.64629  0.63049  0.87059  1.0000
  C   C1250     1.0  0.64750  0.43578  0.93019  1.0000
  H   H2178     1.0  0.62976  0.56810  0.88600  1.0000
  H   H2179     1.0  0.63397  0.56500  0.86058  1.0000
  H   H2180     1.0  0.62502  0.49779  0.86092  1.0000
  H   H2181     1.0  0.62988  0.44903  0.87634  1.0000
  H   H2182     1.0  0.63632  0.51125  0.91082  1.0000
  H   H2183     1.0  0.65319  0.50454  0.90246  1.0000
  H   H2184     1.0  0.66105  0.49525  0.87015  1.0000
  H   H2185     1.0  0.65238  0.45011  0.86796  1.0000
  H   H2186     1.0  0.65078  0.53832  0.84011  1.0000
  H   H2187     1.0  0.64181  0.49197  0.83839  1.0000
  H   H2188     1.0  0.65210  0.57711  0.89240  1.0000
  H   H2189     1.0  0.65837  0.56941  0.86736  1.0000
  H   H2190     1.0  0.65240  0.42446  0.89990  1.0000
  H   H2191     1.0  0.63513  0.42902  0.90774  1.0000
  H   H2192     1.0  0.61741  0.48535  0.90608  1.0000
  H   H2193     1.0  0.61235  0.53245  0.88897  1.0000
  H   H2194     1.0  0.60144  0.48406  0.87064  1.0000
  H   H2195     1.0  0.60648  0.43659  0.88799  1.0000
  H   H2196     1.0  0.59530  0.48176  0.89636  1.0000
  H   H2197     1.0  0.66167  0.49092  0.81534  1.0000
  H   H2198     1.0  0.67183  0.49166  0.83514  1.0000
  H   H2199     1.0  0.66311  0.44397  0.83408  1.0000
  H   H2200     1.0  0.64486  0.63671  0.85456  1.0000
  H   H2201     1.0  0.63724  0.64359  0.87922  1.0000
  H   H2202     1.0  0.65450  0.64860  0.87346  1.0000
  H   H2203     1.0  0.65690  0.44884  0.93188  1.0000
  H   H2204     1.0  0.63948  0.45239  0.93966  1.0000
  H   H2205     1.0  0.64849  0.39970  0.93536  1.0000
  N   N67       1.0  0.51588  0.80854  0.88312  1.0000
  H   H2206     1.0  0.72567  0.01369  0.89598  1.0000
  C   C1251     1.0  0.52531  0.82465  0.89533  1.0000
  Fe  Fe144     1.0  0.49673  0.44281  0.86532  1.0000
  C   C1252     1.0  0.52363  0.78841  0.86592  1.0000
  C   C1253     1.0  0.53311  0.74632  0.87134  1.0000
  S   S285      1.0  0.74432  0.03527  0.85830  1.0000
  H   H2207     1.0  0.52339  0.36695  0.90645  1.0000
  C   C1254     1.0  0.51898  0.84978  0.91284  1.0000
  C   C1255     1.0  0.52950  0.86618  0.92345  1.0000
  C   C1256     1.0  0.53918  0.72591  0.85280  1.0000
  H   H2208     1.0  0.49913  0.85781  0.88701  1.0000
  H   H2209     1.0  0.53588  0.97895  0.78381  1.0000
  H   H2210     1.0  0.52131  0.41316  0.94420  1.0000
  H   H2211     1.0  0.73076  0.75525  0.94283  1.0000
  H   H2212     1.0  0.53188  0.79636  0.90187  1.0000
  H   H2213     1.0  0.53203  0.84610  0.88582  1.0000
  H   H2214     1.0  0.56399  0.24501  0.77565  1.0000
  H   H2215     1.0  0.74207  0.20542  0.76357  1.0000
  H   H2216     1.0  0.51692  0.78064  0.85538  1.0000
  H   H2217     1.0  0.52985  0.81267  0.85717  1.0000
  H   H2218     1.0  0.52807  0.72049  0.88103  1.0000
  H   H2219     1.0  0.54124  0.75475  0.87911  1.0000
  H   H2220     1.0  0.51822  0.90293  0.87372  1.0000
  H   H2221     1.0  0.50592  0.72771  0.87522  1.0000
  H   H2222     1.0  0.69450  0.64131  0.84981  1.0000
  H   H2223     1.0  0.57050  0.54664  0.96390  1.0000
  H   H2224     1.0  0.67024  0.08359  0.79443  1.0000
  N   N68       1.0  0.59948  0.63473  0.98695  1.0000
  C   C1257     1.0  0.73111  0.04660  0.91996  1.0000
  C   C1258     1.0  0.62417  0.62249  0.97423  1.0000
  H   H2225     1.0  0.71627  0.69914  0.99200  1.0000
  H   H2226     1.0  0.54604  0.69620  0.85711  1.0000
  H   H2227     1.0  0.53141  0.71534  0.84488  1.0000
  H   H2228     1.0  0.54477  0.74997  0.84270  1.0000
  H   H2229     1.0  0.62360  0.59121  0.96796  1.0000
  H   H2230     1.0  0.64787  0.18131  0.75547  1.0000
  H   H2231     1.0  0.72377  0.21134  0.82609  1.0000
  H   H2232     1.0  0.67684  0.64969  0.85325  1.0000
  H   H2233     1.0  0.59419  0.73151  0.98838  1.0000
  C   C1259     1.0  0.50819  0.77498  0.89615  1.0000
  N   N69       1.0  0.57409  0.23587  0.83314  1.0000
  C   C1260     1.0  0.57435  0.22297  0.81250  1.0000
  C   C1261     1.0  0.57335  0.19465  0.84778  1.0000
  C   C1262     1.0  0.56226  0.26921  0.83647  1.0000
  C   C1263     1.0  0.58633  0.25654  0.83561  1.0000
  C   C1264     1.0  0.59947  0.22685  0.83217  1.0000
  C   C1265     1.0  0.57800  0.25905  0.79525  1.0000
  C   C1266     1.0  0.55959  0.28359  0.85760  1.0000
  C   C1267     1.0  0.56010  0.17409  0.85025  1.0000
  C   C1268     1.0  0.56057  0.13239  0.86522  1.0000
  C   C1269     1.0  0.61128  0.25289  0.83214  1.0000
  C   C1270     1.0  0.57470  0.24754  0.77540  1.0000
  C   C1271     1.0  0.54616  0.31054  0.86019  1.0000
  H   H2234     1.0  0.56461  0.21332  0.81017  1.0000
  H   H2235     1.0  0.58123  0.19256  0.81052  1.0000
  H   H2236     1.0  0.58109  0.16812  0.84338  1.0000
  H   H2237     1.0  0.57563  0.20091  0.86266  1.0000
  H   H2238     1.0  0.55323  0.25684  0.83252  1.0000
  H   H2239     1.0  0.56322  0.30031  0.82633  1.0000
  H   H2240     1.0  0.58680  0.28844  0.82579  1.0000
  H   H2241     1.0  0.58606  0.26545  0.85091  1.0000
  H   H2242     1.0  0.60027  0.21323  0.81787  1.0000
  H   H2243     1.0  0.60027  0.19859  0.84409  1.0000
  H   H2244     1.0  0.57266  0.29188  0.79737  1.0000
  H   H2245     1.0  0.58871  0.26230  0.79411  1.0000
  H   H2246     1.0  0.56715  0.30475  0.86022  1.0000
  H   H2247     1.0  0.55970  0.25490  0.86928  1.0000
  H   H2248     1.0  0.55182  0.19736  0.85567  1.0000
  H   H2249     1.0  0.55783  0.16504  0.83593  1.0000
  H   H2250     1.0  0.56871  0.10749  0.86066  1.0000
  H   H2251     1.0  0.56198  0.14066  0.88013  1.0000
  H   H2252     1.0  0.55116  0.11746  0.86611  1.0000
  H   H2253     1.0  0.61150  0.27948  0.81943  1.0000
  H   H2254     1.0  0.61096  0.26770  0.84619  1.0000
  H   H2255     1.0  0.62052  0.23032  0.83062  1.0000
  H   H2256     1.0  0.72643  0.97898  0.91947  1.0000
  H   H2257     1.0  0.53912  0.54046  0.92863  1.0000
  H   H2258     1.0  0.66460  0.18666  0.74849  1.0000
  H   H2259     1.0  0.53819  0.28977  0.85895  1.0000
  H   H2260     1.0  0.54469  0.32206  0.87508  1.0000
  H   H2261     1.0  0.54543  0.34003  0.84886  1.0000
  S   S286      1.0  0.49584  0.39076  0.89172  1.0000
  C   C1272     1.0  0.52260  0.43553  0.91264  1.0000
  S   S287      1.0  0.51468  0.48211  0.86045  1.0000
  H   H2262     1.0  0.59994  0.56347  0.98828  1.0000
  C   C1273     1.0  0.72870  0.15984  0.79455  1.0000
  C   C1274     1.0  0.58084  0.54722  0.96707  1.0000
  H   H2263     1.0  0.73412  0.74120  0.98096  1.0000
  H   H2264     1.0  0.65477  0.06583  0.80511  1.0000
  H   H2265     1.0  0.73135  0.12320  0.85179  1.0000
  H   H2266     1.0  0.71983  0.13911  0.76214  1.0000
  H   H2267     1.0  0.52426  0.49587  0.96593  1.0000
  C   C1275     1.0  0.72362  0.01299  0.91229  1.0000
  H   H2268     1.0  0.51486  0.75057  0.90501  1.0000
  H   H2269     1.0  0.60305  0.78544  0.96155  1.0000
  H   H2270     1.0  0.53848  0.91363  0.76542  1.0000
  H   H2271     1.0  0.58329  0.51938  0.97865  1.0000
  H   H2272     1.0  0.64028  0.83736  0.85972  1.0000
  H   H2273     1.0  0.51466  0.14863  0.74939  1.0000
  C   C1276     1.0  0.50639  0.84633  0.87501  1.0000
  H   H2274     1.0  0.50018  0.31024  0.78099  1.0000
  C   C1277     1.0  0.69519  0.71926  0.96950  1.0000
  H   H2275     1.0  0.73429  0.88459  0.77300  1.0000
  C   C1278     1.0  0.63805  0.62059  0.98061  1.0000
  C   C1279     1.0  0.70990  0.71841  0.96317  1.0000
  H   H2276     1.0  0.71347  0.65386  0.98004  1.0000
  C   C1280     1.0  0.66151  0.06848  0.79130  1.0000
  H   H2277     1.0  0.73476  0.17743  0.88916  1.0000
  H   H2278     1.0  0.62296  0.65067  0.96240  1.0000
  H   H2279     1.0  0.64549  0.08106  0.77334  1.0000
  N   N70       1.0  0.73247  0.67730  0.97145  1.0000
  H   H2280     1.0  0.71288  0.02127  0.91566  1.0000
  H   H2281     1.0  0.65155  0.13015  0.77982  1.0000
  H   H2282     1.0  0.58937  0.76132  0.95459  1.0000
  H   H2283     1.0  0.63232  0.13265  0.75905  1.0000
  H   H2284     1.0  0.57748  0.27384  0.76343  1.0000
  H   H2285     1.0  0.71771  0.62147  0.95168  1.0000
  H   H2286     1.0  0.66461  0.03459  0.78724  1.0000
  H   H2287     1.0  0.50138  0.79155  0.90733  1.0000
  H   H2288     1.0  0.49705  0.55001  0.87887  1.0000
  C   C1281     1.0  0.51267  0.88749  0.86387  1.0000
  S   S288      1.0  0.55474  0.67365  0.98691  1.0000
  N   N71       1.0  0.73412  0.12105  0.78356  1.0000
  H   H2289     1.0  0.64537  0.61571  0.96771  1.0000
  H   H2290     1.0  0.69300  0.72697  0.98501  1.0000
  H   H2291     1.0  0.72850  0.56411  0.93156  1.0000
  C   C1282     1.0  0.65439  0.09715  0.77484  1.0000
  C   C1283     1.0  0.72857  0.61407  0.95130  1.0000
  H   H2292     1.0  0.49528  0.93451  0.86841  1.0000
  H   H2293     1.0  0.68578  0.68514  0.83449  1.0000
  C   C1284     1.0  0.50096  0.45782  0.96093  1.0000
  C   C1285     1.0  0.61360  0.62795  0.99192  1.0000
  H   H2294     1.0  0.50842  0.38344  0.77791  1.0000
  H   H2295     1.0  0.50521  0.17075  0.81822  1.0000
  H   H2296     1.0  0.73053  0.07676  0.81048  1.0000
  H   H2297     1.0  0.58020  0.21570  0.77196  1.0000
  H   H2298     1.0  0.69812  0.11088  0.76085  1.0000
  H   H2299     1.0  0.58731  0.54252  0.95328  1.0000
  H   H2300     1.0  0.68973  0.74516  0.95969  1.0000
  C   C1286     1.0  0.53537  0.53777  0.94453  1.0000
  C   C1287     1.0  0.73337  0.59434  0.93211  1.0000
  H   H2301     1.0  0.73100  0.61843  0.91907  1.0000
  H   H2302     1.0  0.58138  0.82885  0.75081  1.0000
  H   H2303     1.0  0.63950  0.65207  0.98614  1.0000
  H   H2304     1.0  0.57548  0.59494  0.98748  1.0000
  H   H2305     1.0  0.52878  0.94396  0.74666  1.0000
  H   H2306     1.0  0.73953  0.23260  0.82342  1.0000
  H   H2307     1.0  0.73323  0.61412  0.99021  1.0000
  H   H2308     1.0  0.73089  0.58798  0.96360  1.0000
  H   H2309     1.0  0.74416  0.58491  0.93128  1.0000
  H   H2310     1.0  0.73484  0.02615  0.78321  1.0000
  H   H2311     1.0  0.63990  0.59249  0.99235  1.0000
  H   H2312     1.0  0.49642  0.23034  0.78132  1.0000
  C   C1288     1.0  0.73910  0.71951  0.96992  1.0000
  C   C1289     1.0  0.73860  0.17865  0.80606  1.0000
  C   C1290     1.0  0.73846  0.08250  0.79838  1.0000
  H   H2313     1.0  0.73882  0.99510  0.81755  1.0000
  C   C1291     1.0  0.74026  0.74811  0.94940  1.0000
  H   H2314     1.0  0.74199  0.15378  0.81825  1.0000
  H   H2315     1.0  0.56650  0.89919  0.75353  1.0000
  C   C1292     1.0  0.74292  0.03785  0.78999  1.0000
  H   H2316     1.0  0.74104  0.12812  0.91922  1.0000
  H   H2317     1.0  0.74240  0.08092  0.94824  1.0000
  C   C1293     1.0  0.74373  0.17631  0.75517  1.0000
  H   H2318     1.0  0.55314  0.87515  0.74664  1.0000
  H   H2319     1.0  0.73517  0.17683  0.74656  1.0000
  H   H2320     1.0  0.61140  0.12183  0.74707  1.0000
  H   H2321     1.0  0.62261  0.07218  0.74654  1.0000
  C   C1294     1.0  0.49538  0.48232  0.92639  1.0000
  C   C1295     1.0  0.74483  0.88174  0.77570  1.0000
  H   H2322     1.0  0.74457  0.10159  0.88429  1.0000
  S   S289      1.0  0.97582  0.24401  0.10733  1.0000
  H   H2323     1.0  0.76825  0.90719  0.07792  1.0000
  Fe  Fe145     1.0  0.93736  0.89281  0.05517  1.0000
  S   S290      1.0  0.95106  0.83000  0.05427  1.0000
  S   S291      1.0  0.94366  0.96135  0.05733  1.0000
  Fe  Fe146     1.0  0.91409  0.84828  0.04447  1.0000
  S   S292      1.0  0.92652  0.78294  0.04275  1.0000
  S   S293      1.0  0.89311  0.84447  0.03732  1.0000
  Fe  Fe147     1.0  0.93417  0.79477  0.07094  1.0000
  S   S294      1.0  0.93534  0.74665  0.09993  1.0000
  Fe  Fe148     1.0  0.94203  0.82369  0.02611  1.0000
  H   H2324     1.0  0.77176  0.90145  0.00302  1.0000
  S   S295      1.0  0.92097  0.85884  0.07347  1.0000
  S   S296      1.0  0.92913  0.88774  0.02623  1.0000
  Fe  Fe149     1.0  0.90881  0.44250  0.19511  1.0000
  S   S297      1.0  0.91990  0.43430  0.16554  1.0000
  S   S298      1.0  0.88685  0.43494  0.20344  1.0000
  Fe  Fe150     1.0  0.93270  0.47465  0.21123  1.0000
  S   S299      1.0  0.94496  0.47112  0.18185  1.0000
  C   C1296     1.0  0.76314  0.62245  0.21694  1.0000
  Fe  Fe151     1.0  0.92680  0.50149  0.16702  1.0000
  S   S300      1.0  0.92437  0.54829  0.13784  1.0000
  Fe  Fe152     1.0  0.93713  0.40533  0.18250  1.0000
  S   S301      1.0  0.95138  0.34268  0.18101  1.0000
  S   S302      1.0  0.91513  0.51032  0.19628  1.0000
  S   S303      1.0  0.92548  0.40803  0.21226  1.0000
  Fe  Fe153     1.0  0.82190  0.98072  0.04458  1.0000
  S   S304      1.0  0.80829  0.03896  0.03251  1.0000
  S   S305      1.0  0.84373  0.99034  0.04243  1.0000
  Fe  Fe154     1.0  0.79869  0.93277  0.06450  1.0000
  S   S306      1.0  0.78388  0.98954  0.05489  1.0000
  S   S307      1.0  0.79506  0.86457  0.08047  1.0000
  Fe  Fe155     1.0  0.79564  0.98882  0.02491  1.0000
  Fe  Fe156     1.0  0.79792  0.03482  0.06345  1.0000
  S   S308      1.0  0.79409  0.10225  0.07680  1.0000
  S   S309      1.0  0.81016  0.93118  0.03464  1.0000
  S   S310      1.0  0.81171  0.97729  0.07534  1.0000
  Fe  Fe157     1.0  0.82270  0.33088  0.17438  1.0000
  S   S311      1.0  0.81912  0.26321  0.18994  1.0000
  S   S312      1.0  0.84406  0.34513  0.16475  1.0000
  Fe  Fe158     1.0  0.79326  0.35693  0.17210  1.0000
  S   S313      1.0  0.78818  0.29043  0.18726  1.0000
  S   S314      1.0  0.77466  0.40366  0.16743  1.0000
  Fe  Fe159     1.0  0.80271  0.29921  0.20849  1.0000
  H   H2325     1.0  0.83564  0.00921  0.08269  1.0000
  Fe  Fe160     1.0  0.80481  0.26055  0.16716  1.0000
  S   S315      1.0  0.80437  0.19523  0.15300  1.0000
  S   S316      1.0  0.80719  0.36680  0.19413  1.0000
  S   S317      1.0  0.80902  0.32694  0.15079  1.0000
  C   C1297     1.0  0.75704  0.51114  0.13559  1.0000
  C   C1298     1.0  0.75958  0.47367  0.14943  1.0000
  C   C1299     1.0  0.77220  0.45057  0.14975  1.0000
  C   C1300     1.0  0.78230  0.46491  0.13599  1.0000
  C   C1301     1.0  0.96210  0.37416  0.22853  1.0000
  H   H2326     1.0  0.75808  0.36829  0.14361  1.0000
  C   C1302     1.0  0.79750  0.12697  0.09806  1.0000
  C   C1303     1.0  0.79710  0.17355  0.09682  1.0000
  C   C1304     1.0  0.79937  0.19481  0.11321  1.0000
  C   C1305     1.0  0.80184  0.17004  0.13141  1.0000
  C   C1306     1.0  0.80240  0.12345  0.13258  1.0000
  C   C1307     1.0  0.80032  0.10211  0.11611  1.0000
  H   H2327     1.0  0.79507  0.19336  0.08298  1.0000
  H   H2328     1.0  0.79926  0.23038  0.11176  1.0000
  H   H2329     1.0  0.80431  0.10361  0.14647  1.0000
  H   H2330     1.0  0.80058  0.06640  0.11755  1.0000
  C   C1308     1.0  0.77951  0.84367  0.08320  1.0000
  C   C1309     1.0  0.76788  0.87180  0.08123  1.0000
  C   C1310     1.0  0.76659  0.78012  0.09031  1.0000
  C   C1311     1.0  0.77881  0.79777  0.08776  1.0000
  H   H2331     1.0  0.76617  0.74477  0.09378  1.0000
  H   H2332     1.0  0.78776  0.77576  0.08938  1.0000
  C   C1312     1.0  0.87522  0.40918  0.19249  1.0000
  C   C1313     1.0  0.87890  0.38172  0.17756  1.0000
  C   C1314     1.0  0.86925  0.36219  0.16939  1.0000
  C   C1315     1.0  0.85583  0.36960  0.17605  1.0000
  C   C1316     1.0  0.85215  0.39770  0.19070  1.0000
  C   C1317     1.0  0.86178  0.41709  0.19893  1.0000
  H   H2333     1.0  0.88918  0.37535  0.17240  1.0000
  H   H2334     1.0  0.87221  0.34097  0.15788  1.0000
  H   H2335     1.0  0.84186  0.40531  0.19530  1.0000
  H   H2336     1.0  0.85880  0.43881  0.21024  1.0000
  C   C1318     1.0  0.93224  0.69118  0.11002  1.0000
  C   C1319     1.0  0.92792  0.66127  0.09888  1.0000
  C   C1320     1.0  0.92561  0.61797  0.10765  1.0000
  C   C1321     1.0  0.92762  0.60353  0.12765  1.0000
  C   C1322     1.0  0.93194  0.63340  0.13880  1.0000
  C   C1323     1.0  0.93421  0.67675  0.13005  1.0000
  H   H2337     1.0  0.92653  0.67131  0.08343  1.0000
  H   H2338     1.0  0.92238  0.59526  0.09877  1.0000
  H   H2339     1.0  0.93356  0.62314  0.15416  1.0000
  H   H2340     1.0  0.93758  0.69929  0.13888  1.0000
  C   C1324     1.0  0.87954  0.88557  0.03893  1.0000
  C   C1325     1.0  0.86703  0.87473  0.03603  1.0000
  C   C1326     1.0  0.85591  0.90617  0.03735  1.0000
  C   C1327     1.0  0.85725  0.94895  0.04140  1.0000
  C   C1328     1.0  0.86977  0.95976  0.04435  1.0000
  C   C1329     1.0  0.88086  0.92818  0.04321  1.0000
  H   H2341     1.0  0.86592  0.84182  0.03272  1.0000
  H   H2342     1.0  0.84634  0.89755  0.03496  1.0000
  H   H2343     1.0  0.87090  0.99287  0.04737  1.0000
  H   H2344     1.0  0.89045  0.93696  0.04539  1.0000
  C   C1330     1.0  0.97002  0.27412  0.12747  1.0000
  C   C1331     1.0  0.96038  0.31043  0.12482  1.0000
  C   C1332     1.0  0.95487  0.33300  0.14093  1.0000
  C   C1333     1.0  0.95887  0.31896  0.15985  1.0000
  C   C1334     1.0  0.96867  0.28312  0.16241  1.0000
  C   C1335     1.0  0.97434  0.26118  0.14627  1.0000
  H   H2345     1.0  0.95704  0.32082  0.11029  1.0000
  H   H2346     1.0  0.94734  0.36056  0.13878  1.0000
  H   H2347     1.0  0.97182  0.27203  0.17700  1.0000
  H   H2348     1.0  0.98185  0.23356  0.14845  1.0000
  C   C1336     1.0  0.97099  0.00230  0.09968  1.0000
  C   C1337     1.0  0.96751  0.95869  0.10187  1.0000
  C   C1338     1.0  0.95933  0.94540  0.08890  1.0000
  C   C1339     1.0  0.95442  0.97578  0.07365  1.0000
  C   C1340     1.0  0.95799  0.01935  0.07134  1.0000
  C   C1341     1.0  0.96628  0.03250  0.08420  1.0000
  H   H2349     1.0  0.95669  0.91180  0.09089  1.0000
  H   H2350     1.0  0.95424  0.04313  0.05961  1.0000
  H   H2351     1.0  0.96886  0.06608  0.08237  1.0000
  N   N72       1.0  0.94113  0.18507  0.14812  1.0000
  C   C1342     1.0  0.94349  0.19280  0.12584  1.0000
  C   C1343     1.0  0.93615  0.22830  0.15628  1.0000
  C   C1344     1.0  0.95420  0.16818  0.15610  1.0000
  C   C1345     1.0  0.93186  0.15028  0.15490  1.0000
  C   C1346     1.0  0.91795  0.15950  0.14762  1.0000
  C   C1347     1.0  0.94963  0.15223  0.11533  1.0000
  C   C1348     1.0  0.95475  0.16671  0.17883  1.0000
  C   C1349     1.0  0.92712  0.26263  0.14363  1.0000
  C   C1350     1.0  0.91027  0.11918  0.15331  1.0000
  C   C1351     1.0  0.95097  0.16426  0.09286  1.0000
  C   C1352     1.0  0.96850  0.14934  0.18481  1.0000
  H   H2352     1.0  0.95010  0.21946  0.12157  1.0000
  H   H2353     1.0  0.93432  0.20560  0.11892  1.0000
  H   H2354     1.0  0.93106  0.22173  0.17140  1.0000
  H   H2355     1.0  0.94457  0.24670  0.15813  1.0000
  H   H2356     1.0  0.96195  0.18866  0.14869  1.0000
  H   H2357     1.0  0.95743  0.13387  0.15253  1.0000
  H   H2358     1.0  0.93632  0.11741  0.15078  1.0000
  H   H2359     1.0  0.93031  0.14550  0.17133  1.0000
  H   H2360     1.0  0.91831  0.16734  0.13132  1.0000
  H   H2361     1.0  0.91233  0.18729  0.15478  1.0000
  H   H2362     1.0  0.95965  0.14067  0.11977  1.0000
  H   H2363     1.0  0.94344  0.12440  0.11876  1.0000
  H   H2364     1.0  0.94778  0.14451  0.18716  1.0000
  H   H2365     1.0  0.95238  0.20012  0.18374  1.0000
  H   H2366     1.0  0.93307  0.27804  0.13058  1.0000
  H   H2367     1.0  0.91919  0.24763  0.13805  1.0000
  H   H2368     1.0  0.92833  0.31654  0.16119  1.0000
  H   H2369     1.0  0.90023  0.12695  0.14834  1.0000
  H   H2370     1.0  0.91524  0.09037  0.14611  1.0000
  H   H2371     1.0  0.90937  0.11016  0.16963  1.0000
  H   H2372     1.0  0.94120  0.17531  0.08733  1.0000
  H   H2373     1.0  0.95752  0.19103  0.08860  1.0000
  H   H2374     1.0  0.95534  0.13482  0.08565  1.0000
  H   H2375     1.0  0.97134  0.11523  0.18083  1.0000
  H   H2376     1.0  0.97586  0.17136  0.17738  1.0000
  H   H2377     1.0  0.96865  0.14846  0.20106  1.0000
  N   N73       1.0  0.87772  0.51532  0.14362  1.0000
  C   C1353     1.0  0.89040  0.48518  0.14168  1.0000
  C   C1354     1.0  0.87608  0.53151  0.16375  1.0000
  C   C1355     1.0  0.86659  0.48756  0.14272  1.0000
  C   C1356     1.0  0.87698  0.55385  0.12734  1.0000
  C   C1357     1.0  0.89013  0.57280  0.11900  1.0000
  C   C1358     1.0  0.89229  0.45953  0.12322  1.0000
  C   C1359     1.0  0.85246  0.51000  0.14729  1.0000
  C   C1360     1.0  0.88653  0.56017  0.16837  1.0000
  C   C1361     1.0  0.88766  0.61672  0.10582  1.0000
  C   C1362     1.0  0.90656  0.44058  0.11882  1.0000
  C   C1363     1.0  0.84216  0.48240  0.14197  1.0000
  H   H2378     1.0  0.89106  0.45999  0.15497  1.0000
  H   H2379     1.0  0.89908  0.50358  0.14157  1.0000
  H   H2380     1.0  0.86660  0.55255  0.16586  1.0000
  H   H2381     1.0  0.87565  0.50277  0.17551  1.0000
  H   H2382     1.0  0.86771  0.45662  0.15324  1.0000
  H   H2383     1.0  0.86692  0.47659  0.12778  1.0000
  H   H2384     1.0  0.87275  0.54461  0.11430  1.0000
  H   H2385     1.0  0.87000  0.58164  0.13242  1.0000
  H   H2386     1.0  0.89631  0.54940  0.10989  1.0000
  H   H2387     1.0  0.89609  0.57862  0.13075  1.0000
  H   H2388     1.0  0.88623  0.43119  0.12580  1.0000
  H   H2389     1.0  0.88919  0.48113  0.10986  1.0000
  H   H2390     1.0  0.85105  0.54351  0.13891  1.0000
  H   H2391     1.0  0.85048  0.51286  0.16338  1.0000
  H   H2392     1.0  0.89663  0.54356  0.16598  1.0000
  H   H2393     1.0  0.88571  0.59267  0.15903  1.0000
  H   H2394     1.0  0.88210  0.61240  0.09327  1.0000
  H   H2395     1.0  0.88212  0.64222  0.11453  1.0000
  H   H2396     1.0  0.89723  0.62871  0.09973  1.0000
  H   H2397     1.0  0.90764  0.42560  0.10473  1.0000
  H   H2398     1.0  0.91328  0.46701  0.11732  1.0000
  H   H2399     1.0  0.90946  0.41424  0.13077  1.0000
  H   H2400     1.0  0.83214  0.49844  0.14596  1.0000
  H   H2401     1.0  0.84322  0.47963  0.12584  1.0000
  H   H2402     1.0  0.84317  0.44860  0.15024  1.0000
  S   S318      1.0  0.98732  0.12912  0.13767  1.0000
  H   H2403     1.0  0.75169  0.46226  0.15985  1.0000
  C   C1364     1.0  0.75205  0.94208  0.02702  1.0000
  H   H2404     1.0  0.84161  0.97846  0.12567  1.0000
  H   H2405     1.0  0.91408  0.28659  0.16816  1.0000
  H   H2406     1.0  0.82441  0.16509  0.02608  1.0000
  H   H2407     1.0  0.74852  0.39318  0.10170  1.0000
  C   C1365     1.0  0.79726  0.79987  0.02823  1.0000
  N   N74       1.0  0.87494  0.83668  0.09899  1.0000
  C   C1366     1.0  0.87872  0.79767  0.08736  1.0000
  C   C1367     1.0  0.86213  0.86177  0.09280  1.0000
  C   C1368     1.0  0.88565  0.86739  0.09409  1.0000
  C   C1369     1.0  0.87412  0.82260  0.12101  1.0000
  C   C1370     1.0  0.86413  0.78929  0.12933  1.0000
  C   C1371     1.0  0.89221  0.77069  0.09088  1.0000
  C   C1372     1.0  0.88257  0.91427  0.10101  1.0000
  C   C1373     1.0  0.85167  0.83451  0.08676  1.0000
  C   C1374     1.0  0.83841  0.86252  0.08497  1.0000
  C   C1375     1.0  0.86555  0.77359  0.15123  1.0000
  C   C1376     1.0  0.89481  0.73254  0.07815  1.0000
  C   C1377     1.0  0.89439  0.94096  0.09579  1.0000
  H   H2408     1.0  0.87881  0.80930  0.07127  1.0000
  H   H2409     1.0  0.87127  0.77371  0.09015  1.0000
  H   H2410     1.0  0.85745  0.88187  0.10460  1.0000
  H   H2411     1.0  0.86405  0.88603  0.07946  1.0000
  H   H2412     1.0  0.88833  0.87221  0.07782  1.0000
  H   H2413     1.0  0.89482  0.85234  0.10073  1.0000
  H   H2414     1.0  0.88397  0.80857  0.12566  1.0000
  H   H2415     1.0  0.87137  0.85185  0.12921  1.0000
  H   H2416     1.0  0.86553  0.75941  0.12147  1.0000
  H   H2417     1.0  0.85396  0.80557  0.12827  1.0000
  H   H2418     1.0  0.90042  0.79151  0.08676  1.0000
  H   H2419     1.0  0.89251  0.75628  0.10659  1.0000
  H   H2420     1.0  0.88019  0.91216  0.11725  1.0000
  H   H2421     1.0  0.87419  0.93353  0.09374  1.0000
  H   H2422     1.0  0.85495  0.82319  0.07206  1.0000
  H   H2423     1.0  0.85004  0.80477  0.09736  1.0000
  H   H2424     1.0  0.83403  0.87093  0.09972  1.0000
  H   H2425     1.0  0.83951  0.89363  0.07486  1.0000
  H   H2426     1.0  0.83148  0.84360  0.07893  1.0000
  H   H2427     1.0  0.86399  0.80214  0.16003  1.0000
  H   H2428     1.0  0.85811  0.75045  0.15698  1.0000
  H   H2429     1.0  0.87548  0.75583  0.15323  1.0000
  H   H2430     1.0  0.90445  0.71365  0.08107  1.0000
  H   H2431     1.0  0.88705  0.70967  0.08168  1.0000
  H   H2432     1.0  0.89520  0.74557  0.06218  1.0000
  H   H2433     1.0  0.89201  0.97426  0.10082  1.0000
  H   H2434     1.0  0.90305  0.92401  0.10319  1.0000
  H   H2435     1.0  0.89700  0.94524  0.07953  1.0000
  H   H2436     1.0  0.77344  0.76792  0.03219  1.0000
  H   H2437     1.0  0.97484  0.40771  0.19199  1.0000
  H   H2438     1.0  0.78824  0.53071  0.15909  1.0000
  N   N75       1.0  0.77467  0.83371  0.01671  1.0000
  H   H2439     1.0  0.75567  0.25559  0.07805  1.0000
  C   C1378     1.0  0.79028  0.55025  0.17080  1.0000
  C   C1379     1.0  0.97490  0.38943  0.23434  1.0000
  H   H2440     1.0  0.82664  0.28120  0.24546  1.0000
  H   H2441     1.0  0.79118  0.52790  0.18486  1.0000
  H   H2442     1.0  0.74819  0.44608  0.22470  1.0000
  C   C1380     1.0  0.81315  0.44590  0.22803  1.0000
  H   H2443     1.0  0.79536  0.31359  0.11248  1.0000
  H   H2444     1.0  0.75449  0.72327  0.03480  1.0000
  H   H2445     1.0  0.76705  0.54069  0.19058  1.0000
  C   C1381     1.0  0.95775  0.33485  0.24284  1.0000
  H   H2446     1.0  0.81388  0.13115  0.04268  1.0000
  H   H2447     1.0  0.96956  0.47653  0.23203  1.0000
  H   H2448     1.0  0.74919  0.95883  0.04053  1.0000
  H   H2449     1.0  0.99031  0.42831  0.18910  1.0000
  C   C1382     1.0  0.75573  0.64800  0.17482  1.0000
  H   H2450     1.0  0.79208  0.86817  0.01499  1.0000
  C   C1383     1.0  0.77741  0.81453  0.99723  1.0000
  C   C1384     1.0  0.81055  0.81240  0.03243  1.0000
  H   H2451     1.0  0.78123  0.26951  0.09494  1.0000
  H   H2452     1.0  0.75615  0.28272  0.15814  1.0000
  H   H2453     1.0  0.78107  0.77871  0.99954  1.0000
  H   H2454     1.0  0.82604  0.15286  0.09450  1.0000
  H   H2455     1.0  0.77410  0.39052  0.10278  1.0000
  C   C1385     1.0  0.75494  0.80839  0.08854  1.0000
  C   C1386     1.0  0.75263  0.60161  0.20764  1.0000
  H   H2456     1.0  0.97855  0.09715  0.02738  1.0000
  C   C1387     1.0  0.97781  0.50382  0.20302  1.0000
  H   H2457     1.0  0.75746  0.87354  0.00582  1.0000
  H   H2458     1.0  0.77914  0.60974  0.15909  1.0000
  C   C1388     1.0  0.76770  0.80120  0.03146  1.0000
  H   H2459     1.0  0.95860  0.54144  0.19975  1.0000
  H   H2460     1.0  0.74557  0.63808  0.03667  1.0000
  H   H2461     1.0  0.78507  0.85435  0.03932  1.0000
  N   N76       1.0  0.98147  0.42249  0.21931  1.0000
  C   C1389     1.0  0.76629  0.87744  0.01331  1.0000
  H   H2462     1.0  0.98517  0.33350  0.20754  1.0000
  C   C1390     1.0  0.84283  0.29509  0.22341  1.0000
  H   H2463     1.0  0.75669  0.96588  0.01549  1.0000
  C   C1391     1.0  0.76199  0.26556  0.14621  1.0000
  C   C1392     1.0  0.75348  0.79508  0.02743  1.0000
  H   H2464     1.0  0.74736  0.33676  0.13401  1.0000
  H   H2465     1.0  0.75015  0.63925  0.24290  1.0000
  H   H2466     1.0  0.81747  0.78198  0.03507  1.0000
  H   H2467     1.0  0.91337  0.78092  0.00782  1.0000
  H   H2468     1.0  0.81480  0.83413  0.01966  1.0000
  H   H2469     1.0  0.77013  0.91215  0.03801  1.0000
  C   C1393     1.0  0.99338  0.45530  0.24482  1.0000
  C   C1394     1.0  0.78722  0.84151  0.02470  1.0000
  H   H2470     1.0  0.90196  0.92617  0.01018  1.0000
  H   H2471     1.0  0.83904  0.94428  0.10714  1.0000
  S   S319      1.0  0.95398  0.80410  0.99766  1.0000
  H   H2472     1.0  0.75272  0.79166  0.01170  1.0000
  H   H2473     1.0  0.96726  0.55617  0.21919  1.0000
  H   H2474     1.0  0.83581  0.30967  0.21246  1.0000
  H   H2475     1.0  0.98612  0.90207  0.03283  1.0000
  H   H2476     1.0  0.76113  0.42418  0.24020  1.0000
  H   H2477     1.0  0.90626  0.84815  0.99936  1.0000
  C   C1395     1.0  0.98324  0.93595  0.03704  1.0000
  H   H2478     1.0  0.85655  0.06508  0.06991  1.0000
  C   C1396     1.0  0.77933  0.58794  0.17343  1.0000
  Fe  Fe161     1.0  0.99117  0.08040  0.11515  1.0000
  H   H2479     1.0  0.97436  0.14704  0.05366  1.0000
  H   H2480     1.0  0.75267  0.56697  0.21498  1.0000
  H   H2481     1.0  0.81627  0.35680  0.23708  1.0000
  H   H2482     1.0  0.95400  0.40150  0.22880  1.0000
  H   H2483     1.0  0.86271  0.06167  0.10685  1.0000
  H   H2484     1.0  0.84170  0.05986  0.11604  1.0000
  H   H2485     1.0  0.80948  0.82981  0.04585  1.0000
  H   H2486     1.0  0.82567  0.98201  0.11613  1.0000
  H   H2487     1.0  0.98188  0.35954  0.23802  1.0000
  H   H2488     1.0  0.85031  0.37468  0.23834  1.0000
  N   N77       1.0  0.75424  0.60213  0.18542  1.0000
  H   H2489     1.0  0.76469  0.66084  0.17856  1.0000
  H   H2490     1.0  0.98427  0.01035  0.05130  1.0000
  C   C1397     1.0  0.98088  0.15573  0.04005  1.0000
  H   H2491     1.0  0.76917  0.28331  0.06471  1.0000
  H   H2492     1.0  0.81086  0.48048  0.23164  1.0000
  C   C1398     1.0  0.92073  0.29986  0.15548  1.0000
  H   H2493     1.0  0.91486  0.32501  0.14584  1.0000
  H   H2494     1.0  0.97109  0.93504  0.11380  1.0000
  H   H2495     1.0  0.79206  0.44734  0.13611  1.0000
  H   H2496     1.0  0.80288  0.38807  0.11344  1.0000
  S   S320      1.0  0.98094  0.01757  0.11691  1.0000
  C   C1399     1.0  0.77976  0.50236  0.12209  1.0000
  H   H2497     1.0  0.88509  0.53864  0.20017  1.0000
  C   C1400     1.0  0.96843  0.54628  0.20399  1.0000
  H   H2498     1.0  0.75506  0.25832  0.13596  1.0000
  C   C1401     1.0  0.80076  0.37708  0.09936  1.0000
  H   H2499     1.0  0.76367  0.33825  0.08896  1.0000
  H   H2500     1.0  0.82798  0.17035  0.06051  1.0000
  C   C1402     1.0  0.88434  0.56995  0.18990  1.0000
  H   H2501     1.0  0.78761  0.51349  0.11149  1.0000
  H   H2502     1.0  0.93495  0.73548  0.00260  1.0000
  H   H2503     1.0  0.78077  0.27396  0.12918  1.0000
  C   C1403     1.0  0.76715  0.52575  0.12193  1.0000
  H   H2504     1.0  0.82754  0.20791  0.11909  1.0000
  C   C1404     1.0  0.77772  0.36244  0.11352  1.0000
  H   H2505     1.0  0.92209  0.70297  0.01395  1.0000
  H   H2506     1.0  0.82171  0.09536  0.07543  1.0000
  C   C1405     1.0  0.84733  0.24771  0.21899  1.0000
  H   H2507     1.0  0.97494  0.17761  0.02929  1.0000
  H   H2508     1.0  0.88591  0.06996  0.09593  1.0000
  H   H2509     1.0  0.77650  0.31061  0.14709  1.0000
  C   C1406     1.0  0.75566  0.85423  0.08402  1.0000
  H   H2510     1.0  0.77380  0.20193  0.14427  1.0000
  S   S321      1.0  0.76441  0.57293  0.10446  1.0000
  H   H2511     1.0  0.78919  0.33338  0.08870  1.0000
  H   H2512     1.0  0.97237  0.57360  0.19360  1.0000
  H   H2513     1.0  0.89197  0.59043  0.19291  1.0000
  H   H2514     1.0  0.77289  0.60342  0.21452  1.0000
  S   S322      1.0  0.78314  0.98963  0.99841  1.0000
  H   H2515     1.0  0.79980  0.56412  0.16629  1.0000
  C   C1407     1.0  0.97247  0.46500  0.21731  1.0000
  H   H2516     1.0  0.83533  0.06925  0.06181  1.0000
  H   H2517     1.0  0.84826  0.12662  0.12185  1.0000
  H   H2518     1.0  0.81012  0.36225  0.09211  1.0000
  C   C1408     1.0  0.98682  0.11394  0.03098  1.0000
  C   C1409     1.0  0.74876  0.75361  0.03971  1.0000
  C   C1410     1.0  0.76842  0.22147  0.15575  1.0000
  H   H2519     1.0  0.75699  0.62447  0.01598  1.0000
  H   H2520     1.0  0.76733  0.81046  0.04674  1.0000
  H   H2521     1.0  0.98895  0.48995  0.24141  1.0000
  C   C1411     1.0  0.83694  0.05999  0.10224  1.0000
  H   H2522     1.0  0.87452  0.58841  0.19288  1.0000
  H   H2523     1.0  0.85515  0.23235  0.22851  1.0000
  C   C1412     1.0  0.74976  0.40000  0.11689  1.0000
  H   H2524     1.0  0.86537  0.11929  0.10009  1.0000
  H   H2525     1.0  0.79899  0.78093  0.01531  1.0000
  H   H2526     1.0  0.83090  0.12497  0.12719  1.0000
  C   C1413     1.0  0.83858  0.14269  0.11775  1.0000
  C   C1414     1.0  0.87864  0.07328  0.08478  1.0000
  C   C1415     1.0  0.83648  0.97738  0.11227  1.0000
  C   C1416     1.0  0.86492  0.08729  0.09433  1.0000
  C   C1417     1.0  0.82426  0.13504  0.03708  1.0000
  H   H2527     1.0  0.76365  0.65765  0.21082  1.0000
  H   H2528     1.0  0.87887  0.04076  0.07907  1.0000
  H   H2529     1.0  0.88157  0.09844  0.07237  1.0000
  H   H2530     1.0  0.82847  0.10586  0.02951  1.0000
  H   H2531     1.0  0.78200  0.60747  0.18461  1.0000
  H   H2532     1.0  0.75654  0.87899  0.04359  1.0000
  H   H2533     1.0  0.85155  0.31394  0.22093  1.0000
  C   C1418     1.0  0.79083  0.34275  0.10330  1.0000
  H   H2534     1.0  0.96337  0.36356  0.21358  1.0000
  C   C1419     1.0  0.75556  0.35777  0.12959  1.0000
  H   H2535     1.0  0.99267  0.12482  0.01699  1.0000
  H   H2536     1.0  0.77158  0.22515  0.07370  1.0000
  C   C1420     1.0  0.84063  0.01307  0.09578  1.0000
  H   H2537     1.0  0.84520  0.20861  0.11509  1.0000
  C   C1421     1.0  0.83715  0.19019  0.12300  1.0000
  C   C1422     1.0  0.76578  0.56980  0.17908  1.0000
  H   H2538     1.0  0.83758  0.18974  0.13919  1.0000
  H   H2539     1.0  0.75808  0.48339  0.23321  1.0000
  H   H2540     1.0  0.77539  0.22711  0.16627  1.0000
  H   H2541     1.0  0.74662  0.82405  0.03142  1.0000
  H   H2542     1.0  0.96311  0.45926  0.21184  1.0000
  C   C1423     1.0  0.83231  0.13986  0.05406  1.0000
  H   H2543     1.0  0.98876  0.17439  0.04374  1.0000
  H   H2544     1.0  0.79359  0.77755  0.04126  1.0000
  S   S323      1.0  0.94163  0.49849  0.23708  1.0000
  H   H2545     1.0  0.76382  0.55578  0.16556  1.0000
  H   H2546     1.0  0.84207  0.16835  0.08667  1.0000
  N   N78       1.0  0.76728  0.33135  0.11989  1.0000
  C   C1424     1.0  0.83670  0.14181  0.09558  1.0000
  C   C1425     1.0  0.85462  0.09328  0.07901  1.0000
  H   H2547     1.0  0.83068  0.37408  0.22315  1.0000
  C   C1426     1.0  0.75998  0.62122  0.23933  1.0000
  H   H2548     1.0  0.78006  0.37740  0.12657  1.0000
  H   H2549     1.0  0.85135  0.24820  0.20324  1.0000
  C   C1427     1.0  0.83216  0.09848  0.06989  1.0000
  H   H2550     1.0  0.84243  0.14470  0.04754  1.0000
  C   C1428     1.0  0.77236  0.29554  0.13542  1.0000
  H   H2551     1.0  0.85698  0.12279  0.06855  1.0000
  Fe  Fe162     1.0  0.98980  0.18110  0.11167  1.0000
  H   H2552     1.0  0.79694  0.40646  0.08947  1.0000
  C   C1429     1.0  0.76165  0.90102  0.03193  1.0000
  H   H2553     1.0  0.85139  0.00642  0.09213  1.0000
  C   C1430     1.0  0.75338  0.45222  0.23737  1.0000
  H   H2554     1.0  0.83892  0.22728  0.22150  1.0000
  H   H2555     1.0  0.76745  0.63744  0.24559  1.0000
  H   H2556     1.0  0.82618  0.06373  0.10685  1.0000
  H   H2557     1.0  0.81812  0.44679  0.21277  1.0000
  N   N79       1.0  0.84035  0.09828  0.08704  1.0000
  H   H2558     1.0  0.76077  0.20176  0.16402  1.0000
  H   H2559     1.0  0.80377  0.43102  0.22855  1.0000
  C   C1431     1.0  0.92559  0.72313  0.00013  1.0000
  C   C1432     1.0  0.76644  0.25773  0.07705  1.0000
  H   H2560     1.0  0.76822  0.24085  0.10804  1.0000
  H   H2561     1.0  0.97981  0.93280  0.05307  1.0000
  H   H2562     1.0  0.97876  0.49597  0.18751  1.0000
  H   H2563     1.0  0.98753  0.51091  0.20669  1.0000
  H   H2564     1.0  0.75728  0.64648  0.15855  1.0000
  H   H2565     1.0  0.94818  0.32650  0.23900  1.0000
  H   H2566     1.0  0.98903  0.07629  0.05939  1.0000
  H   H2567     1.0  0.75567  0.73950  0.17762  1.0000
  S   S324      1.0  0.99186  0.13270  0.08904  1.0000
  C   C1433     1.0  0.82206  0.41951  0.24294  1.0000
  C   C1434     1.0  0.98413  0.40602  0.19927  1.0000
  H   H2568     1.0  0.75632  0.42672  0.11585  1.0000
  H   H2569     1.0  0.97492  0.95169  0.02855  1.0000
  H   H2570     1.0  0.98441  0.02666  0.02567  1.0000
  H   H2571     1.0  0.75061  0.73156  0.15385  1.0000
  C   C1435     1.0  0.74645  0.62715  0.02171  1.0000
  C   C1436     1.0  0.99123  0.35844  0.19902  1.0000
  Fe  Fe163     1.0  0.74511  0.61766  0.10500  1.0000
  H   H2572     1.0  0.98452  0.34962  0.17071  1.0000
  H   H2573     1.0  0.83110  0.43656  0.24169  1.0000
  C   C1437     1.0  0.74758  0.73015  0.16998  1.0000
  C   C1438     1.0  0.99088  0.01152  0.03731  1.0000
  H   H2574     1.0  0.74755  0.51469  0.18410  1.0000
  C   C1439     1.0  0.77047  0.26874  0.09657  1.0000
  H   H2575     1.0  0.96509  0.30540  0.24176  1.0000
  H   H2576     1.0  0.74670  0.87634  0.08268  1.0000
  C   C1440     1.0  0.82559  0.37118  0.23826  1.0000
  C   C1441     1.0  0.76303  0.31317  0.10229  1.0000
  S   S325      1.0  0.79877  0.28131  0.24233  1.0000
  H   H2577     1.0  0.74991  0.75420  0.05560  1.0000
  H   H2578     1.0  0.74728  0.52863  0.13539  1.0000
  H   H2579     1.0  0.75245  0.30736  0.10475  1.0000
  C   C1442     1.0  0.83612  0.29590  0.24483  1.0000
  C   C1443     1.0  0.99386  0.34643  0.17786  1.0000
  H   H2580     1.0  0.79084  0.37610  0.24598  1.0000
  C   C1444     1.0  0.99437  0.42968  0.22643  1.0000
  Fe  Fe164     1.0  0.97597  0.41432  0.38871  1.0000
  S   S326      1.0  0.97501  0.46686  0.36204  1.0000
  S   S327      1.0  0.96479  0.43104  0.41834  1.0000
  N   N80       1.0  0.83386  0.34071  0.25241  1.0000
  H   H2581     1.0  0.96683  0.30323  0.28927  1.0000
  H   H2582     1.0  0.75396  0.44502  0.31647  1.0000
  Fe  Fe165     1.0  0.97485  0.41133  0.34316  1.0000
  S   S328      1.0  0.96208  0.39902  0.31888  1.0000
  C   C1445     1.0  0.76251  0.50275  0.30256  1.0000
  S   S329      1.0  0.97408  0.36009  0.37023  1.0000
  H   H2583     1.0  0.79552  0.32116  0.49469  1.0000
  Fe  Fe166     1.0  0.76855  0.38079  0.39497  1.0000
  H   H2584     1.0  0.94384  0.29183  0.28730  1.0000
  S   S330      1.0  0.78122  0.38299  0.42108  1.0000
  Fe  Fe167     1.0  0.76847  0.37240  0.34927  1.0000
  H   H2585     1.0  0.84242  0.27229  0.25453  1.0000
  S   S331      1.0  0.77777  0.38730  0.31690  1.0000
  H   H2586     1.0  0.84802  0.36948  0.28391  1.0000
  H   H2587     1.0  0.75805  0.43455  0.27682  1.0000
  H   H2588     1.0  0.94187  0.41015  0.48542  1.0000
  H   H2589     1.0  0.82724  0.33461  0.31348  1.0000
  S   S332      1.0  0.76409  0.42975  0.36794  1.0000
  S   S333      1.0  0.77462  0.32513  0.37577  1.0000
  H   H2590     1.0  0.76278  0.39738  0.48863  1.0000
  C   C1446     1.0  0.78203  0.41104  0.44246  1.0000
  C   C1447     1.0  0.77411  0.45025  0.44597  1.0000
  C   C1448     1.0  0.77523  0.47110  0.46297  1.0000
  H   H2591     1.0  0.77169  0.48251  0.33003  1.0000
  C   C1449     1.0  0.79202  0.41371  0.47355  1.0000
  C   C1450     1.0  0.79099  0.39306  0.45645  1.0000
  H   H2592     1.0  0.76719  0.46478  0.43547  1.0000
  S   S334      1.0  0.74767  0.36375  0.40119  1.0000
  H   H2593     1.0  0.84253  0.29829  0.28793  1.0000
  H   H2594     1.0  0.79724  0.36295  0.45398  1.0000
  C   C1451     1.0  0.79182  0.31131  0.26249  1.0000
  C   C1452     1.0  0.78927  0.35761  0.26042  1.0000
  C   C1453     1.0  0.78496  0.38005  0.27716  1.0000
  C   C1454     1.0  0.78272  0.35668  0.29620  1.0000
  C   C1455     1.0  0.78496  0.31035  0.29818  1.0000
  C   C1456     1.0  0.78961  0.28800  0.28152  1.0000
  C   C1457     1.0  0.98746  0.29291  0.31295  1.0000
  H   H2595     1.0  0.78340  0.41584  0.27537  1.0000
  H   H2596     1.0  0.78341  0.29172  0.31264  1.0000
  H   H2597     1.0  0.79158  0.25225  0.28344  1.0000
  C   C1458     1.0  0.95891  0.39756  0.44016  1.0000
  C   C1459     1.0  0.95200  0.41845  0.45592  1.0000
  C   C1460     1.0  0.94731  0.39355  0.47361  1.0000
  C   C1461     1.0  0.94945  0.34722  0.47580  1.0000
  C   C1462     1.0  0.95641  0.32635  0.46008  1.0000
  C   C1463     1.0  0.96114  0.35124  0.44242  1.0000
  H   H2598     1.0  0.95016  0.45421  0.45434  1.0000
  H   H2599     1.0  0.95825  0.52312  0.26436  1.0000
  H   H2600     1.0  0.95810  0.29055  0.46153  1.0000
  H   H2601     1.0  0.96642  0.33456  0.43051  1.0000
  H   H2602     1.0  0.99071  0.64070  0.45771  1.0000
  C   C1464     1.0  0.94383  0.42798  0.26761  1.0000
  C   C1465     1.0  0.94846  0.40706  0.28564  1.0000
  C   C1466     1.0  0.95666  0.42758  0.29611  1.0000
  C   C1467     1.0  0.96026  0.46942  0.28813  1.0000
  C   C1468     1.0  0.95555  0.49050  0.27016  1.0000
  H   H2603     1.0  0.98729  0.43931  0.25746  1.0000
  H   H2604     1.0  0.94548  0.37496  0.29169  1.0000
  H   H2605     1.0  0.96650  0.48587  0.29595  1.0000
  Fe  Fe168     1.0  0.75340  0.31091  0.38107  1.0000
  N   N81       1.0  0.98398  0.24578  0.31687  1.0000
  H   H2606     1.0  0.82907  0.27514  0.31918  1.0000
  C   C1469     1.0  0.98041  0.23477  0.33879  1.0000
  H   H2607     1.0  0.97757  0.37532  0.47432  1.0000
  H   H2608     1.0  0.98923  0.29251  0.28043  1.0000
  H   H2609     1.0  0.97210  0.40347  0.24858  1.0000
  H   H2610     1.0  0.75640  0.49191  0.26865  1.0000
  H   H2611     1.0  0.84001  0.41545  0.26942  1.0000
  C   C1470     1.0  0.96799  0.26115  0.34786  1.0000
  S   S335      1.0  0.74888  0.23924  0.38974  1.0000
  H   H2612     1.0  0.76138  0.53483  0.32948  1.0000
  C   C1471     1.0  0.98291  0.56888  0.44683  1.0000
  H   H2613     1.0  0.74922  0.33509  0.46722  1.0000
  H   H2614     1.0  0.75764  0.38111  0.45571  1.0000
  H   H2615     1.0  0.97443  0.59370  0.45007  1.0000
  H   H2616     1.0  0.97851  0.19952  0.34240  1.0000
  H   H2617     1.0  0.79908  0.39963  0.48389  1.0000
  C   C1472     1.0  0.75060  0.46360  0.27373  1.0000
  H   H2618     1.0  0.97717  0.22699  0.29043  1.0000
  C   C1473     1.0  0.99352  0.56944  0.46084  1.0000
  C   C1474     1.0  0.96253  0.27741  0.30010  1.0000
  H   H2619     1.0  0.77733  0.53135  0.31575  1.0000
  C   C1475     1.0  0.75016  0.47758  0.30869  1.0000
  H   H2620     1.0  0.76955  0.34339  0.48321  1.0000
  C   C1476     1.0  0.94730  0.47002  0.25973  1.0000
  H   H2621     1.0  0.96533  0.21462  0.37468  1.0000
  H   H2622     1.0  0.95765  0.27019  0.37664  1.0000
  C   C1477     1.0  0.98540  0.39144  0.47994  1.0000
  H   H2623     1.0  0.95908  0.25185  0.34227  1.0000
  H   H2624     1.0  0.97879  0.31696  0.31593  1.0000
  H   H2625     1.0  0.83880  0.65091  0.48577  1.0000
  S   S336      1.0  0.74771  0.35436  0.35363  1.0000
  H   H2626     1.0  0.81437  0.30258  0.30893  1.0000
  H   H2627     1.0  0.96482  0.44059  0.48805  1.0000
  H   H2628     1.0  0.74960  0.07751  0.45016  1.0000
  H   H2629     1.0  0.98811  0.39448  0.43932  1.0000
  H   H2630     1.0  0.97522  0.25855  0.37695  1.0000
  H   H2631     1.0  0.98886  0.23891  0.34716  1.0000
  H   H2632     1.0  0.85243  0.44392  0.48335  1.0000
  H   H2633     1.0  0.95844  0.29351  0.31331  1.0000
  H   H2634     1.0  0.96834  0.29736  0.34441  1.0000
  H   H2635     1.0  0.81597  0.32759  0.27067  1.0000
  C   C1478     1.0  0.99389  0.30651  0.29179  1.0000
  H   H2636     1.0  0.86962  0.38398  0.26518  1.0000
  H   H2637     1.0  0.82987  0.26533  0.28408  1.0000
  H   H2638     1.0  0.81682  0.42091  0.25789  1.0000
  H   H2639     1.0  0.97931  0.53561  0.44872  1.0000
  C   C1479     1.0  0.83176  0.29821  0.28777  1.0000
  C   C1480     1.0  0.99296  0.35673  0.28657  1.0000
  C   C1481     1.0  0.96649  0.25032  0.37040  1.0000
  H   H2640     1.0  0.86180  0.43096  0.27690  1.0000
  H   H2641     1.0  0.94600  0.23811  0.30153  1.0000
  H   H2642     1.0  0.97907  0.45306  0.46130  1.0000
  H   H2643     1.0  0.86150  0.43094  0.25061  1.0000
  H   H2644     1.0  0.99017  0.63518  0.49141  1.0000
  H   H2645     1.0  0.85482  0.32922  0.25582  1.0000
  C   C1482     1.0  0.98831  0.43177  0.46441  1.0000
  H   H2646     1.0  0.95652  0.34304  0.25829  1.0000
  C   C1483     1.0  0.95108  0.26270  0.29094  1.0000
  C   C1484     1.0  0.84816  0.38853  0.26895  1.0000
  C   C1485     1.0  0.76025  0.36400  0.48704  1.0000
  H   H2647     1.0  0.98252  0.37094  0.28638  1.0000
  C   C1486     1.0  0.82519  0.30307  0.30859  1.0000
  H   H2648     1.0  0.95462  0.24794  0.27709  1.0000
  C   C1487     1.0  0.97307  0.23769  0.30499  1.0000
  H   H2649     1.0  0.82450  0.36676  0.27914  1.0000
  C   C1488     1.0  0.75195  0.36801  0.46946  1.0000
  C   C1489     1.0  0.78419  0.45313  0.47694  1.0000
  C   C1490     1.0  0.76853  0.51351  0.32061  1.0000
  H   H2650     1.0  0.76029  0.53419  0.29301  1.0000
  C   C1491     1.0  0.84706  0.35742  0.25310  1.0000
  C   C1492     1.0  0.82606  0.33533  0.27238  1.0000
  H   H2651     1.0  0.77017  0.48168  0.29432  1.0000
  H   H2652     1.0  0.98911  0.56190  0.47625  1.0000
  H   H2653     1.0  0.93737  0.41190  0.26001  1.0000
  C   C1493     1.0  0.86106  0.40981  0.26513  1.0000
  H   H2654     1.0  0.98616  0.15553  0.31168  1.0000
  H   H2655     1.0  0.76912  0.50158  0.46528  1.0000
  H   H2656     1.0  0.96787  0.20941  0.31266  1.0000
  H   H2657     1.0  0.98691  0.57623  0.43116  1.0000
  H   H2658     1.0  0.99438  0.29879  0.32359  1.0000
  C   C1494     1.0  0.99443  0.41650  0.44475  1.0000
  H   H2659     1.0  0.85143  0.57901  0.49514  1.0000
  H   H2660     1.0  0.99455  0.75824  0.32322  1.0000
  H   H2661     1.0  0.76018  0.58644  0.24646  1.0000
  H   H2662     1.0  0.99436  0.36720  0.47936  1.0000
  H   H2663     1.0  0.74500  0.03937  0.39434  1.0000
  Fe  Fe169     1.0  0.92947  0.92860  0.71380  1.0000
  S   S337      1.0  0.94328  0.93779  0.68594  1.0000
  H   H2664     1.0  0.95261  0.53816  0.62586  1.0000
  Fe  Fe170     1.0  0.90492  0.94112  0.68997  1.0000
  S   S338      1.0  0.91703  0.95198  0.66071  1.0000
  S   S339      1.0  0.88248  0.94718  0.69014  1.0000
  Fe  Fe171     1.0  0.93084  0.89484  0.67308  1.0000
  S   S340      1.0  0.93616  0.83657  0.65518  1.0000
  Fe  Fe172     1.0  0.92840  0.99479  0.67543  1.0000
  S   S341      1.0  0.93530  0.06232  0.66200  1.0000
  S   S342      1.0  0.91797  0.88156  0.70138  1.0000
  S   S343      1.0  0.91536  0.98803  0.70421  1.0000
  H   H2665     1.0  0.78075  0.26659  0.52910  1.0000
  S   S344      1.0  0.97115  0.57527  0.59464  1.0000
  Fe  Fe173     1.0  0.92962  0.27137  0.57062  1.0000
  S   S345      1.0  0.92625  0.33322  0.58586  1.0000
  S   S346      1.0  0.92547  0.20039  0.58420  1.0000
  Fe  Fe174     1.0  0.93533  0.32684  0.52921  1.0000
  S   S347      1.0  0.93150  0.39184  0.54203  1.0000
  H   H2666     1.0  0.77757  0.34091  0.53718  1.0000
  Fe  Fe175     1.0  0.94362  0.35781  0.56624  1.0000
  S   S348      1.0  0.96213  0.38348  0.57456  1.0000
  Fe  Fe176     1.0  0.91432  0.36241  0.56042  1.0000
  S   S349      1.0  0.89467  0.40208  0.56890  1.0000
  S   S350      1.0  0.94793  0.29338  0.55294  1.0000
  S   S351      1.0  0.91711  0.30007  0.54573  1.0000
  Fe  Fe177     1.0  0.82412  0.79784  0.68396  1.0000
  S   S352      1.0  0.81252  0.74075  0.69655  1.0000
  S   S353      1.0  0.84559  0.79276  0.69100  1.0000
  Fe  Fe178     1.0  0.80009  0.84926  0.66630  1.0000
  S   S354      1.0  0.78698  0.79602  0.67782  1.0000
  S   S355      1.0  0.79421  0.91845  0.65123  1.0000
  Fe  Fe179     1.0  0.79663  0.79294  0.70636  1.0000
  H   H2667     1.0  0.96962  0.27332  0.51914  1.0000
  Fe  Fe180     1.0  0.80395  0.74788  0.66687  1.0000
  S   S356      1.0  0.80118  0.68360  0.65317  1.0000
  S   S357      1.0  0.80870  0.84878  0.69525  1.0000
  S   S358      1.0  0.81661  0.80222  0.65385  1.0000
  Fe  Fe181     1.0  0.81728  0.42315  0.55263  1.0000
  S   S359      1.0  0.81311  0.49154  0.53627  1.0000
  S   S360      1.0  0.83696  0.38054  0.54731  1.0000
  Fe  Fe182     1.0  0.78870  0.42166  0.56992  1.0000
  S   S361      1.0  0.78316  0.49052  0.55506  1.0000
  S   S362      1.0  0.77120  0.38966  0.58693  1.0000
  Fe  Fe183     1.0  0.79480  0.46688  0.52778  1.0000
  Fe  Fe184     1.0  0.80181  0.50909  0.56517  1.0000
  S   S363      1.0  0.80440  0.57678  0.57609  1.0000
  S   S364      1.0  0.79956  0.39780  0.54249  1.0000
  S   S365      1.0  0.80676  0.44106  0.58167  1.0000
  C   C1495     1.0  0.76799  0.33381  0.58785  1.0000
  C   C1496     1.0  0.77791  0.30018  0.58358  1.0000
  H   H2668     1.0  0.75614  0.45399  0.55449  1.0000
  C   C1497     1.0  0.75514  0.32277  0.59366  1.0000
  H   H2669     1.0  0.78784  0.30827  0.57908  1.0000
  H   H2670     1.0  0.85995  0.42026  0.50549  1.0000
  H   H2671     1.0  0.90023  0.49936  0.53289  1.0000
  C   C1498     1.0  0.80229  0.65446  0.63147  1.0000
  C   C1499     1.0  0.80614  0.67381  0.61230  1.0000
  C   C1500     1.0  0.80673  0.64962  0.59577  1.0000
  C   C1501     1.0  0.80353  0.60545  0.59788  1.0000
  C   C1502     1.0  0.79978  0.58597  0.61707  1.0000
  C   C1503     1.0  0.79915  0.61023  0.63359  1.0000
  H   H2672     1.0  0.80860  0.70759  0.61017  1.0000
  H   H2673     1.0  0.80963  0.66543  0.58115  1.0000
  H   H2674     1.0  0.79726  0.55225  0.61920  1.0000
  H   H2675     1.0  0.79615  0.59452  0.64820  1.0000
  C   C1504     1.0  0.77791  0.93945  0.64669  1.0000
  C   C1505     1.0  0.76792  0.91168  0.64795  1.0000
  C   C1506     1.0  0.76224  0.00302  0.63691  1.0000
  C   C1507     1.0  0.77501  0.98515  0.64120  1.0000
  H   H2676     1.0  0.76014  0.03825  0.63263  1.0000
  H   H2677     1.0  0.78271  0.00682  0.64016  1.0000
  C   C1508     1.0  0.87873  0.39375  0.56325  1.0000
  C   C1509     1.0  0.86765  0.41257  0.57430  1.0000
  C   C1510     1.0  0.85480  0.40823  0.56987  1.0000
  C   C1511     1.0  0.85288  0.38528  0.55419  1.0000
  C   C1512     1.0  0.86396  0.36538  0.54351  1.0000
  C   C1513     1.0  0.87681  0.36982  0.54790  1.0000
  H   H2678     1.0  0.86902  0.43077  0.58634  1.0000
  H   H2679     1.0  0.84638  0.42252  0.57860  1.0000
  H   H2680     1.0  0.86260  0.34720  0.53146  1.0000
  H   H2681     1.0  0.88524  0.35526  0.53923  1.0000
  C   C1514     1.0  0.96918  0.52264  0.58760  1.0000
  C   C1515     1.0  0.95673  0.51463  0.58292  1.0000
  C   C1516     1.0  0.95444  0.47254  0.57852  1.0000
  C   C1517     1.0  0.96459  0.43784  0.57887  1.0000
  C   C1518     1.0  0.97710  0.44605  0.58320  1.0000
  C   C1519     1.0  0.97942  0.48822  0.58747  1.0000
  H   H2682     1.0  0.94874  0.54100  0.58297  1.0000
  H   H2683     1.0  0.94477  0.46675  0.57519  1.0000
  H   H2684     1.0  0.98500  0.41939  0.58356  1.0000
  H   H2685     1.0  0.92225  0.95330  0.61505  1.0000
  C   C1520     1.0  0.93205  0.10061  0.64050  1.0000
  C   C1521     1.0  0.93734  0.14168  0.63797  1.0000
  C   C1522     1.0  0.93535  0.17275  0.62105  1.0000
  C   C1523     1.0  0.92816  0.16302  0.60618  1.0000
  C   C1524     1.0  0.92294  0.12180  0.60864  1.0000
  C   C1525     1.0  0.92480  0.09093  0.62568  1.0000
  H   H2686     1.0  0.94301  0.14960  0.64924  1.0000
  H   H2687     1.0  0.93948  0.20408  0.61944  1.0000
  H   H2688     1.0  0.91739  0.11373  0.59726  1.0000
  H   H2689     1.0  0.92067  0.05960  0.62729  1.0000
  C   C1526     1.0  0.87222  0.90398  0.69109  1.0000
  C   C1527     1.0  0.85939  0.91435  0.68523  1.0000
  C   C1528     1.0  0.85108  0.88086  0.68502  1.0000
  C   C1529     1.0  0.85548  0.83661  0.69094  1.0000
  C   C1530     1.0  0.86819  0.82638  0.69718  1.0000
  C   C1531     1.0  0.87655  0.85975  0.69722  1.0000
  H   H2690     1.0  0.85592  0.94849  0.68053  1.0000
  H   H2691     1.0  0.84129  0.88930  0.68024  1.0000
  H   H2692     1.0  0.87163  0.79222  0.70178  1.0000
  H   H2693     1.0  0.88635  0.85132  0.70190  1.0000
  C   C1532     1.0  0.95222  0.81367  0.64760  1.0000
  C   C1533     1.0  0.95382  0.77310  0.63962  1.0000
  C   C1534     1.0  0.96631  0.75502  0.63225  1.0000
  C   C1535     1.0  0.97731  0.77765  0.63261  1.0000
  C   C1536     1.0  0.97574  0.81795  0.64085  1.0000
  C   C1537     1.0  0.96326  0.83572  0.64849  1.0000
  H   H2694     1.0  0.94536  0.75554  0.63911  1.0000
  C   C1538     1.0  0.74951  0.22718  0.65005  1.0000
  H   H2695     1.0  0.98423  0.83548  0.64127  1.0000
  H   H2696     1.0  0.96215  0.86668  0.65481  1.0000
  H   H2697     1.0  0.77790  0.04949  0.59712  1.0000
  H   H2698     1.0  0.94586  0.65843  0.63136  1.0000
  C   C1539     1.0  0.95132  0.54282  0.64182  1.0000
  C   C1540     1.0  0.82833  0.94117  0.72607  1.0000
  C   C1541     1.0  0.75241  0.46144  0.53961  1.0000
  H   H2699     1.0  0.76027  0.29393  0.55223  1.0000
  H   H2700     1.0  0.96688  0.35438  0.50579  1.0000
  H   H2701     1.0  0.94924  0.89794  0.61377  1.0000
  C   C1542     1.0  0.75576  0.18259  0.74037  1.0000
  H   H2702     1.0  0.74755  0.90772  0.64393  1.0000
  H   H2703     1.0  0.75621  0.95951  0.68337  1.0000
  C   C1543     1.0  0.95809  0.06245  0.60410  1.0000
  C   C1544     1.0  0.77371  0.33697  0.52293  1.0000
  H   H2704     1.0  0.86955  0.55211  0.51191  1.0000
  H   H2705     1.0  0.97273  0.36469  0.52787  1.0000
  H   H2706     1.0  0.77720  0.36479  0.51234  1.0000
  H   H2707     1.0  0.75845  0.02592  0.55780  1.0000
  C   C1545     1.0  0.76543  0.00683  0.58660  1.0000
  H   H2708     1.0  0.94794  0.97414  0.59209  1.0000
  H   H2709     1.0  0.84464  0.51236  0.49797  1.0000
  H   H2710     1.0  0.95780  0.13274  0.59409  1.0000
  Fe  Fe185     1.0  0.98947  0.60186  0.60308  1.0000
  N   N82       1.0  0.75888  0.34006  0.52547  1.0000
  H   H2711     1.0  0.76124  0.83894  0.60127  1.0000
  H   H2712     1.0  0.94504  0.61744  0.61502  1.0000
  C   C1546     1.0  0.97160  0.93781  0.60947  1.0000
  H   H2713     1.0  0.97439  0.50709  0.62812  1.0000
  C   C1547     1.0  0.97596  0.36024  0.51220  1.0000
  H   H2714     1.0  0.96520  0.43647  0.53307  1.0000
  C   C1548     1.0  0.85280  0.49044  0.50466  1.0000
  C   C1549     1.0  0.94832  0.97130  0.60842  1.0000
  C   C1550     1.0  0.75408  0.34873  0.65598  1.0000
  H   H2715     1.0  0.95923  0.95053  0.64426  1.0000
  H   H2716     1.0  0.98570  0.24719  0.52442  1.0000
  H   H2717     1.0  0.95733  0.06872  0.61979  1.0000
  C   C1551     1.0  0.75275  0.34259  0.50610  1.0000
  H   H2718     1.0  0.82793  0.61070  0.49696  1.0000
  H   H2719     1.0  0.95856  0.51420  0.51874  1.0000
  H   H2720     1.0  0.97688  0.02110  0.60267  1.0000
  H   H2721     1.0  0.97550  0.03071  0.63539  1.0000
  H   H2722     1.0  0.74919  0.84623  0.67160  1.0000
  N   N83       1.0  0.87728  0.25397  0.58905  1.0000
  C   C1552     1.0  0.88795  0.27984  0.59382  1.0000
  C   C1553     1.0  0.87969  0.24558  0.56763  1.0000
  C   C1554     1.0  0.86437  0.28299  0.59133  1.0000
  C   C1555     1.0  0.87623  0.21103  0.60260  1.0000
  C   C1556     1.0  0.88912  0.18710  0.61070  1.0000
  C   C1557     1.0  0.88538  0.29928  0.61391  1.0000
  C   C1558     1.0  0.85231  0.26622  0.58391  1.0000
  C   C1559     1.0  0.89254  0.21691  0.56168  1.0000
  C   C1560     1.0  0.89456  0.21621  0.53926  1.0000
  C   C1561     1.0  0.88691  0.14133  0.62161  1.0000
  C   C1562     1.0  0.89775  0.31503  0.61993  1.0000
  C   C1563     1.0  0.83943  0.29104  0.59174  1.0000
  H   H2723     1.0  0.88939  0.30823  0.58212  1.0000
  H   H2724     1.0  0.89766  0.25972  0.59350  1.0000
  H   H2725     1.0  0.87172  0.22811  0.56338  1.0000
  H   H2726     1.0  0.87949  0.27776  0.55790  1.0000
  H   H2727     1.0  0.86534  0.31676  0.58341  1.0000
  H   H2728     1.0  0.86167  0.28779  0.60715  1.0000
  H   H2729     1.0  0.86931  0.21641  0.61594  1.0000
  H   H2730     1.0  0.87179  0.18702  0.59507  1.0000
  H   H2731     1.0  0.89264  0.20635  0.62139  1.0000
  H   H2732     1.0  0.89717  0.18272  0.59887  1.0000
  H   H2733     1.0  0.87787  0.32854  0.61271  1.0000
  H   H2734     1.0  0.88170  0.27454  0.62591  1.0000
  H   H2735     1.0  0.85189  0.23030  0.58866  1.0000
  H   H2736     1.0  0.85285  0.27214  0.56747  1.0000
  H   H2737     1.0  0.90124  0.22969  0.56616  1.0000
  H   H2738     1.0  0.89207  0.18212  0.56849  1.0000
  H   H2739     1.0  0.88635  0.20179  0.53394  1.0000
  H   H2740     1.0  0.89522  0.25026  0.53154  1.0000
  H   H2741     1.0  0.90390  0.19570  0.53540  1.0000
  H   H2742     1.0  0.87894  0.14398  0.63382  1.0000
  H   H2743     1.0  0.88434  0.11935  0.61122  1.0000
  H   H2744     1.0  0.89605  0.12601  0.62815  1.0000
  H   H2745     1.0  0.90586  0.28761  0.62074  1.0000
  H   H2746     1.0  0.90086  0.34299  0.60910  1.0000
  H   H2747     1.0  0.89567  0.32698  0.63469  1.0000
  H   H2748     1.0  0.83957  0.32737  0.58779  1.0000
  H   H2749     1.0  0.83108  0.28070  0.58503  1.0000
  H   H2750     1.0  0.83781  0.28359  0.60809  1.0000
  N   N84       1.0  0.89245  0.82163  0.63952  1.0000
  C   C1564     1.0  0.88171  0.80913  0.62853  1.0000
  C   C1565     1.0  0.90512  0.82024  0.62627  1.0000
  C   C1566     1.0  0.89368  0.78931  0.65804  1.0000
  C   C1567     1.0  0.88924  0.86787  0.64533  1.0000
  C   C1568     1.0  0.88649  0.90530  0.62819  1.0000
  C   C1569     1.0  0.86752  0.81576  0.63882  1.0000
  C   C1570     1.0  0.90551  0.79241  0.66994  1.0000
  C   C1571     1.0  0.91084  0.77406  0.62040  1.0000
  C   C1572     1.0  0.92368  0.77736  0.60710  1.0000
  C   C1573     1.0  0.88204  0.94958  0.63612  1.0000
  C   C1574     1.0  0.85755  0.80079  0.62672  1.0000
  C   C1575     1.0  0.90518  0.76023  0.68900  1.0000
  H   H2751     1.0  0.88354  0.77354  0.62620  1.0000
  H   H2752     1.0  0.88179  0.82747  0.61337  1.0000
  H   H2753     1.0  0.90380  0.84207  0.61214  1.0000
  H   H2754     1.0  0.91282  0.83403  0.63321  1.0000
  H   H2755     1.0  0.89413  0.75455  0.65463  1.0000
  H   H2756     1.0  0.88473  0.79377  0.66839  1.0000
  H   H2757     1.0  0.88066  0.86906  0.65658  1.0000
  H   H2758     1.0  0.89742  0.87758  0.65268  1.0000
  H   H2759     1.0  0.87866  0.89823  0.61946  1.0000
  H   H2760     1.0  0.89554  0.90971  0.61810  1.0000
  H   H2761     1.0  0.86673  0.79611  0.65362  1.0000
  H   H2762     1.0  0.86446  0.85108  0.64067  1.0000
  H   H2763     1.0  0.90553  0.82613  0.67417  1.0000
  H   H2764     1.0  0.91492  0.78371  0.66119  1.0000
  H   H2765     1.0  0.91300  0.75018  0.63358  1.0000
  H   H2766     1.0  0.90389  0.76025  0.61211  1.0000
  H   H2767     1.0  0.93090  0.79232  0.61448  1.0000
  H   H2768     1.0  0.92802  0.74376  0.60390  1.0000
  H   H2769     1.0  0.92186  0.79800  0.59285  1.0000
  H   H2770     1.0  0.87271  0.94761  0.64583  1.0000
  H   H2771     1.0  0.88964  0.95897  0.64472  1.0000
  H   H2772     1.0  0.88035  0.97599  0.62362  1.0000
  H   H2773     1.0  0.84754  0.80588  0.63451  1.0000
  H   H2774     1.0  0.85755  0.82037  0.61187  1.0000
  H   H2775     1.0  0.85977  0.76498  0.62506  1.0000
  H   H2776     1.0  0.89617  0.76834  0.69884  1.0000
  H   H2777     1.0  0.90552  0.72557  0.68561  1.0000
  H   H2778     1.0  0.91387  0.76295  0.69699  1.0000
  H   H2779     1.0  0.92539  0.89377  0.61845  1.0000
  H   H2780     1.0  0.75803  0.26901  0.53104  1.0000
  H   H2781     1.0  0.77033  0.94051  0.73325  1.0000
  C   C1576     1.0  0.98531  0.31654  0.51241  1.0000
  C   C1577     1.0  0.97706  0.84184  0.74024  1.0000
  C   C1578     1.0  0.76446  0.15450  0.65360  1.0000
  H   H2782     1.0  0.82325  0.87621  0.72400  1.0000
  H   H2783     1.0  0.76428  0.15198  0.63757  1.0000
  C   C1579     1.0  0.75781  0.42510  0.52668  1.0000
  C   C1580     1.0  0.96069  0.44243  0.51887  1.0000
  H   H2784     1.0  0.77039  0.87653  0.61135  1.0000
  C   C1581     1.0  0.96118  0.98237  0.63518  1.0000
  C   C1582     1.0  0.96411  0.10149  0.59165  1.0000
  H   H2785     1.0  0.93360  0.61990  0.63699  1.0000
  H   H2786     1.0  0.84225  0.43204  0.50608  1.0000
  N   N85       1.0  0.96189  0.97734  0.61342  1.0000
  H   H2787     1.0  0.75674  0.02046  0.59569  1.0000
  H   H2788     1.0  0.86912  0.57737  0.53383  1.0000
  H   H2789     1.0  0.77021  0.97755  0.59548  1.0000
  H   H2790     1.0  0.77567  0.28175  0.50455  1.0000
  C   C1583     1.0  0.79503  0.29753  0.50845  1.0000
  H   H2791     1.0  0.83146  0.96068  0.73702  1.0000
  H   H2792     1.0  0.77524  0.91566  0.57791  1.0000
  H   H2793     1.0  0.75482  0.00555  0.52819  1.0000
  N   N86       1.0  0.75796  0.90229  0.71979  1.0000
  C   C1584     1.0  0.75968  0.86947  0.70480  1.0000
  C   C1585     1.0  0.77120  0.91688  0.72203  1.0000
  C   C1586     1.0  0.97397  0.50929  0.64423  1.0000
  C   C1587     1.0  0.97242  0.92336  0.58842  1.0000
  S   S366      1.0  0.94373  0.31375  0.49771  1.0000
  H   H2794     1.0  0.74582  0.90115  0.58505  1.0000
  S   S367      1.0  0.99303  0.75780  0.62217  1.0000
  C   C1588     1.0  0.77844  0.94013  0.70330  1.0000
  C   C1589     1.0  0.79162  0.95302  0.70789  1.0000
  C   C1590     1.0  0.85180  0.44376  0.49967  1.0000
  C   C1591     1.0  0.78073  0.29293  0.51626  1.0000
  H   H2795     1.0  0.76802  0.84373  0.70816  1.0000
  H   H2796     1.0  0.76262  0.88542  0.68975  1.0000
  C   C1592     1.0  0.75376  0.37950  0.53628  1.0000
  H   H2797     1.0  0.95733  0.37744  0.64198  1.0000
  H   H2798     1.0  0.80039  0.30941  0.51969  1.0000
  H   H2799     1.0  0.75950  0.93003  0.54419  1.0000
  H   H2800     1.0  0.96474  0.09764  0.57564  1.0000
  H   H2801     1.0  0.96065  0.43669  0.66192  1.0000
  C   C1593     1.0  0.74660  0.98458  0.53210  1.0000
  C   C1594     1.0  0.97200  0.99849  0.66482  1.0000
  H   H2802     1.0  0.81880  0.95734  0.72112  1.0000
  C   C1595     1.0  0.76147  0.99421  0.56694  1.0000
  C   C1596     1.0  0.96643  0.01785  0.60077  1.0000
  H   H2803     1.0  0.78044  0.91803  0.69149  1.0000
  H   H2804     1.0  0.77268  0.97134  0.69782  1.0000
  H   H2805     1.0  0.79005  0.97947  0.71782  1.0000
  H   H2806     1.0  0.79759  0.92405  0.71512  1.0000
  H   H2807     1.0  0.79720  0.96559  0.69388  1.0000
  H   H2808     1.0  0.97407  0.10426  0.59597  1.0000
  H   H2809     1.0  0.75701  0.37408  0.55154  1.0000
  H   H2810     1.0  0.75943  0.84615  0.74266  1.0000
  H   H2811     1.0  0.94487  0.48687  0.53115  1.0000
  H   H2812     1.0  0.95236  0.46075  0.69347  1.0000
  H   H2813     1.0  0.95073  0.39272  0.61841  1.0000
  N   N87       1.0  0.85382  0.53451  0.53434  1.0000
  C   C1597     1.0  0.86771  0.54578  0.52823  1.0000
  C   C1598     1.0  0.84389  0.57204  0.52698  1.0000
  C   C1599     1.0  0.85203  0.52887  0.55672  1.0000
  C   C1600     1.0  0.85148  0.49167  0.52730  1.0000
  C   C1601     1.0  0.89244  0.52525  0.52761  1.0000
  C   C1602     1.0  0.87895  0.51038  0.53516  1.0000
  C   C1603     1.0  0.83793  0.52189  0.56634  1.0000
  N   N88       1.0  0.96004  0.50799  0.65359  1.0000
  H   H2814     1.0  0.98763  0.30686  0.49725  1.0000
  C   C1604     1.0  0.83710  0.52146  0.58880  1.0000
  C   C1605     1.0  0.97092  0.44033  0.50057  1.0000
  H   H2815     1.0  0.75328  0.94333  0.50849  1.0000
  H   H2816     1.0  0.83428  0.55925  0.52604  1.0000
  H   H2817     1.0  0.85507  0.55824  0.56247  1.0000
  H   H2818     1.0  0.85845  0.49984  0.56291  1.0000
  H   H2819     1.0  0.85806  0.46381  0.53402  1.0000
  H   H2820     1.0  0.84143  0.48297  0.53251  1.0000
  C   C1606     1.0  0.95064  0.40238  0.63354  1.0000
  H   H2821     1.0  0.84174  0.59685  0.53780  1.0000
  H   H2822     1.0  0.87867  0.50450  0.55153  1.0000
  H   H2823     1.0  0.87841  0.47841  0.52945  1.0000
  H   H2824     1.0  0.83502  0.48980  0.56341  1.0000
  H   H2825     1.0  0.83057  0.54857  0.56066  1.0000
  H   H2826     1.0  0.95230  0.60055  0.65805  1.0000
  H   H2827     1.0  0.77491  0.35832  0.65453  1.0000
  C   C1607     1.0  0.84764  0.59986  0.50696  1.0000
  H   H2828     1.0  0.75288  0.93454  0.59927  1.0000
  H   H2829     1.0  0.79999  0.26488  0.50494  1.0000
  S   S368      1.0  0.75929  0.18819  0.59497  1.0000
  H   H2830     1.0  0.83897  0.55418  0.59266  1.0000
  H   H2831     1.0  0.82706  0.51476  0.59530  1.0000
  H   H2832     1.0  0.84429  0.49518  0.59541  1.0000
  H   H2833     1.0  0.74740  0.34871  0.59679  1.0000
  C   C1608     1.0  0.95502  0.46375  0.65295  1.0000
  H   H2834     1.0  0.75665  0.13596  0.66218  1.0000
  H   H2835     1.0  0.75754  0.15526  0.73089  1.0000
  H   H2836     1.0  0.75276  0.35031  0.67217  1.0000
  C   C1609     1.0  0.76255  0.20302  0.65746  1.0000
  H   H2837     1.0  0.83571  0.94146  0.71299  1.0000
  H   H2838     1.0  0.74680  0.81808  0.71656  1.0000
  H   H2839     1.0  0.98772  0.64555  0.52859  1.0000
  H   H2840     1.0  0.89362  0.52994  0.51116  1.0000
  C   C1610     1.0  0.98154  0.88041  0.58704  1.0000
  C   C1611     1.0  0.75351  0.92413  0.58415  1.0000
  H   H2841     1.0  0.94046  0.40213  0.64076  1.0000
  H   H2842     1.0  0.75995  0.29970  0.63568  1.0000
  H   H2843     1.0  0.77868  0.83926  0.59470  1.0000
  H   H2844     1.0  0.83181  0.65298  0.51099  1.0000
  C   C1612     1.0  0.82676  0.89364  0.73533  1.0000
  C   C1613     1.0  0.74666  0.95706  0.69225  1.0000
  H   H2845     1.0  0.94895  0.53570  0.67872  1.0000
  H   H2846     1.0  0.95400  0.41656  0.51891  1.0000
  C   C1614     1.0  0.95895  0.51920  0.67466  1.0000
  H   H2847     1.0  0.75376  0.43448  0.51217  1.0000
  H   H2848     1.0  0.76752  0.37424  0.63143  1.0000
  H   H2849     1.0  0.76511  0.28540  0.65993  1.0000
  H   H2850     1.0  0.75070  0.23009  0.63358  1.0000
  C   C1615     1.0  0.98445  0.47402  0.65312  1.0000
  H   H2851     1.0  0.83105  0.79746  0.73120  1.0000
  C   C1616     1.0  0.95523  0.44851  0.63214  1.0000
  H   H2852     1.0  0.98243  0.97375  0.63911  1.0000
  H   H2853     1.0  0.81449  0.73599  0.73902  1.0000
  C   C1617     1.0  0.96228  0.49711  0.71108  1.0000
  H   H2854     1.0  0.97091  0.96488  0.67275  1.0000
  H   H2855     1.0  0.96741  0.72399  0.62595  1.0000
  H   H2856     1.0  0.98612  0.48106  0.66811  1.0000
  H   H2857     1.0  0.95342  0.51949  0.71535  1.0000
  H   H2858     1.0  0.77413  0.13885  0.65820  1.0000
  H   H2859     1.0  0.96589  0.54387  0.67599  1.0000
  H   H2860     1.0  0.77051  0.07310  0.57490  1.0000
  H   H2861     1.0  0.94171  0.92604  0.63422  1.0000
  H   H2862     1.0  0.94077  0.53931  0.64672  1.0000
  H   H2863     1.0  0.98171  0.94433  0.61171  1.0000
  C   C1618     1.0  0.77509  0.04193  0.58276  1.0000
  H   H2864     1.0  0.96957  0.90867  0.62042  1.0000
  H   H2865     1.0  0.92998  0.92387  0.59480  1.0000
  C   C1619     1.0  0.97362  0.99703  0.64244  1.0000
  C   C1620     1.0  0.75653  0.29983  0.65173  1.0000
  N   N89       1.0  0.75074  0.96377  0.56900  1.0000
  C   C1621     1.0  0.75224  0.27847  0.59542  1.0000
  H   H2866     1.0  0.99156  0.88444  0.59075  1.0000
  H   H2867     1.0  0.77052  0.97979  0.55867  1.0000
  H   H2868     1.0  0.78415  0.02977  0.57388  1.0000
  C   C1622     1.0  0.92926  0.92466  0.61106  1.0000
  H   H2869     1.0  0.95267  0.00620  0.63942  1.0000
  C   C1623     1.0  0.84003  0.86937  0.74169  1.0000
  S   S369      1.0  0.78462  0.78886  0.73703  1.0000
  H   H2870     1.0  0.77790  0.88769  0.72758  1.0000
  C   C1624     1.0  0.95233  0.48719  0.51815  1.0000
  H   H2871     1.0  0.89377  0.55665  0.53330  1.0000
  H   H2872     1.0  0.94854  0.47123  0.62280  1.0000
  C   C1625     1.0  0.76938  0.86046  0.59804  1.0000
  H   H2873     1.0  0.96629  0.01433  0.58482  1.0000
  C   C1626     1.0  0.77506  0.25577  0.58575  1.0000
  H   H2874     1.0  0.77009  0.87639  0.65195  1.0000
  H   H2875     1.0  0.98230  0.87123  0.57175  1.0000
  C   C1627     1.0  0.76226  0.24466  0.59186  1.0000
  H   H2876     1.0  0.78286  0.22983  0.58281  1.0000
  C   C1628     1.0  0.74869  0.82151  0.68497  1.0000
  H   H2877     1.0  0.97639  0.94917  0.57721  1.0000
  H   H2878     1.0  0.84624  0.86650  0.72747  1.0000
  C   C1629     1.0  0.76683  0.89548  0.58040  1.0000
  H   H2879     1.0  0.94802  0.06253  0.59967  1.0000
  H   H2880     1.0  0.98710  0.39451  0.54141  1.0000
  C   C1630     1.0  0.94388  0.62372  0.63078  1.0000
  H   H2881     1.0  0.96269  0.91722  0.58441  1.0000
  H   H2882     1.0  0.76675  0.87771  0.56728  1.0000
  H   H2883     1.0  0.94469  0.46435  0.65986  1.0000
  C   C1631     1.0  0.96099  0.48018  0.69139  1.0000
  H   H2884     1.0  0.96325  0.02142  0.66905  1.0000
  H   H2885     1.0  0.98161  0.44000  0.65386  1.0000
  H   H2886     1.0  0.76864  0.42503  0.52486  1.0000
  C   C1632     1.0  0.94279  0.92762  0.61786  1.0000
  H   H2887     1.0  0.94108  0.99859  0.61337  1.0000
  C   C1633     1.0  0.75519  0.92946  0.64336  1.0000
  C   C1634     1.0  0.95356  0.59191  0.64267  1.0000
  C   C1635     1.0  0.74756  0.84432  0.70374  1.0000
  H   H2888     1.0  0.87898  0.77939  0.73455  1.0000
  H   H2889     1.0  0.77106  0.21899  0.64943  1.0000
  H   H2890     1.0  0.97762  0.85280  0.59732  1.0000
  H   H2891     1.0  0.96984  0.45719  0.68810  1.0000
  C   C1636     1.0  0.74810  0.94184  0.71459  1.0000
  H   H2892     1.0  0.97113  0.51526  0.71000  1.0000
  H   H2893     1.0  0.96530  0.44682  0.62453  1.0000
  H   H2894     1.0  0.98082  0.01049  0.66954  1.0000
  H   H2895     1.0  0.85539  0.62103  0.50882  1.0000
  C   C1637     1.0  0.74993  0.94784  0.54927  1.0000
  C   C1638     1.0  0.97898  0.27827  0.52494  1.0000
  H   H2896     1.0  0.97701  0.28498  0.54061  1.0000
  H   H2897     1.0  0.98905  0.49388  0.59098  1.0000
  H   H2898     1.0  0.75406  0.21442  0.73069  1.0000
  S   S370      1.0  0.98989  0.62794  0.63248  1.0000
  H   H2899     1.0  0.98531  0.45319  0.53274  1.0000
  H   H2900     1.0  0.96333  0.46865  0.72288  1.0000
  H   H2901     1.0  0.96356  0.59848  0.63621  1.0000
  C   C1639     1.0  0.75497  0.29913  0.53861  1.0000
  H   H2902     1.0  0.76278  0.20394  0.67357  1.0000
  H   H2903     1.0  0.75758  0.79717  0.68443  1.0000
  H   H2904     1.0  0.76397  0.40870  0.65111  1.0000
  C   C1640     1.0  0.99156  0.42139  0.53145  1.0000
  N   N90       1.0  0.74517  0.27201  0.65703  1.0000
  C   C1641     1.0  0.76586  0.37383  0.64777  1.0000
  H   H2905     1.0  0.85407  0.78987  0.73407  1.0000
  C   C1642     1.0  0.75232  0.97511  0.63774  1.0000
  H   H2906     1.0  0.97749  0.54181  0.64522  1.0000
  H   H2907     1.0  0.75068  0.26428  0.68710  1.0000
  H   H2908     1.0  0.86608  0.85132  0.74180  1.0000
  C   C1643     1.0  0.99341  0.41169  0.50962  1.0000
  H   H2909     1.0  0.75035  0.97086  0.72144  1.0000
  H   H2910     1.0  0.75572  0.49359  0.53259  1.0000
  H   H2911     1.0  0.98518  0.84957  0.72872  1.0000
  C   C1644     1.0  0.75321  0.87820  0.73952  1.0000
  H   H2912     1.0  0.96907  0.83052  0.73305  1.0000
  H   H2913     1.0  0.75129  0.30883  0.50285  1.0000
  N   N91       1.0  0.98139  0.40112  0.50100  1.0000
  S   S371      1.0  0.78521  0.48162  0.49806  1.0000
  H   H2914     1.0  0.94712  0.49377  0.50447  1.0000
  H   H2915     1.0  0.97551  0.47201  0.49772  1.0000
  C   C1645     1.0  0.83580  0.63046  0.49979  1.0000
  H   H2916     1.0  0.95555  0.96324  0.74276  1.0000
  H   H2917     1.0  0.99459  0.31980  0.51874  1.0000
  H   H2918     1.0  0.74541  0.36660  0.64902  1.0000
  H   H2919     1.0  0.86236  0.50061  0.49768  1.0000
  H   H2920     1.0  0.96025  0.79101  0.82712  1.0000
  N   N92       1.0  0.83977  0.82433  0.75385  1.0000
  Fe  Fe186     1.0  0.97965  0.90385  0.83781  1.0000
  S   S372      1.0  0.96959  0.85054  0.85725  1.0000
  S   S373      1.0  0.97507  0.93536  0.80660  1.0000
  Fe  Fe187     1.0  0.97284  0.88546  0.88326  1.0000
  S   S374      1.0  0.95802  0.90363  0.90909  1.0000
  C   C1646     1.0  0.98865  0.76417  0.79624  1.0000
  S   S375      1.0  0.98109  0.94266  0.86341  1.0000
  C   C1647     1.0  0.76907  0.05433  0.91576  1.0000
  H   H2921     1.0  0.76130  0.12706  0.94779  1.0000
  Fe  Fe188     1.0  0.77127  0.90625  0.89131  1.0000
  H   H2922     1.0  0.79727  0.83333  0.98664  1.0000
  S   S376      1.0  0.78566  0.91081  0.91480  1.0000
  Fe  Fe189     1.0  0.76900  0.88652  0.84738  1.0000
  H   H2923     1.0  0.97501  0.09123  0.79504  1.0000
  S   S377      1.0  0.78143  0.88146  0.81718  1.0000
  H   H2924     1.0  0.77318  0.02984  0.92765  1.0000
  Fe  Fe190     1.0  0.74734  0.86587  0.88070  1.0000
  C   C1648     1.0  0.74721  0.00170  0.80637  1.0000
  C   C1649     1.0  0.78754  0.02648  0.89131  1.0000
  S   S378      1.0  0.77301  0.94621  0.86122  1.0000
  S   S379      1.0  0.76919  0.84422  0.87741  1.0000
  H   H2925     1.0  0.74853  0.10364  0.97957  1.0000
  C   C1650     1.0  0.77268  0.03122  0.89672  1.0000
  C   C1651     1.0  0.78418  0.96679  0.97531  1.0000
  C   C1652     1.0  0.79614  0.95213  0.96523  1.0000
  C   C1653     1.0  0.79636  0.93542  0.94681  1.0000
  C   C1654     1.0  0.78467  0.93271  0.93812  1.0000
  C   C1655     1.0  0.77269  0.94663  0.94837  1.0000
  C   C1656     1.0  0.77248  0.96371  0.96670  1.0000
  H   H2926     1.0  0.80525  0.95407  0.97152  1.0000
  H   H2927     1.0  0.80570  0.92452  0.93919  1.0000
  H   H2928     1.0  0.76360  0.94407  0.94220  1.0000
  H   H2929     1.0  0.76315  0.97397  0.97448  1.0000
  C   C1657     1.0  0.78401  0.81503  0.75919  1.0000
  C   C1658     1.0  0.77558  0.80068  0.77580  1.0000
  C   C1659     1.0  0.77451  0.82073  0.79351  1.0000
  C   C1660     1.0  0.78191  0.85559  0.79497  1.0000
  C   C1661     1.0  0.79026  0.87021  0.77829  1.0000
  C   C1662     1.0  0.79132  0.85018  0.76057  1.0000
  H   H2930     1.0  0.76984  0.77361  0.77501  1.0000
  H   H2931     1.0  0.76807  0.80882  0.80612  1.0000
  H   H2932     1.0  0.79596  0.89733  0.77911  1.0000
  C   C1663     1.0  0.76199  0.09135  0.95350  1.0000
  C   C1664     1.0  0.94595  0.91359  0.76233  1.0000
  C   C1665     1.0  0.94572  0.88908  0.78128  1.0000
  C   C1666     1.0  0.95460  0.89487  0.79493  1.0000
  C   C1667     1.0  0.96393  0.92516  0.78977  1.0000
  C   C1668     1.0  0.96419  0.94962  0.77083  1.0000
  C   C1669     1.0  0.95525  0.94402  0.75721  1.0000
  H   H2933     1.0  0.93854  0.86558  0.78546  1.0000
  H   H2934     1.0  0.95414  0.87611  0.80947  1.0000
  H   H2935     1.0  0.97130  0.97334  0.76666  1.0000
  H   H2936     1.0  0.82964  0.74874  0.77388  1.0000
  H   H2937     1.0  0.74734  0.18835  0.79630  1.0000
  Fe  Fe191     1.0  0.99014  0.81726  0.86038  1.0000
  C   C1670     1.0  0.94920  0.89570  0.94878  1.0000
  C   C1671     1.0  0.95741  0.87618  0.93376  1.0000
  C   C1672     1.0  0.96466  0.83535  0.93870  1.0000
  C   C1673     1.0  0.96351  0.81399  0.95830  1.0000
  H   H2938     1.0  0.76948  0.99733  0.89927  1.0000
  H   H2939     1.0  0.94363  0.92747  0.94520  1.0000
  H   H2940     1.0  0.97101  0.81979  0.92737  1.0000
  H   H2941     1.0  0.96905  0.78211  0.96185  1.0000
  H   H2942     1.0  0.74946  0.71170  0.97380  1.0000
  H   H2943     1.0  0.77492  0.08309  0.91469  1.0000
  H   H2944     1.0  0.74855  0.93853  0.75468  1.0000
  S   S380      1.0  0.74962  0.92561  0.89582  1.0000
  H   H2945     1.0  0.97257  0.92206  0.95910  1.0000
  C   C1674     1.0  0.74616  0.03629  0.91525  1.0000
  H   H2946     1.0  0.83710  0.72896  0.75122  1.0000
  H   H2947     1.0  0.76301  0.90359  0.76208  1.0000
  H   H2948     1.0  0.98353  0.74318  0.78804  1.0000
  C   C1675     1.0  0.78723  0.83766  0.98163  1.0000
  H   H2949     1.0  0.74910  0.00217  0.92237  1.0000
  H   H2950     1.0  0.97386  0.93503  0.99374  1.0000
  C   C1676     1.0  0.82313  0.84293  0.80694  1.0000
  H   H2951     1.0  0.94208  0.89050  0.97988  1.0000
  H   H2952     1.0  0.90749  0.87385  0.94185  1.0000
  C   C1677     1.0  0.74575  0.13230  0.76921  1.0000
  H   H2953     1.0  0.85363  0.76573  0.75915  1.0000
  H   H2954     1.0  0.92962  0.80151  0.97781  1.0000
  H   H2955     1.0  0.98028  0.03289  0.79397  1.0000
  H   H2956     1.0  0.76567  0.10489  0.98270  1.0000
  H   H2957     1.0  0.76815  0.81573  0.99002  1.0000
  H   H2958     1.0  0.97159  0.74144  0.82941  1.0000
  C   C1678     1.0  0.91575  0.85474  0.94959  1.0000
  H   H2959     1.0  0.91937  0.79649  0.93271  1.0000
  H   H2960     1.0  0.93046  0.88408  0.91567  1.0000
  H   H2961     1.0  0.91694  0.86076  0.90736  1.0000
  C   C1679     1.0  0.82388  0.84463  0.78442  1.0000
  H   H2962     1.0  0.86469  0.83073  0.76772  1.0000
  H   H2963     1.0  0.75772  0.13793  0.91636  1.0000
  H   H2964     1.0  0.84109  0.79682  0.78455  1.0000
  H   H2965     1.0  0.81300  0.85510  0.81265  1.0000
  H   H2966     1.0  0.96203  0.75439  0.80820  1.0000
  H   H2967     1.0  0.92224  0.88006  0.95182  1.0000
  H   H2968     1.0  0.81904  0.89489  0.74776  1.0000
  C   C1680     1.0  0.75288  0.90367  0.75780  1.0000
  H   H2969     1.0  0.90222  0.75433  0.95762  1.0000
  H   H2970     1.0  0.90336  0.92389  0.96521  1.0000
  C   C1681     1.0  0.89547  0.78490  0.95455  1.0000
  C   C1682     1.0  0.95525  0.83329  0.97330  1.0000
  H   H2971     1.0  0.98585  0.77613  0.74880  1.0000
  N   N93       1.0  0.94229  0.03083  0.82419  1.0000
  C   C1683     1.0  0.93085  0.03194  0.81187  1.0000
  C   C1684     1.0  0.93967  0.06627  0.83807  1.0000
  C   C1685     1.0  0.95418  0.04121  0.81011  1.0000
  C   C1686     1.0  0.94543  0.98573  0.83552  1.0000
  C   C1687     1.0  0.93420  0.96719  0.84986  1.0000
  C   C1688     1.0  0.93229  0.99795  0.79660  1.0000
  C   C1689     1.0  0.96681  0.04706  0.81976  1.0000
  C   C1690     1.0  0.92520  0.07806  0.84635  1.0000
  C   C1691     1.0  0.92445  0.10773  0.86285  1.0000
  C   C1692     1.0  0.93827  0.91977  0.85881  1.0000
  C   C1693     1.0  0.91986  0.00086  0.78584  1.0000
  C   C1694     1.0  0.97787  0.05920  0.80395  1.0000
  H   H2972     1.0  0.92897  0.06561  0.80359  1.0000
  H   H2973     1.0  0.92162  0.02632  0.82131  1.0000
  H   H2974     1.0  0.94579  0.05745  0.85082  1.0000
  H   H2975     1.0  0.94278  0.09841  0.83047  1.0000
  H   H2976     1.0  0.95176  0.07196  0.79991  1.0000
  H   H2977     1.0  0.95707  0.01455  0.80046  1.0000
  H   H2978     1.0  0.94907  0.96091  0.82517  1.0000
  H   H2979     1.0  0.95370  0.98602  0.84471  1.0000
  H   H2980     1.0  0.92523  0.96657  0.84227  1.0000
  H   H2981     1.0  0.93190  0.98725  0.86240  1.0000
  H   H2982     1.0  0.94048  0.00427  0.78509  1.0000
  H   H2983     1.0  0.93398  0.96359  0.80398  1.0000
  H   H2984     1.0  0.97048  0.01592  0.82859  1.0000
  H   H2985     1.0  0.96507  0.07367  0.82958  1.0000
  H   H2986     1.0  0.91951  0.09650  0.83435  1.0000
  H   H2987     1.0  0.92022  0.04841  0.85233  1.0000
  H   H2988     1.0  0.91400  0.11667  0.86808  1.0000
  H   H2989     1.0  0.92957  0.09012  0.87559  1.0000
  H   H2990     1.0  0.92899  0.13877  0.85736  1.0000
  H   H2991     1.0  0.94687  0.91888  0.86746  1.0000
  H   H2992     1.0  0.93006  0.90705  0.86898  1.0000
  H   H2993     1.0  0.94079  0.89763  0.84700  1.0000
  H   H2994     1.0  0.91128  0.99306  0.79645  1.0000
  H   H2995     1.0  0.91781  0.03445  0.77773  1.0000
  H   H2996     1.0  0.92126  0.97645  0.77490  1.0000
  H   H2997     1.0  0.96588  0.04934  0.90822  1.0000
  H   H2998     1.0  0.92025  0.87041  0.98646  1.0000
  H   H2999     1.0  0.81949  0.81717  0.74969  1.0000
  C   C1695     1.0  0.89687  0.81968  0.96848  1.0000
  H   H3000     1.0  0.99025  0.03402  0.90601  1.0000
  C   C1696     1.0  0.92409  0.82610  0.93472  1.0000
  H   H3001     1.0  0.89754  0.79911  0.93891  1.0000
  C   C1697     1.0  0.82945  0.79927  0.74748  1.0000
  N   N94       1.0  0.91062  0.83131  0.96934  1.0000
  C   C1698     1.0  0.99125  0.95001  0.95959  1.0000
  C   C1699     1.0  0.82889  0.75108  0.75774  1.0000
  H   H3002     1.0  0.89034  0.84966  0.96333  1.0000
  H   H3003     1.0  0.93389  0.81482  0.94018  1.0000
  H   H3004     1.0  0.97290  0.87739  0.99205  1.0000
  H   H3005     1.0  0.76794  0.04919  0.88380  1.0000
  H   H3006     1.0  0.98287  0.80984  0.81867  1.0000
  H   H3007     1.0  0.79271  0.00770  0.90377  1.0000
  Fe  Fe192     1.0  0.75113  0.96202  0.86513  1.0000
  H   H3008     1.0  0.87900  0.75594  0.97221  1.0000
  H   H3009     1.0  0.79118  0.05957  0.88760  1.0000
  H   H3010     1.0  0.81650  0.82349  0.78123  1.0000
  C   C1700     1.0  0.91012  0.86312  0.98461  1.0000
  C   C1701     1.0  0.83790  0.82880  0.77576  1.0000
  C   C1702     1.0  0.98191  0.80567  0.75620  1.0000
  C   C1703     1.0  0.97823  0.79469  0.80763  1.0000
  H   H3011     1.0  0.77237  0.07705  0.95090  1.0000
  H   H3012     1.0  0.78990  0.00798  0.87824  1.0000
  H   H3013     1.0  0.98927  0.98206  0.89704  1.0000
  H   H3014     1.0  0.83008  0.86431  0.81129  1.0000
  C   C1704     1.0  0.94822  0.87465  0.96845  1.0000
  H   H3015     1.0  0.78411  0.87348  0.97883  1.0000
  H   H3016     1.0  0.96482  0.99709  0.89901  1.0000
  C   C1705     1.0  0.75076  0.12378  0.88975  1.0000
  C   C1706     1.0  0.85296  0.79815  0.74962  1.0000
  H   H3017     1.0  0.75456  0.13352  0.77724  1.0000
  H   H3018     1.0  0.84443  0.85247  0.77946  1.0000
  H   H3019     1.0  0.97523  0.95804  0.92853  1.0000
  H   H3020     1.0  0.88064  0.74729  0.94647  1.0000
  C   C1707     1.0  0.96738  0.76859  0.81874  1.0000
  C   C1708     1.0  0.98208  0.91279  0.96557  1.0000
  H   H3021     1.0  0.97288  0.04012  0.88360  1.0000
  H   H3022     1.0  0.89701  0.97140  0.99202  1.0000
  S   S381      1.0  0.99248  0.84755  0.88791  1.0000
  C   C1709     1.0  0.90380  0.94061  0.99453  1.0000
  C   C1710     1.0  0.92633  0.85276  0.91438  1.0000
  C   C1711     1.0  0.75863  0.08784  0.97591  1.0000
  H   H3023     1.0  0.97687  0.00815  0.93775  1.0000
  H   H3024     1.0  0.75339  0.03158  0.95054  1.0000
  C   C1712     1.0  0.81604  0.73323  0.75494  1.0000
  H   H3025     1.0  0.98685  0.06237  0.81116  1.0000
  C   C1713     1.0  0.91988  0.79108  0.97580  1.0000
  C   C1714     1.0  0.97919  0.90489  0.98804  1.0000
  H   H3026     1.0  0.80760  0.75191  0.76278  1.0000
  H   H3027     1.0  0.77846  0.82542  0.95541  1.0000
  H   H3028     1.0  0.76461  0.18358  0.74826  1.0000
  H   H3029     1.0  0.87792  0.76061  0.76080  1.0000
  H   H3030     1.0  0.79550  0.83486  0.95124  1.0000
  H   H3031     1.0  0.93342  0.83313  0.90466  1.0000
  H   H3032     1.0  0.82110  0.87951  0.77859  1.0000
  C   C1715     1.0  0.98426  0.00582  0.90699  1.0000
  C   C1716     1.0  0.78807  0.81871  0.96188  1.0000
  H   H3033     1.0  0.82539  0.80836  0.81391  1.0000
  H   H3034     1.0  0.76091  0.11914  0.88257  1.0000
  C   C1717     1.0  0.87788  0.79025  0.74954  1.0000
  H   H3035     1.0  0.74587  0.64980  0.94867  1.0000
  C   C1718     1.0  0.97112  0.02419  0.89905  1.0000
  H   H3036     1.0  0.79106  0.78245  0.96380  1.0000
  H   H3037     1.0  0.89244  0.80846  0.98362  1.0000
  H   H3038     1.0  0.97349  0.82168  0.79757  1.0000
  C   C1719     1.0  0.98225  0.98311  0.92860  1.0000
  H   H3039     1.0  0.98790  0.85149  0.77434  1.0000
  H   H3040     1.0  0.74734  0.73053  0.93887  1.0000
  H   H3041     1.0  0.99229  0.05534  0.93757  1.0000
  H   H3042     1.0  0.74776  0.03389  0.89916  1.0000
  H   H3043     1.0  0.88648  0.80806  0.75103  1.0000
  C   C1720     1.0  0.75254  0.06667  0.94358  1.0000
  N   N95       1.0  0.75466  0.06840  0.92129  1.0000
  H   H3044     1.0  0.87428  0.80100  0.95353  1.0000
  H   H3045     1.0  0.89085  0.90240  0.98308  1.0000
  H   H3046     1.0  0.81632  0.69778  0.76114  1.0000
  H   H3047     1.0  0.97310  0.87243  0.74686  1.0000
  S   S382      1.0  0.74697  0.90471  0.85013  1.0000
  S   S383      1.0  0.99367  0.74492  0.85531  1.0000
  H   H3048     1.0  0.84483  0.89216  0.74941  1.0000
  H   H3049     1.0  0.75104  0.19549  0.88793  1.0000
  H   H3050     1.0  0.79771  0.86211  0.74794  1.0000
  C   C1721     1.0  0.86521  0.82110  0.75257  1.0000
  C   C1722     1.0  0.90141  0.90786  0.98055  1.0000
  C   C1723     1.0  0.91523  0.76187  0.99498  1.0000
  H   H3051     1.0  0.74861  0.10552  0.75956  1.0000
  C   C1724     1.0  0.75088  0.11549  0.91253  1.0000
  C   C1725     1.0  0.88148  0.77159  0.95689  1.0000
  H   H3052     1.0  0.75514  0.78713  0.95678  1.0000
  H   H3053     1.0  0.99142  0.89959  0.92766  1.0000
  H   H3054     1.0  0.75142  0.04114  0.77869  1.0000
  H   H3055     1.0  0.98627  0.97958  0.96625  1.0000
  H   H3056     1.0  0.74635  0.81153  0.93592  1.0000
  H   H3057     1.0  0.74849  0.84614  0.77886  1.0000
  H   H3058     1.0  0.98845  0.89552  0.99529  1.0000
  H   H3059     1.0  0.92748  0.70154  0.98806  1.0000
  H   H3060     1.0  0.97322  0.79722  0.76643  1.0000
  H   H3061     1.0  0.75084  0.97048  0.79999  1.0000
  H   H3062     1.0  0.92192  0.76821  0.96432  1.0000
  H   H3063     1.0  0.74574  0.89820  0.78897  1.0000
  H   H3064     1.0  0.75938  0.05261  0.98253  1.0000
  H   H3065     1.0  0.75529  0.01161  0.81389  1.0000
  H   H3066     1.0  0.74886  0.63320  0.98236  1.0000
  H   H3067     1.0  0.98655  0.88090  0.96055  1.0000
  H   H3068     1.0  0.74686  0.09022  0.80587  1.0000
  H   H3069     1.0  0.91407  0.94934  0.99186  1.0000
  H   H3070     1.0  0.90606  0.74760  0.99315  1.0000
  H   H3071     1.0  0.99345  0.74069  0.80783  1.0000
  C   C1726     1.0  0.99249  0.82163  0.76745  1.0000
  C   C1727     1.0  0.74535  0.79243  0.95089  1.0000
  H   H3072     1.0  0.74550  0.17656  0.86665  1.0000
  C   C1728     1.0  0.74517  0.17129  0.88307  1.0000
  N   N96       1.0  0.99456  0.96168  0.93766  1.0000
  S   S384      1.0  0.93421  0.90528  0.74604  1.0000
