data_image0
_chemical_formula_structural       H3FeCSHSH2SHCH5C2H2CH2CHC2HCH2CHCH8CHC2H6CHC2FeHCSHCNHSHCSC3HCH3C4SC3H3SH4CFeCH2CFeH4C2HCHC2H7NCHCH4C2H2CHC2HSFeH2CHCHCH6SCH3CH2CH2C2H10C3NH2CH2C2HC2H6FeHCHCH3FeS2FeS2FeSFeS3FeS2HSHFeSFeSH4FeHSFeH2CFeHS2HCH2CH2S2CH3C5H2C4H3FeC2H2C6H4C6H4C6H3C6H14C2H3SHSC2HSH4CH4C3HC2H4CH3CH4C2HCHCH8S2CH4NCH2CH6CHCHCH2NFeCHNH5C4SHC2NC8HC3H30CNC6HC4NH7CHCH3CH4C2H6SH8NC11H4C4H2CHCH3SH6SHCHCH2CH6C2H2CH4CH4NH3CHCHC3H2C3H2C2H5FeH2FeS2FeS2FeSFe2S2FeS2FeS2FeHFeS3HC2H3NFeHSHCS2CH2CHC4H4CH6CH4C7H4C6H4C6H4C4HCH2CFeHC4H7CH2SCH4SCH7C3H7C4H2NC10HCH24NH3CSHCHCSH2CHCH5SHSCFeC4HC2HC2HCH2CHCH4CH9CHFeHSH2C2SCH6CSHC2HNCHC5HCH6SH4C2H2C2H2CH3CH7C4H3CH2CHCH6CH3CNH3NH4CH5CHCSFeSHSHFeS2FeSNFeSFeSHSHCSCFeS2FeS2FeHFeCS2H4CHC6H4C6H5CSH4CHCHC3H4CHC6H5CH2CHFeHCH2CHCH3CH2NC7H17CH3CH3CNCHC2HC2HCHCH9CHCH4CHCHCH3CH3C2H3C2H2CHNC3HC6H7Fe2SCH12NH2C2H3CSFeHC2H2SH4CHSC2HCH3SHC2H7CH2NCH4CH4C2SC2FeSCSFeCSH2NSFeS2FeS2FeSFeS5FeS2HC6H4C6H4C6H4CH2C7H5CH2C2H7CSCHFeH8SNFeH2C2FeCH2C2HC2H4CNH9CFeHC2HCHC2HFeC2H6SC2H5NH2C2H2CH10C2H3CS2HCHFeHNC8H3CH8CH7CFeSH9CH3CSH4FeCHC2HC3SH3C3HCH3FeSHSH3CHFeH3C2H2SHCH2CH3CHNC11H18CH3C2H3CH3CH3SH2C2SHC3HCH2CHC2SFeSH2CHC2HC2H4CH5SHCHCHSHCHFeH3C2SHCHCH3CNH5C2HFeS2FeSCHFeS3H2CH2SCH5CHCH2CH2CHC2FeS2FeS2FeSFeS4HCH5NCNHCH2CH4C9H6C2HCH2CFeC2H8CHCHC7H4C6H4CH6C5H4CFeH3C2H4CH6C2H5CNCHCSH2C3H2C2H9CH2FeCH3CHC4H2C2H3NC9HC2H18CH8NC3HSCHCH2CH2C2HSHCHCH7CH2CHFeH5CNC9H18CSH4CHFeHCH2CH4CHSCHCH5C2H2CH3S2CHC2H2SH2CSHCHCHFeHNH3C2H2CHSCH2CH6FeH2SH2CH3C2SCH4CH3C2HC2H2CH4CH8C2HCH2CH2C3H4CH4CH4CH4C2H4CH2S2CHCH3CH7CH3CHCHCHCH3C2HCHC3NH4C3H3NH2CH4SHC2HCHSC2HCH3FeS2FeS2Fe2S3FeS2CH2FeCHCS2FeS2FeS2FeSFeS3FeSFeS2FeSFeCS2C2H2FeHSHS2C4HCHC2HC2H2C7H5CHC4SH4C3HCH2CH2C6H4C6H4C6H7FeCH2S2H3C6H6CH7CH5CSCH2CH2NCHCHCH3CH3CH3CHCH6SHCHSH2SCH2CHNC12H28NC2H3CH7C2H2CHCH3CHCHNC12H25NCSHSCHFe2H3SH2FeH2CH4CH3CHCHSHC2HC2H8C2HC2HC3H2CH2C4HNCH5CHCH4CH3CHC5H4SCH2CHCFeHC2HC5H3C2H7CHC2H5CH2SHCH4CH3SHC2HCH4CH6C2HCNC2H5CH4C3FeHC2FeSH2SH5NSH5FeCHC2HC3H2SCH2C2HNCHCH5CH2CHNH6FeHC2H2CH3CH3CNH4CH5CSH2NH6CH2C2HSH3CHFeCH3C2H6SHFe2S3FeSCHSCHFeCSFeHSHCH2SHFeHSCHCHCHS2H3CH4CH4FeHC2H7SHCH4SC8H3CNCH2NC3FeH5CH3C5H6C5H4CNH3C6H3C3H3SCH6CHC4HCHCH2SH8NC12H28NC4HC2H2C3HCH8SC2H2SC2H3NC7HC3H13CHFeH2CSFeH2SHFeCH4CH5C2HSCNH2CH2SC4H3SCH4CHFeSCHSCH2C3H4CH2CHFeHC2H3SHC2HSNC2H2C3SCH9SCFeC2H2CFeHC3H2CSHC2SHSHCNCSH2CHCH4CH3C2HC2HSCSFeCSCSC2FeC3H2C2H2CH2CHS2C2HSHSHSH8CHFeH2FeC2H4CH5FeH2C2H6CSCHCHCH2CHFeSCH2CHCH3FeNCHSHCH2SH4CHCHFeCH2CH2FeC2FeHCHCSH2S2CH2SCH2CH2NH4CH7SH2SCHCH4CH7C2H2FeCH3CHC2H2CH2SH6C4H2CHCH2CH3SHC5FeS2FeSFeS2FeS2FeCFeS3CNH2CH3C6H5CHCFeHCH3CH3C2H4C3H5NHC2H3CH7CHSH5C2H5FeHC5H2C4H5CHC3H2C2H3SC2HCFeCSH2CHSHC2HCHCH3CH11CH2CH8SCH2C3H2CHSCH2CHSNH5C4H2C2HCH15CH2CH3C3HNH3SH4CHCH2C3HC2H4C2H7CH6C2H4C3NSH6C2HCHC2H4CHCH2CH5CHCHNHCH4CHCH4CH2CH2C2H2CH2NHCHCH7CH2C2HCH5CH3CHC2HCHCHFeS2FeS2FeSFeCS2FeS2FeS2FeSFeHS2CHC3H4FeHCH2CH3CH2C2H2FeCHFeC2HSC2H2C3H3C2HC3H4SH3CH2CH7C6H8CH5C4H2CH3C2HSH2CH3CHC2H2C2HSH2C2HFeH4SCH3CSCH3CH3NC3HC3H3CH15CHCH5CHCH2CHCS2H4CH6C2HCHCH2CHCH5CHSH8CHFeH3CH3C3NC3SC3H14CH2NC12H15S2H2C3SFeH2C2H2NH2CHCH6CHCHC4SHCH4CHC3SCS2HCFeHSNH3CHCHCSH4CNCH3C2HC2H8SHCSCFeS2FeS2FeSFeS3FeS4FeS2FeSFeHSHCHFeSCFeS2FeSFeS3FeSC4SH5C6H4CH5C6H4C6H5CHC6H6C2HCH2CH2SHC2HC3SH2CH2NC10HCH22CH3NC7H22NC10H20NC8H15CH2CHCH2NC2H3CHSHC3H6FeCH4NH2CH2CHFeSCH2CHCH3CSCH2C3HSCH2CH2C2H5C2H4SCH3CHC2HSHCHCH2C2H4FeSHC2HCH3CH3C2SHCH2CHNH2C2HSC2H2C2H4CHC2H4CH2CSH2C3H2CH5CHCH2FeC3H4FeCH3C4H2SHCSCH2CHCFeH2C2H7CH3SC2H2CHCH3NHC4SFeCH2C2HSHSHFe2H5CHC2HSC2HCNH2CH3CSHSCHCHCHCNH2C3H2CHCH2C3HC2H5CH5SFeSH3CHC3H2FeHCHCSHC2H5C2H5FeHC2SFeCHCNCH5C3HFeCHC4FeCH2SH4C2HCH3CH7C2SH2CNCH9CFeH9C2H9SCH4CH4CHCH2CH5CH3CHCHCHSHC2H2FeH2FeS2FeSFeNS2H3CHC6H5CH2CHCHCHCH5CH10C3H6CHCH3CH6C3H3NC2HCH3CH5C2HCHCS2HFeHNH2C3H2CH2CHCH2C2H6FeS2FeS2FeSFeS3FeS2FeS2FeSFeS3H2SFeHSH2CHSFeCSFeS2H2FeS3H2CH3CH10CH4C7H4SN2H2C6H4C6H4C6H4C6H4C6H4C6H4FeH3C2H4C3H4C2NC12H17CH9CHC2HNCH2C2H2CHCH3CH4CH2C2H2CFeCHCH9CHCH9C2SCH2CHCH3CH3CHC2H2CHCH3CHCH4CHC2HCHC4HCH4CH8CH11NC8H18CHCHCH3C4HC2H6CHSH3NH4NCH5FeSCHCH2CH6CH2C2HC2H10CH2CH4FeS3FeS2FeS2FeHSFeHSHCFeS2FeS2FeS2FeSFeS3H4C2HCHC7H4C6H5C6H3C6H4C3HSHCH3CHCHCH3CH3NH2CH3C3H2CHSH2CHC2H7SCH3CH4CH3FeCH3CHC2HNC2HC2H2C3H2CH3C2H6CH3CH4CH2CHFeCH2CH3C2HSCH2CH8NC10H16CH6NCHC4H3C2H10CH2CH4CH7CHC2SCH3C2H3S2HNHNC2HC5FeC2H4CH8CH15NC9SC2H19C2H4FeH2SHCHC2H3CH2FeHC4SC2H2C2H3C2NHCHFeH2CHCH6C5H5NH4CHCSH3CH3C2HC2SH2C2HCH3CH2SH3CH3C4HC2SFeS2FeS2FeSFeS3H5SCH3SFeSFeS2FeSFeS3H2SH3CHCHCH3C2H6NHC6H4C6H5C6H3C2HCHCHCHCHCH3SH6SCHC2H9CH2SC2H2CH4CH2C2HCHCH4CH2C3H6CH2C2H3CSCH2CH2C3HC2HCHC2H2CHCH3C3HC5HNH3NHC4HCH2C2NHCH8CH2C2H3SH3CHSHCHNC9HC2H15CH13FeH2CH2CH4CSCH6C2H3CHC2HC2H2C2NH2CHCH2CH3CH2CH3CHC3H3CFeCHCSCH3CH2NH5CHCH2C2HC3H4FeH3CH3CH2CH3CH3CH5CSHCH4CH2C2HSH4CHSFeS2FeHFeHS2FeSCFeS2FeSFeHS2FeS2FeS2FeSFeS3Fe3HSH2C6H2CHCHCH3CH3C6H6C2HCSC2SHCH3C5H2C6H6C6H4CHCHCHC2H2CHC4H3CH3NC6H14CH5SCHC2HCHSC2H2NC12H23CH4S2H2SH3C2H2C2HCH2CH3CH2CH9CHFeH3C3H5CH4CHCNCFeHCHNSHCHCHC2H3NH9C2H2NHSC3HCH3S2C2HCHCH3CHCH2CHCH2CHCH4SHSCH2CH6CH2SH3CHCFeHFeH2CHCH5C3HCH2C2H4CH2CH3NH2CH2CH4SHCH8CNHCH7CH4CHCHC2HC3HFeSHFeS2FeSFeS3FeS2HFeS2HC6H6CHC3H3C2HCHCH3CH3CH2C2HC2SC2H4SHCH2CHCH3CH3CHCNH3CH2CHC5HC2HCH13C2H5C2H4CHNHFeH4CH2CHSCH2C2FeHCH3C4H2CSHCH6C3H2CHCHCH3NCH5CHCH4CH3C2HC2HC3H3CH3NH3C3HCH6CH3CHCFeCHSCHCH3CH2NH2CHNH2CH2CHCH4C2HCH4CHCH9C2HCHCH4C3H2CH3SH3CH3CH11CH5CH2CH6C2HN
_chemical_formula_sum              "H4096 Fe256 C2304 S512 N128"
_cell_length_a       69.5691
_cell_length_b       89.0439
_cell_length_c       52.8373
_cell_angle_alpha    74.7689
_cell_angle_beta     75.5959
_cell_angle_gamma    75.9113

_space_group_name_H-M_alt    "P 1"
_space_group_IT_number       1

loop_
  _space_group_symop_operation_xyz
  'x, y, z'

loop_
  _atom_site_type_symbol
  _atom_site_label
  _atom_site_symmetry_multiplicity
  _atom_site_fract_x
  _atom_site_fract_y
  _atom_site_fract_z
  _atom_site_occupancy
  H   H1        1.0  0.28767  0.02585  0.23771  1.0000
  H   H2        1.0  0.32872  0.21767  0.23301  1.0000
  H   H3        1.0  0.33142  0.06173  0.09008  1.0000
  Fe  Fe1       1.0  0.30966  0.01220  0.14466  1.0000
  C   C1        1.0  0.29851  0.02879  0.21863  1.0000
  S   S1        1.0  0.30636  0.03805  0.14631  1.0000
  H   H4        1.0  0.29719  0.15018  0.23063  1.0000
  S   S2        1.0  0.30098  0.99382  0.18169  1.0000
  H   H5        1.0  0.30956  0.16688  0.15852  1.0000
  H   H6        1.0  0.26133  0.00250  0.08965  1.0000
  S   S3        1.0  0.29188  0.00497  0.12102  1.0000
  H   H7        1.0  0.32459  0.14288  0.25722  1.0000
  C   C2        1.0  0.31062  0.17951  0.15531  1.0000
  H   H8        1.0  0.29232  0.04066  0.20733  1.0000
  H   H9        1.0  0.31561  0.12126  0.12916  1.0000
  H   H10       1.0  0.30009  0.02004  0.20634  1.0000
  H   H11       1.0  0.31681  0.03859  0.23467  1.0000
  H   H12       1.0  0.32633  0.10355  0.15098  1.0000
  C   C3        1.0  0.32320  0.17143  0.28028  1.0000
  C   C4        1.0  0.32634  0.04500  0.15193  1.0000
  H   H13       1.0  0.31567  0.17068  0.23093  1.0000
  H   H14       1.0  0.32207  0.19532  0.20221  1.0000
  C   C5        1.0  0.31204  0.14277  0.22404  1.0000
  H   H15       1.0  0.32718  0.08816  0.11631  1.0000
  H   H16       1.0  0.31862  0.01199  0.26150  1.0000
  C   C6        1.0  0.31906  0.02892  0.22393  1.0000
  H   H17       1.0  0.30223  0.10503  0.14268  1.0000
  C   C7        1.0  0.32857  0.14608  0.23505  1.0000
  C   C8        1.0  0.32150  0.16477  0.31035  1.0000
  H   H18       1.0  0.30695  0.06600  0.16344  1.0000
  C   C9        1.0  0.32818  0.21461  0.21420  1.0000
  H   H19       1.0  0.29813  0.18690  0.14532  1.0000
  H   H20       1.0  0.32142  0.18446  0.27701  1.0000
  C   C10       1.0  0.32667  0.19718  0.21965  1.0000
  H   H21       1.0  0.31895  0.10650  0.09474  1.0000
  C   C11       1.0  0.25669  0.99144  0.08960  1.0000
  H   H22       1.0  0.31055  0.16856  0.27437  1.0000
  H   H23       1.0  0.30669  0.17017  0.32124  1.0000
  H   H24       1.0  0.30867  0.18236  0.17513  1.0000
  H   H25       1.0  0.31439  0.19502  0.23724  1.0000
  H   H26       1.0  0.32265  0.15170  0.31507  1.0000
  H   H27       1.0  0.31897  0.20754  0.13063  1.0000
  H   H28       1.0  0.32360  0.15537  0.09490  1.0000
  H   H29       1.0  0.31082  0.13009  0.23160  1.0000
  C   C12       1.0  0.32792  0.10095  0.11052  1.0000
  H   H30       1.0  0.24548  0.99447  0.07644  1.0000
  C   C13       1.0  0.31745  0.10814  0.13484  1.0000
  C   C14       1.0  0.32225  0.05928  0.16069  1.0000
  H   H31       1.0  0.31461  0.22225  0.20691  1.0000
  H   H32       1.0  0.31586  0.14512  0.20182  1.0000
  H   H33       1.0  0.32895  0.11277  0.04585  1.0000
  H   H34       1.0  0.32158  0.14025  0.01954  1.0000
  H   H35       1.0  0.32831  0.12748  0.06419  1.0000
  H   H36       1.0  0.32475  0.00332  0.23346  1.0000
  C   C15       1.0  0.32791  0.01285  0.24086  1.0000
  H   H37       1.0  0.32947  0.03181  0.20456  1.0000
  C   C16       1.0  0.33111  0.18227  0.13783  1.0000
  C   C17       1.0  0.33090  0.16366  0.22503  1.0000
  Fe  Fe2       1.0  0.32058  0.98826  0.10895  1.0000
  H   H38       1.0  0.33190  0.17918  0.11861  1.0000
  C   C18       1.0  0.30588  0.21444  0.52975  1.0000
  S   S4        1.0  0.30415  0.11269  0.71478  1.0000
  H   H39       1.0  0.24545  0.15610  0.70891  1.0000
  C   C19       1.0  0.24385  0.23021  0.57524  1.0000
  N   N1        1.0  0.32193  0.15525  0.73443  1.0000
  H   H40       1.0  0.33135  0.02041  0.73329  1.0000
  S   S5        1.0  0.25356  0.17611  0.65590  1.0000
  H   H41       1.0  0.22164  0.17311  0.81405  1.0000
  C   C20       1.0  0.28244  0.21257  0.76761  1.0000
  S   S6        1.0  0.22580  0.21983  0.64478  1.0000
  C   C21       1.0  0.30712  0.20711  0.55958  1.0000
  C   C22       1.0  0.27151  0.13709  0.71129  1.0000
  C   C23       1.0  0.26041  0.15139  0.69889  1.0000
  H   H42       1.0  0.33049  0.99597  0.66601  1.0000
  C   C24       1.0  0.28756  0.15267  0.66011  1.0000
  H   H43       1.0  0.26508  0.13094  0.73097  1.0000
  H   H44       1.0  0.31429  0.18132  0.80492  1.0000
  H   H45       1.0  0.13130  0.21815  0.78685  1.0000
  C   C25       1.0  0.30493  0.16647  0.72201  1.0000
  C   C26       1.0  0.30978  0.22607  0.74137  1.0000
  C   C27       1.0  0.32566  0.17497  0.79052  1.0000
  C   C28       1.0  0.31503  0.16954  0.77353  1.0000
  S   S7        1.0  0.17094  0.22937  0.67971  1.0000
  C   C29       1.0  0.29583  0.18320  0.56001  1.0000
  C   C30       1.0  0.28313  0.16687  0.73896  1.0000
  C   C31       1.0  0.26838  0.18067  0.72622  1.0000
  H   H46       1.0  0.13355  0.23397  0.80072  1.0000
  H   H47       1.0  0.29370  0.15831  0.64002  1.0000
  H   H48       1.0  0.30846  0.19711  0.65687  1.0000
  S   S8        1.0  0.26311  0.21348  0.67594  1.0000
  H   H49       1.0  0.30202  0.14313  0.76814  1.0000
  H   H50       1.0  0.30785  0.17881  0.71610  1.0000
  H   H51       1.0  0.30425  0.16340  0.70310  1.0000
  H   H52       1.0  0.31367  0.13371  0.66253  1.0000
  C   C32       1.0  0.30190  0.21569  0.76438  1.0000
  Fe  Fe3       1.0  0.24245  0.19910  0.67071  1.0000
  C   C33       1.0  0.29081  0.13067  0.69836  1.0000
  H   H53       1.0  0.22846  0.19239  0.80556  1.0000
  H   H54       1.0  0.30416  0.18003  0.76550  1.0000
  C   C34       1.0  0.26836  0.15925  0.67318  1.0000
  Fe  Fe4       1.0  0.23891  0.21832  0.71148  1.0000
  H   H55       1.0  0.28583  0.16217  0.53658  1.0000
  H   H56       1.0  0.31848  0.04903  0.72004  1.0000
  H   H57       1.0  0.27799  0.15579  0.74036  1.0000
  H   H58       1.0  0.28190  0.16806  0.75960  1.0000
  C   C35       1.0  0.29636  0.18881  0.60227  1.0000
  C   C36       1.0  0.33021  0.16331  0.75000  1.0000
  H   H59       1.0  0.27279  0.19197  0.72531  1.0000
  C   C37       1.0  0.27916  0.22960  0.72430  1.0000
  H   H60       1.0  0.32833  0.22891  0.60010  1.0000
  C   C38       1.0  0.22002  0.18493  0.80021  1.0000
  C   C39       1.0  0.19766  0.19265  0.80234  1.0000
  H   H61       1.0  0.26839  0.17978  0.70569  1.0000
  H   H62       1.0  0.20125  0.21658  0.79358  1.0000
  H   H63       1.0  0.29314  0.18789  0.53924  1.0000
  H   H64       1.0  0.26012  0.19799  0.59116  1.0000
  H   H65       1.0  0.30905  0.17845  0.60161  1.0000
  H   H66       1.0  0.18114  0.21742  0.73764  1.0000
  H   H67       1.0  0.18419  0.18922  0.75722  1.0000
  N   N2        1.0  0.29223  0.19647  0.57452  1.0000
  C   C40       1.0  0.28270  0.17029  0.57322  1.0000
  H   H68       1.0  0.28946  0.20922  0.62072  1.0000
  C   C41       1.0  0.17253  0.23536  0.77492  1.0000
  H   H69       1.0  0.32283  0.20042  0.56018  1.0000
  H   H70       1.0  0.26640  0.17550  0.57405  1.0000
  H   H71       1.0  0.30433  0.15125  0.55698  1.0000
  H   H72       1.0  0.30562  0.21688  0.56976  1.0000
  C   C42       1.0  0.28826  0.15722  0.55739  1.0000
  C   C43       1.0  0.30496  0.18948  0.64576  1.0000
  H   H73       1.0  0.18991  0.18464  0.79744  1.0000
  H   H74       1.0  0.28320  0.18390  0.61499  1.0000
  C   C44       1.0  0.31471  0.14043  0.75159  1.0000
  H   H75       1.0  0.31912  0.99741  0.73631  1.0000
  C   C45       1.0  0.16953  0.21408  0.75564  1.0000
  C   C46       1.0  0.32111  0.11319  0.78193  1.0000
  H   H76       1.0  0.27621  0.20479  0.78564  1.0000
  S   S9        1.0  0.21936  0.20253  0.70779  1.0000
  Fe  Fe5       1.0  0.20420  0.22460  0.68241  1.0000
  H   H77       1.0  0.15896  0.20009  0.81026  1.0000
  H   H78       1.0  0.31054  0.21053  0.78003  1.0000
  C   C47       1.0  0.27047  0.20499  0.57551  1.0000
  H   H79       1.0  0.31192  0.17707  0.55818  1.0000
  C   C48       1.0  0.16885  0.19661  0.75724  1.0000
  H   H80       1.0  0.31465  0.20579  0.51730  1.0000
  C   C49       1.0  0.27106  0.21951  0.74753  1.0000
  H   H81       1.0  0.00930  0.23546  0.74309  1.0000
  H   H82       1.0  0.28495  0.16453  0.59388  1.0000
  H   H83       1.0  0.27861  0.14820  0.56715  1.0000
  H   H84       1.0  0.15819  0.19185  0.77525  1.0000
  H   H85       1.0  0.31764  0.17921  0.64416  1.0000
  H   H86       1.0  0.16077  0.18238  0.73525  1.0000
  S   S10       1.0  0.24669  0.21566  0.75156  1.0000
  C   C50       1.0  0.30178  0.19904  0.61798  1.0000
  H   H87       1.0  0.30841  0.13511  0.73942  1.0000
  H   H88       1.0  0.25288  0.18063  0.73832  1.0000
  H   H89       1.0  0.31605  0.20326  0.60757  1.0000
  C   C51       1.0  0.29891  0.13862  0.67281  1.0000
  H   H90       1.0  0.17333  0.19803  0.71442  1.0000
  H   H91       1.0  0.14712  0.20259  0.73082  1.0000
  C   C52       1.0  0.16206  0.19488  0.73295  1.0000
  H   H92       1.0  0.26579  0.20574  0.55647  1.0000
  H   H93       1.0  0.12550  0.21763  0.84672  1.0000
  C   C53       1.0  0.32280  0.99285  0.71773  1.0000
  C   C54       1.0  0.13598  0.22090  0.80346  1.0000
  H   H94       1.0  0.23243  0.22280  0.58647  1.0000
  H   H95       1.0  0.29111  0.18508  0.65747  1.0000
  H   H96       1.0  0.33032  0.22749  0.52194  1.0000
  H   H97       1.0  0.19137  0.19343  0.82357  1.0000
  H   H98       1.0  0.30969  0.99848  0.70767  1.0000
  H   H99       1.0  0.15513  0.22160  0.75060  1.0000
  H   H100      1.0  0.20541  0.20902  0.76442  1.0000
  H   H101      1.0  0.12292  0.20185  0.83270  1.0000
  H   H102      1.0  0.22683  0.18332  0.77950  1.0000
  H   H103      1.0  0.12951  0.22826  0.68563  1.0000
  C   C55       1.0  0.31451  0.22964  0.51927  1.0000
  C   C56       1.0  0.15836  0.21307  0.80476  1.0000
  C   C57       1.0  0.33058  0.12725  0.76469  1.0000
  N   N3        1.0  0.17383  0.21764  0.77988  1.0000
  H   H104      1.0  0.16199  0.21599  0.82211  1.0000
  H   H105      1.0  0.30672  0.16040  0.78704  1.0000
  C   C58       1.0  0.19498  0.20952  0.78408  1.0000
  H   H106      1.0  0.29390  0.23173  0.62925  1.0000
  H   H107      1.0  0.24391  0.23252  0.55352  1.0000
  C   C59       1.0  0.32809  0.04250  0.70465  1.0000
  C   C60       1.0  0.32675  0.02494  0.71367  1.0000
  H   H108      1.0  0.31432  0.23403  0.49761  1.0000
  C   C61       1.0  0.12179  0.21486  0.82936  1.0000
  C   C62       1.0  0.29830  0.23306  0.72144  1.0000
  H   H109      1.0  0.31059  0.02424  0.71654  1.0000
  H   H110      1.0  0.27534  0.22979  0.56794  1.0000
  H   H111      1.0  0.32282  0.04782  0.68547  1.0000
  H   H112      1.0  0.20469  0.23719  0.75817  1.0000
  H   H113      1.0  0.29010  0.21745  0.52666  1.0000
  H   H114      1.0  0.31474  0.10802  0.76956  1.0000
  Fe  Fe6       1.0  0.24471  0.23438  0.65306  1.0000
  H   H115      1.0  0.32809  0.15028  0.61192  1.0000
  C   C63       1.0  0.26487  0.22202  0.58083  1.0000
  H   H116      1.0  0.30894  0.11691  0.79841  1.0000
  C   C64       1.0  0.13006  0.23677  0.69664  1.0000
  H   H117      1.0  0.10594  0.22074  0.82798  1.0000
  H   H118      1.0  0.26455  0.22162  0.60201  1.0000
  H   H119      1.0  0.27041  0.23513  0.70883  1.0000
  Fe  Fe7       1.0  0.09074  0.39860  0.26370  1.0000
  S   S11       1.0  0.09687  0.38258  0.30265  1.0000
  S   S12       1.0  0.08454  0.38739  0.23338  1.0000
  Fe  Fe8       1.0  0.09840  0.42704  0.27819  1.0000
  S   S13       1.0  0.10532  0.41356  0.31789  1.0000
  S   S14       1.0  0.10289  0.45221  0.26519  1.0000
  Fe  Fe9       1.0  0.12283  0.39469  0.29599  1.0000
  S   S15       1.0  0.15404  0.38233  0.30190  1.0000
  Fe  Fe10      1.0  0.07864  0.40271  0.32179  1.0000
  S   S16       1.0  0.05770  0.39682  0.36183  1.0000
  S   S17       1.0  0.11838  0.40914  0.25556  1.0000
  S   S18       1.0  0.06992  0.41785  0.28334  1.0000
  Fe  Fe11      1.0  0.13328  0.38706  0.05157  1.0000
  S   S19       1.0  0.10133  0.38777  0.07473  1.0000
  S   S20       1.0  0.15690  0.36486  0.05830  1.0000
  H   H120      1.0  0.19127  0.38243  0.38916  1.0000
  S   S21       1.0  0.09129  0.42415  0.03962  1.0000
  H   H121      1.0  0.14214  0.46211  0.21735  1.0000
  Fe  Fe12      1.0  0.10327  0.41215  0.07719  1.0000
  S   S22       1.0  0.09546  0.42389  0.11229  1.0000
  Fe  Fe13      1.0  0.09263  0.39955  0.03473  1.0000
  S   S23       1.0  0.13572  0.41065  0.05664  1.0000
  H   H122      1.0  0.32393  0.30018  0.18453  1.0000
  H   H123      1.0  0.03158  0.46984  0.22845  1.0000
  H   H124      1.0  0.22849  0.41449  0.23414  1.0000
  H   H125      1.0  0.01896  0.33734  0.00240  1.0000
  Fe  Fe14      1.0  0.21776  0.37231  0.16644  1.0000
  H   H126      1.0  0.24157  0.42773  0.05279  1.0000
  S   S24       1.0  0.19131  0.36185  0.19181  1.0000
  Fe  Fe15      1.0  0.24037  0.37696  0.10957  1.0000
  H   H127      1.0  0.14477  0.44924  0.12337  1.0000
  H   H128      1.0  0.12855  0.32473  0.23272  1.0000
  C   C65       1.0  0.16483  0.43543  0.24019  1.0000
  Fe  Fe16      1.0  0.23660  0.40136  0.14175  1.0000
  H   H129      1.0  0.13806  0.43023  0.12897  1.0000
  S   S25       1.0  0.24257  0.37190  0.06952  1.0000
  S   S26       1.0  0.21350  0.39198  0.13044  1.0000
  H   H130      1.0  0.20451  0.44044  0.23296  1.0000
  C   C66       1.0  0.21462  0.47317  0.12452  1.0000
  H   H131      1.0  0.13084  0.36077  0.44440  1.0000
  H   H132      1.0  0.21296  0.44716  0.03520  1.0000
  C   C67       1.0  0.17978  0.46213  0.02395  1.0000
  H   H133      1.0  0.04764  0.36375  0.03609  1.0000
  H   H134      1.0  0.16751  0.43425  0.17471  1.0000
  S   S27       1.0  0.13601  0.43959  0.98628  1.0000
  S   S28       1.0  0.07116  0.41930  0.45968  1.0000
  C   C68       1.0  0.18061  0.47727  0.03270  1.0000
  H   H135      1.0  0.14725  0.40949  0.38439  1.0000
  H   H136      1.0  0.16790  0.45884  0.07850  1.0000
  H   H137      1.0  0.26922  0.29396  0.20696  1.0000
  C   C69       1.0  0.10291  0.35713  0.36596  1.0000
  C   C70       1.0  0.19539  0.47419  0.11992  1.0000
  C   C71       1.0  0.18874  0.46018  0.12168  1.0000
  C   C72       1.0  0.20161  0.44524  0.12766  1.0000
  C   C73       1.0  0.22095  0.44444  0.13222  1.0000
  H   H138      1.0  0.17368  0.46091  0.11889  1.0000
  H   H139      1.0  0.19655  0.43443  0.12913  1.0000
  C   C74       1.0  0.15199  0.46416  0.19723  1.0000
  C   C75       1.0  0.12190  0.47312  0.03081  1.0000
  C   C76       1.0  0.12387  0.45876  0.02308  1.0000
  C   C77       1.0  0.30551  0.29043  0.16873  1.0000
  H   H140      1.0  0.11585  0.47403  0.05141  1.0000
  H   H141      1.0  0.11936  0.44859  0.03781  1.0000
  H   H142      1.0  0.22894  0.42801  0.08708  1.0000
  Fe  Fe17      1.0  0.26338  0.36853  0.15491  1.0000
  C   C78       1.0  0.20208  0.38232  0.06980  1.0000
  C   C79       1.0  0.18325  0.38110  0.06621  1.0000
  H   H143      1.0  0.20371  0.39269  0.07533  1.0000
  H   H144      1.0  0.17053  0.39056  0.06907  1.0000
  C   C80       1.0  0.06102  0.40343  0.38893  1.0000
  C   C81       1.0  0.07104  0.41598  0.38466  1.0000
  C   C82       1.0  0.07397  0.42078  0.40651  1.0000
  C   C83       1.0  0.06672  0.41319  0.43281  1.0000
  C   C84       1.0  0.05637  0.40081  0.43716  1.0000
  C   C85       1.0  0.05353  0.39595  0.41527  1.0000
  H   H145      1.0  0.07631  0.42213  0.36450  1.0000
  H   H146      1.0  0.08174  0.43051  0.40302  1.0000
  H   H147      1.0  0.05052  0.39498  0.45736  1.0000
  H   H148      1.0  0.04553  0.38636  0.41874  1.0000
  C   C86       1.0  0.08965  0.39692  0.19939  1.0000
  C   C87       1.0  0.09487  0.41189  0.19164  1.0000
  C   C88       1.0  0.09757  0.41972  0.16459  1.0000
  C   C89       1.0  0.09525  0.41260  0.14512  1.0000
  C   C90       1.0  0.09064  0.39740  0.15269  1.0000
  C   C91       1.0  0.08775  0.38962  0.17982  1.0000
  H   H149      1.0  0.09641  0.41757  0.20657  1.0000
  H   H150      1.0  0.10118  0.43146  0.15873  1.0000
  H   H151      1.0  0.08854  0.39194  0.13781  1.0000
  H   H152      1.0  0.08360  0.37807  0.18579  1.0000
  C   C92       1.0  0.09763  0.45992  0.23315  1.0000
  C   C93       1.0  0.09100  0.45063  0.22074  1.0000
  C   C94       1.0  0.08697  0.45671  0.19497  1.0000
  C   C95       1.0  0.08982  0.47199  0.18142  1.0000
  C   C96       1.0  0.10054  0.36792  0.46479  1.0000
  C   C97       1.0  0.10025  0.47530  0.21979  1.0000
  H   H153      1.0  0.08882  0.43879  0.23109  1.0000
  H   H154      1.0  0.08173  0.44954  0.18550  1.0000
  H   H155      1.0  0.04741  0.46832  0.18256  1.0000
  C   C98       1.0  0.16512  0.37575  0.27220  1.0000
  C   C99       1.0  0.18580  0.37501  0.26153  1.0000
  C   C100      1.0  0.19406  0.37093  0.23656  1.0000
  C   C101      1.0  0.18168  0.36726  0.22272  1.0000
  C   C102      1.0  0.16114  0.36772  0.23372  1.0000
  C   C103      1.0  0.15283  0.37215  0.25822  1.0000
  H   H156      1.0  0.19529  0.37792  0.27225  1.0000
  H   H157      1.0  0.20999  0.37039  0.22827  1.0000
  H   H158      1.0  0.15148  0.36508  0.22296  1.0000
  H   H159      1.0  0.13685  0.37275  0.26629  1.0000
  H   H160      1.0  0.11373  0.35614  0.34680  1.0000
  H   H161      1.0  0.23337  0.31780  0.22623  1.0000
  H   H162      1.0  0.24166  0.43090  0.22168  1.0000
  H   H163      1.0  0.11025  0.40115  0.37269  1.0000
  H   H164      1.0  0.04685  0.39994  0.14998  1.0000
  H   H165      1.0  0.05099  0.46942  0.14029  1.0000
  H   H166      1.0  0.19522  0.40622  0.01607  1.0000
  H   H167      1.0  0.13479  0.39749  0.35322  1.0000
  H   H168      1.0  0.21476  0.44673  0.19796  1.0000
  H   H169      1.0  0.26538  0.32857  0.21099  1.0000
  C   C104      1.0  0.29240  0.26970  0.23034  1.0000
  C   C105      1.0  0.30322  0.28318  0.22978  1.0000
  H   H170      1.0  0.10072  0.35630  0.47920  1.0000
  H   H171      1.0  0.13636  0.37029  0.35891  1.0000
  H   H172      1.0  0.18912  0.41996  0.26037  1.0000
  S   S29       1.0  0.26339  0.38782  0.11786  1.0000
  H   H173      1.0  0.27008  0.32204  0.18009  1.0000
  S   S30       1.0  0.24264  0.35643  0.14453  1.0000
  C   C106      1.0  0.12555  0.33777  0.23088  1.0000
  C   C107      1.0  0.19755  0.35513  0.05667  1.0000
  H   H174      1.0  0.19820  0.41590  0.21699  1.0000
  S   S31       1.0  0.23803  0.42655  0.14074  1.0000
  H   H175      1.0  0.24202  0.45797  0.13439  1.0000
  H   H176      1.0  0.13215  0.35733  0.39048  1.0000
  H   H177      1.0  0.00313  0.36428  0.03667  1.0000
  H   H178      1.0  0.28929  0.31238  0.24566  1.0000
  C   C108      1.0  0.23112  0.42477  0.21733  1.0000
  H   H179      1.0  0.10048  0.38762  0.41621  1.0000
  H   H180      1.0  0.16602  0.48129  0.04567  1.0000
  H   H181      1.0  0.23831  0.42040  0.19868  1.0000
  H   H182      1.0  0.18215  0.45550  0.17669  1.0000
  C   C109      1.0  0.16140  0.42116  0.28887  1.0000
  C   C110      1.0  0.15254  0.48184  0.18843  1.0000
  C   C111      1.0  0.03078  0.40606  0.15362  1.0000
  H   H183      1.0  0.07393  0.47945  0.09643  1.0000
  C   C112      1.0  0.30389  0.25346  0.24231  1.0000
  C   C113      1.0  0.22721  0.45846  0.13076  1.0000
  H   H184      1.0  0.02530  0.40974  0.13446  1.0000
  H   H185      1.0  0.16704  0.39072  0.35821  1.0000
  H   H186      1.0  0.12782  0.44643  0.10463  1.0000
  H   H187      1.0  0.01659  0.47078  0.14331  1.0000
  C   C114      1.0  0.14149  0.44087  0.11344  1.0000
  H   H188      1.0  0.29550  0.24410  0.24345  1.0000
  H   H189      1.0  0.17261  0.43066  0.10195  1.0000
  H   H190      1.0  0.13074  0.43695  0.36873  1.0000
  C   C115      1.0  0.17356  0.45407  0.19769  1.0000
  H   H191      1.0  0.05082  0.34380  0.00287  1.0000
  H   H192      1.0  0.16800  0.37031  0.35858  1.0000
  H   H193      1.0  0.21986  0.48388  0.12334  1.0000
  H   H194      1.0  0.11110  0.43034  0.36037  1.0000
  C   C116      1.0  0.31107  0.34228  0.12891  1.0000
  C   C117      1.0  0.16427  0.45035  0.06913  1.0000
  H   H195      1.0  0.15966  0.40700  0.22363  1.0000
  C   C118      1.0  0.19643  0.42853  0.20629  1.0000
  H   H196      1.0  0.22954  0.34723  0.05598  1.0000
  C   C119      1.0  0.15390  0.40718  0.18565  1.0000
  H   H197      1.0  0.14648  0.43481  0.20196  1.0000
  H   H198      1.0  0.14819  0.43618  0.24325  1.0000
  H   H199      1.0  0.14499  0.46113  0.18292  1.0000
  H   H200      1.0  0.15984  0.41139  0.16402  1.0000
  H   H201      1.0  0.15570  0.39409  0.18989  1.0000
  H   H202      1.0  0.13753  0.41230  0.19050  1.0000
  H   H203      1.0  0.14527  0.42090  0.29052  1.0000
  H   H204      1.0  0.23780  0.31229  0.19426  1.0000
  S   S32       1.0  0.08420  0.47941  0.14948  1.0000
  S   S33       1.0  0.06756  0.39514  0.01874  1.0000
  C   C120      1.0  0.24076  0.32052  0.20478  1.0000
  H   H205      1.0  0.11020  0.34140  0.24257  1.0000
  H   H206      1.0  0.08957  0.45988  0.09841  1.0000
  H   H207      1.0  0.19580  0.34449  0.05193  1.0000
  H   H208      1.0  0.30311  0.31413  0.17430  1.0000
  N   N4        1.0  0.29600  0.29956  0.21388  1.0000
  C   C121      1.0  0.26351  0.31929  0.20180  1.0000
  H   H209      1.0  0.18297  0.44165  0.99084  1.0000
  H   H210      1.0  0.17784  0.42278  0.04878  1.0000
  C   C122      1.0  0.15959  0.43602  0.09196  1.0000
  H   H211      1.0  0.12149  0.41347  0.40214  1.0000
  H   H212      1.0  0.13686  0.42624  0.34228  1.0000
  H   H213      1.0  0.27700  0.27144  0.24299  1.0000
  H   H214      1.0  0.33067  0.29656  0.13640  1.0000
  H   H215      1.0  0.15856  0.48570  0.20277  1.0000
  H   H216      1.0  0.15551  0.42713  0.08415  1.0000
  C   C123      1.0  0.11582  0.36595  0.43903  1.0000
  H   H217      1.0  0.20201  0.42810  0.18477  1.0000
  C   C124      1.0  0.16303  0.43013  0.19682  1.0000
  H   H218      1.0  0.18105  0.45979  0.20795  1.0000
  C   C125      1.0  0.12723  0.42722  0.36219  1.0000
  H   H219      1.0  0.17228  0.41519  0.00328  1.0000
  H   H220      1.0  0.30126  0.28341  0.25128  1.0000
  N   N5        1.0  0.18071  0.44704  0.04538  1.0000
  Fe  Fe18      1.0  0.12371  0.42061  0.01905  1.0000
  C   C126      1.0  0.16559  0.41185  0.20238  1.0000
  H   H221      1.0  0.26564  0.30038  0.23700  1.0000
  N   N6        1.0  0.17454  0.43671  0.21084  1.0000
  H   H222      1.0  0.11137  0.35737  0.43074  1.0000
  H   H223      1.0  0.12020  0.39002  0.42929  1.0000
  H   H224      1.0  0.28954  0.28994  0.17001  1.0000
  H   H225      1.0  0.16786  0.41074  0.30317  1.0000
  H   H226      1.0  0.17168  0.40953  0.25580  1.0000
  C   C127      1.0  0.21121  0.43630  0.21403  1.0000
  C   C128      1.0  0.27343  0.30249  0.21556  1.0000
  C   C129      1.0  0.01941  0.35991  0.02901  1.0000
  C   C130      1.0  0.30746  0.30176  0.18529  1.0000
  S   S34       1.0  0.13282  0.48327  0.09571  1.0000
  H   H227      1.0  0.15417  0.38471  0.40927  1.0000
  C   C131      1.0  0.31139  0.34417  0.15424  1.0000
  C   C132      1.0  0.17301  0.42059  0.26039  1.0000
  N   N7        1.0  0.15172  0.35063  0.15577  1.0000
  C   C133      1.0  0.14798  0.36814  0.15499  1.0000
  C   C134      1.0  0.14794  0.34184  0.18464  1.0000
  C   C135      1.0  0.17383  0.34554  0.14394  1.0000
  C   C136      1.0  0.13911  0.34655  0.13983  1.0000
  C   C137      1.0  0.11819  0.35743  0.13756  1.0000
  C   C138      1.0  0.15579  0.37838  0.12756  1.0000
  C   C139      1.0  0.18164  0.32747  0.14629  1.0000
  C   C140      1.0  0.12664  0.34644  0.20159  1.0000
  H   H228      1.0  0.14982  0.45623  0.06228  1.0000
  C   C141      1.0  0.10604  0.35056  0.12444  1.0000
  C   C142      1.0  0.14500  0.39559  0.12455  1.0000
  C   C143      1.0  0.20286  0.32412  0.12934  1.0000
  H   H229      1.0  0.15541  0.37036  0.16970  1.0000
  H   H230      1.0  0.13172  0.37298  0.16146  1.0000
  H   H231      1.0  0.15019  0.32888  0.18599  1.0000
  H   H232      1.0  0.15923  0.34344  0.19500  1.0000
  H   H233      1.0  0.18358  0.34986  0.15317  1.0000
  H   H234      1.0  0.17722  0.35108  0.12220  1.0000
  H   H235      1.0  0.14733  0.34679  0.11872  1.0000
  H   H236      1.0  0.13674  0.33412  0.14793  1.0000
  H   H237      1.0  0.12017  0.36927  0.12491  1.0000
  H   H238      1.0  0.10901  0.35920  0.15723  1.0000
  H   H239      1.0  0.17223  0.37798  0.12533  1.0000
  H   H240      1.0  0.15357  0.37387  0.11105  1.0000
  H   H241      1.0  0.17151  0.32212  0.13949  1.0000
  H   H242      1.0  0.18260  0.32152  0.16735  1.0000
  H   H243      1.0  0.12254  0.35930  0.20138  1.0000
  H   H244      1.0  0.11515  0.34294  0.19422  1.0000
  H   H245      1.0  0.08731  0.35897  0.36246  1.0000
  H   H246      1.0  0.15496  0.36493  0.40808  1.0000
  H   H247      1.0  0.02283  0.34727  0.03973  1.0000
  H   H248      1.0  0.11431  0.34934  0.10395  1.0000
  H   H249      1.0  0.10316  0.33880  0.13658  1.0000
  H   H250      1.0  0.09126  0.35865  0.12288  1.0000
  H   H251      1.0  0.13037  0.39690  0.11869  1.0000
  H   H252      1.0  0.14229  0.39978  0.14334  1.0000
  H   H253      1.0  0.15441  0.40296  0.10855  1.0000
  H   H254      1.0  0.20842  0.31113  0.13196  1.0000
  H   H255      1.0  0.20266  0.32923  0.10779  1.0000
  H   H256      1.0  0.21350  0.32933  0.13552  1.0000
  H   H257      1.0  0.02052  0.47044  0.18675  1.0000
  H   H258      1.0  0.18161  0.40604  0.19694  1.0000
  C   C144      1.0  0.00923  0.45457  0.12427  1.0000
  N   N8        1.0  0.03726  0.44859  0.15250  1.0000
  C   C145      1.0  0.04199  0.43221  0.14681  1.0000
  C   C146      1.0  0.05389  0.45739  0.13617  1.0000
  C   C147      1.0  0.03771  0.44666  0.18169  1.0000
  C   C148      1.0  0.01680  0.45782  0.14728  1.0000
  C   C149      1.0  0.31459  0.29573  0.13912  1.0000
  C   C150      1.0  0.02865  0.42044  0.16547  1.0000
  H   H259      1.0  0.28875  0.37266  0.06499  1.0000
  C   C151      1.0  0.05715  0.46026  0.10531  1.0000
  C   C152      1.0  0.18959  0.37417  0.37768  1.0000
  C   C153      1.0  0.04579  0.35561  0.99020  1.0000
  C   C154      1.0  0.02369  0.36968  0.06810  1.0000
  N   N9        1.0  0.02332  0.36108  0.99914  1.0000
  H   H260      1.0  0.05772  0.42659  0.14882  1.0000
  H   H261      1.0  0.04163  0.43261  0.12579  1.0000
  H   H262      1.0  0.31398  0.27835  0.17582  1.0000
  H   H263      1.0  0.06860  0.45111  0.14211  1.0000
  H   H264      1.0  0.05233  0.43915  0.18629  1.0000
  H   H265      1.0  0.02571  0.44025  0.19474  1.0000
  H   H266      1.0  0.28655  0.38908  0.03689  1.0000
  C   C155      1.0  0.07583  0.46766  0.09173  1.0000
  H   H267      1.0  0.31911  0.25082  0.22963  1.0000
  C   C156      1.0  0.32171  0.30901  0.23192  1.0000
  H   H268      1.0  0.03358  0.41593  0.18502  1.0000
  H   H269      1.0  0.31325  0.32129  0.26491  1.0000
  H   H270      1.0  0.31548  0.39802  0.04378  1.0000
  C   C157      1.0  0.32356  0.32185  0.24504  1.0000
  H   H271      1.0  0.05941  0.44913  0.09841  1.0000
  H   H272      1.0  0.19238  0.46078  0.00649  1.0000
  H   H273      1.0  0.31981  0.33384  0.23232  1.0000
  H   H274      1.0  0.10527  0.48252  0.22951  1.0000
  C   C158      1.0  0.18901  0.43211  0.00682  1.0000
  C   C159      1.0  0.03449  0.46218  0.19166  1.0000
  H   H275      1.0  0.16210  0.48445  0.16821  1.0000
  H   H276      1.0  0.20506  0.43264  0.00512  1.0000
  H   H277      1.0  0.08507  0.37240  0.46050  1.0000
  H   H278      1.0  0.07815  0.46922  0.06969  1.0000
  H   H279      1.0  0.31068  0.40891  0.13948  1.0000
  H   H280      1.0  0.04408  0.46877  0.09816  1.0000
  S   S35       1.0  0.29083  0.35530  0.17262  1.0000
  H   H281      1.0  0.02087  0.45459  0.10573  1.0000
  H   H282      1.0  0.16624  0.44577  0.24730  1.0000
  H   H283      1.0  0.09387  0.37150  0.39509  1.0000
  H   H284      1.0  0.16243  0.43207  0.29449  1.0000
  H   H285      1.0  0.30559  0.25307  0.26285  1.0000
  H   H286      1.0  0.16570  0.46464  0.01596  1.0000
  H   H287      1.0  0.10075  0.38207  0.36121  1.0000
  H   H288      1.0  0.10572  0.34590  0.38099  1.0000
  N   N10       1.0  0.13037  0.38171  0.39227  1.0000
  C   C160      1.0  0.15185  0.37736  0.39657  1.0000
  C   C161      1.0  0.11623  0.38213  0.41895  1.0000
  C   C162      1.0  0.12696  0.36957  0.37941  1.0000
  C   C163      1.0  0.12645  0.39780  0.37407  1.0000
  C   C164      1.0  0.13121  0.41168  0.38264  1.0000
  C   C165      1.0  0.16857  0.37854  0.37079  1.0000
  C   C166      1.0  0.10498  0.37111  0.37608  1.0000
  C   C167      1.0  0.30009  0.31170  0.22628  1.0000
  C   C168      1.0  0.18081  0.36738  0.06015  1.0000
  C   C169      1.0  0.21884  0.37018  0.06589  1.0000
  C   C170      1.0  0.18818  0.41621  0.00157  1.0000
  H   H289      1.0  0.20162  0.44895  0.06833  1.0000
  H   H290      1.0  0.19982  0.41925  0.07962  1.0000
  H   H291      1.0  0.13666  0.34084  0.23962  1.0000
  H   H292      1.0  0.29076  0.26933  0.21026  1.0000
  C   C171      1.0  0.21661  0.35665  0.05901  1.0000
  C   C172      1.0  0.20142  0.44276  0.05263  1.0000
  C   C173      1.0  0.21009  0.42491  0.06216  1.0000
  C   C174      1.0  0.23054  0.42250  0.06993  1.0000
  H   H293      1.0  0.16007  0.43729  0.03257  1.0000
  H   H294      1.0  0.23381  0.33279  0.19591  1.0000
  C   C175      1.0  0.12785  0.48627  0.01181  1.0000
  H   H295      1.0  0.21262  0.41841  0.04600  1.0000
  C   C176      1.0  0.17620  0.43445  0.03456  1.0000
  H   H296      1.0  0.23660  0.40961  0.07586  1.0000
  H   H297      1.0  0.10426  0.37635  0.47424  1.0000
  H   H298      1.0  0.02996  0.38179  0.02699  1.0000
  S   S36       1.0  0.23849  0.38295  0.17985  1.0000
  H   H299      1.0  0.29527  0.39721  0.07275  1.0000
  H   H300      1.0  0.29750  0.32375  0.21320  1.0000
  H   H301      1.0  0.29779  0.34761  0.12024  1.0000
  H   H302      1.0  0.30470  0.38476  0.17296  1.0000
  H   H303      1.0  0.20123  0.37501  0.35893  1.0000
  H   H304      1.0  0.30880  0.37363  0.03557  1.0000
  S   S37       1.0  0.12444  0.39687  0.01152  1.0000
  H   H305      1.0  0.00484  0.45546  0.16548  1.0000
  C   C177      1.0  0.03136  0.36934  0.03849  1.0000
  H   H306      1.0  0.30602  0.30745  0.13055  1.0000
  C   C178      1.0  0.01213  0.34986  0.99435  1.0000
  H   H307      1.0  0.01247  0.42617  0.16930  1.0000
  H   H308      1.0  0.31387  0.28700  0.12791  1.0000
  C   C179      1.0  0.09652  0.48129  0.19379  1.0000
  H   H309      1.0  0.03285  0.37624  0.07423  1.0000
  H   H310      1.0  0.00764  0.37582  0.07171  1.0000
  H   H311      1.0  0.02515  0.35744  0.08058  1.0000
  H   H312      1.0  0.01924  0.45348  0.23256  1.0000
  H   H313      1.0  0.05615  0.45406  0.48134  1.0000
  H   H314      1.0  0.31976  0.27931  0.22275  1.0000
  C   C180      1.0  0.29736  0.38072  0.04883  1.0000
  C   C181      1.0  0.30747  0.38997  0.06070  1.0000
  H   H315      1.0  0.19226  0.36183  0.38960  1.0000
  H   H316      1.0  0.19291  0.47506  0.04393  1.0000
  C   C182      1.0  0.13204  0.45755  0.99642  1.0000
  H   H317      1.0  0.04648  0.45031  0.22786  1.0000
  H   H318      1.0  0.30282  0.40050  0.10775  1.0000
  H   H319      1.0  0.00327  0.38399  0.99892  1.0000
  H   H320      1.0  0.30658  0.38124  0.12702  1.0000
  C   C183      1.0  0.03282  0.45868  0.22198  1.0000
  H   H321      1.0  0.32540  0.29753  0.24590  1.0000
  H   H322      1.0  0.05442  0.36380  0.99321  1.0000
  H   H323      1.0  0.02171  0.39756  0.16784  1.0000
  H   H324      1.0  0.00481  0.44277  0.13027  1.0000
  N   N11       1.0  0.33146  0.38578  0.09388  1.0000
  H   H325      1.0  0.03041  0.48710  0.47456  1.0000
  H   H326      1.0  0.32898  0.33856  0.18489  1.0000
  H   H327      1.0  0.31526  0.36881  0.09054  1.0000
  C   C184      1.0  0.31476  0.39111  0.11594  1.0000
  H   H328      1.0  0.31487  0.41660  0.06667  1.0000
  C   C185      1.0  0.32852  0.33697  0.16549  1.0000
  H   H329      1.0  0.10349  0.37755  0.99030  1.0000
  C   C186      1.0  0.32050  0.38634  0.16391  1.0000
  C   C187      1.0  0.32129  0.39767  0.13646  1.0000
  C   C188      1.0  0.32271  0.37861  0.07738  1.0000
  H   H330      1.0  0.07739  0.44438  0.98452  1.0000
  H   H331      1.0  0.06885  0.42635  0.98700  1.0000
  C   C189      1.0  0.07440  0.39206  0.98572  1.0000
  C   C190      1.0  0.01647  0.37813  0.98572  1.0000
  C   C191      1.0  0.32935  0.41599  0.07233  1.0000
  H   H332      1.0  0.32584  0.39138  0.17744  1.0000
  H   H333      1.0  0.32575  0.42045  0.09103  1.0000
  C   C192      1.0  0.13550  0.48510  0.98513  1.0000
  C   C193      1.0  0.32812  0.33364  0.11461  1.0000
  H   H334      1.0  0.32799  0.33243  0.09480  1.0000
  H   H335      1.0  0.33015  0.37456  0.16245  1.0000
  H   H336      1.0  0.33160  0.43964  0.04857  1.0000
  H   H337      1.0  0.08204  0.34652  0.93465  1.0000
  H   H338      1.0  0.01125  0.40580  0.64634  1.0000
  Fe  Fe19      1.0  0.03862  0.41234  0.55732  1.0000
  H   H339      1.0  0.03440  0.30957  0.59667  1.0000
  H   H340      1.0  0.01918  0.32445  0.87474  1.0000
  Fe  Fe20      1.0  0.05631  0.29969  0.66867  1.0000
  S   S38       1.0  0.04787  0.27709  0.69542  1.0000
  S   S39       1.0  0.06590  0.30271  0.62423  1.0000
  Fe  Fe21      1.0  0.04700  0.31697  0.71367  1.0000
  S   S40       1.0  0.03806  0.29589  0.74434  1.0000
  S   S41       1.0  0.04446  0.34093  0.72222  1.0000
  Fe  Fe22      1.0  0.06554  0.28163  0.72229  1.0000
  S   S42       1.0  0.08976  0.26462  0.74341  1.0000
  Fe  Fe23      1.0  0.02123  0.29343  0.71461  1.0000
  Fe  Fe24      1.0  0.07114  0.38326  0.55016  1.0000
  S   S43       1.0  0.07556  0.30312  0.69408  1.0000
  S   S44       1.0  0.02853  0.31556  0.68549  1.0000
  Fe  Fe25      1.0  0.06925  0.37962  0.87900  1.0000
  S   S45       1.0  0.06361  0.35490  0.88706  1.0000
  S   S46       1.0  0.09169  0.38357  0.90025  1.0000
  Fe  Fe26      1.0  0.04116  0.39194  0.83928  1.0000
  S   S47       1.0  0.03307  0.36825  0.84471  1.0000
  S   S48       1.0  0.02574  0.41099  0.80947  1.0000
  Fe  Fe27      1.0  0.03115  0.36641  0.88813  1.0000
  H   H341      1.0  0.00530  0.33444  0.78423  1.0000
  Fe  Fe28      1.0  0.06606  0.35874  0.84280  1.0000
  S   S49       1.0  0.08094  0.33853  0.82187  1.0000
  S   S50       1.0  0.03636  0.39102  0.88339  1.0000
  S   S51       1.0  0.07464  0.38260  0.83410  1.0000
  H   H342      1.0  0.09650  0.48613  0.75271  1.0000
  C   C194      1.0  0.01622  0.31570  0.54629  1.0000
  C   C195      1.0  0.06086  0.39863  0.96817  1.0000
  H   H343      1.0  0.12290  0.26316  0.65812  1.0000
  H   H344      1.0  0.12491  0.41734  0.88680  1.0000
  H   H345      1.0  0.01735  0.30952  0.62788  1.0000
  N   N12       1.0  0.11849  0.42822  0.92106  1.0000
  Fe  Fe29      1.0  0.03030  0.38588  0.53732  1.0000
  H   H346      1.0  0.07860  0.41957  0.88129  1.0000
  S   S52       1.0  0.25614  0.25410  0.62049  1.0000
  H   H347      1.0  0.00203  0.31165  0.54786  1.0000
  C   C196      1.0  0.02089  0.34162  0.60719  1.0000
  S   S53       1.0  0.03978  0.38644  0.57440  1.0000
  S   S54       1.0  0.02232  0.42846  0.58577  1.0000
  C   C197      1.0  0.28114  0.25201  0.60190  1.0000
  H   H348      1.0  0.10943  0.42997  0.96253  1.0000
  H   H349      1.0  0.02966  0.30198  0.90917  1.0000
  C   C198      1.0  0.02334  0.32311  0.51683  1.0000
  H   H350      1.0  0.00251  0.42753  0.67344  1.0000
  C   C199      1.0  0.11193  0.24483  0.70987  1.0000
  C   C200      1.0  0.11236  0.25577  0.72434  1.0000
  C   C201      1.0  0.13115  0.25850  0.72559  1.0000
  C   C202      1.0  0.09817  0.43502  0.88260  1.0000
  H   H351      1.0  0.13332  0.39489  0.92248  1.0000
  H   H352      1.0  0.15020  0.41832  0.90866  1.0000
  H   H353      1.0  0.08555  0.44228  0.89403  1.0000
  H   H354      1.0  0.01413  0.44487  0.62840  1.0000
  C   C203      1.0  0.13882  0.46522  0.87410  1.0000
  H   H355      1.0  0.05332  0.36645  0.94758  1.0000
  H   H356      1.0  0.07706  0.27626  0.81442  1.0000
  H   H357      1.0  0.01996  0.40387  0.94090  1.0000
  H   H358      1.0  0.03030  0.35801  0.62340  1.0000
  H   H359      1.0  0.13162  0.26684  0.73697  1.0000
  H   H360      1.0  0.02808  0.30535  0.55205  1.0000
  C   C204      1.0  0.13776  0.47076  0.97752  1.0000
  H   H361      1.0  0.15879  0.26575  0.61500  1.0000
  H   H362      1.0  0.14049  0.44104  0.87219  1.0000
  H   H363      1.0  0.27340  0.27272  0.57175  1.0000
  H   H364      1.0  0.14404  0.46989  0.95694  1.0000
  C   C205      1.0  0.05907  0.45759  0.60795  1.0000
  C   C206      1.0  0.05598  0.34057  0.74852  1.0000
  C   C207      1.0  0.05205  0.35409  0.75920  1.0000
  C   C208      1.0  0.06008  0.35371  0.78132  1.0000
  C   C209      1.0  0.07249  0.33989  0.79243  1.0000
  C   C210      1.0  0.07742  0.32668  0.78067  1.0000
  C   C211      1.0  0.06898  0.32694  0.75895  1.0000
  H   H365      1.0  0.04230  0.36476  0.75090  1.0000
  H   H366      1.0  0.05653  0.36406  0.78991  1.0000
  H   H367      1.0  0.08728  0.31607  0.78891  1.0000
  H   H368      1.0  0.07244  0.31659  0.75036  1.0000
  C   C212      1.0  0.08766  0.34923  0.58527  1.0000
  C   C213      1.0  0.08931  0.34197  0.61170  1.0000
  C   C214      1.0  0.08220  0.32785  0.62392  1.0000
  C   C215      1.0  0.07433  0.32059  0.60935  1.0000
  C   C216      1.0  0.07316  0.32766  0.58266  1.0000
  C   C217      1.0  0.07939  0.34218  0.57080  1.0000
  H   H369      1.0  0.09588  0.34735  0.62278  1.0000
  H   H370      1.0  0.08320  0.32251  0.64442  1.0000
  H   H371      1.0  0.06707  0.32209  0.57131  1.0000
  H   H372      1.0  0.07810  0.34781  0.55034  1.0000
  C   C218      1.0  0.05896  0.45116  0.76244  1.0000
  C   C219      1.0  0.04841  0.44470  0.74991  1.0000
  C   C220      1.0  0.03873  0.43207  0.76431  1.0000
  C   C221      1.0  0.03984  0.42561  0.79120  1.0000
  C   C222      1.0  0.05123  0.43149  0.80346  1.0000
  C   C223      1.0  0.06070  0.44432  0.78910  1.0000
  H   H373      1.0  0.04770  0.44942  0.72916  1.0000
  H   H374      1.0  0.03062  0.42715  0.75448  1.0000
  H   H375      1.0  0.05224  0.42646  0.82418  1.0000
  H   H376      1.0  0.06907  0.44913  0.79879  1.0000
  C   C224      1.0  0.03691  0.43914  0.59466  1.0000
  C   C225      1.0  0.02894  0.44632  0.61667  1.0000
  C   C226      1.0  0.04005  0.45545  0.62345  1.0000
  C   C227      1.0  0.05371  0.35441  0.96054  1.0000
  H   H377      1.0  0.03378  0.46100  0.64038  1.0000
  C   C228      1.0  0.11165  0.42255  0.90076  1.0000
  H   H378      1.0  0.02188  0.37542  0.94390  1.0000
  H   H379      1.0  0.15283  0.26708  0.64872  1.0000
  C   C229      1.0  0.15664  0.27421  0.62818  1.0000
  Fe  Fe30      1.0  0.05998  0.48128  0.70649  1.0000
  H   H380      1.0  0.31276  0.28120  0.63468  1.0000
  C   C230      1.0  0.06576  0.39578  0.94211  1.0000
  C   C231      1.0  0.08433  0.38645  0.93338  1.0000
  C   C232      1.0  0.09799  0.38014  0.95076  1.0000
  C   C233      1.0  0.13814  0.41758  0.92698  1.0000
  H   H381      1.0  0.17156  0.26615  0.74405  1.0000
  H   H382      1.0  0.05548  0.40110  0.92847  1.0000
  H   H383      1.0  0.11244  0.37297  0.94409  1.0000
  H   H384      1.0  0.15212  0.28946  0.57959  1.0000
  H   H385      1.0  0.03585  0.32846  0.80255  1.0000
  H   H386      1.0  0.30775  0.27063  0.54377  1.0000
  H   H387      1.0  0.23941  0.24175  0.58153  1.0000
  C   C234      1.0  0.02996  0.46803  0.52350  1.0000
  H   H388      1.0  0.18473  0.28134  0.60351  1.0000
  H   H389      1.0  0.02573  0.31423  0.50446  1.0000
  S   S55       1.0  0.07098  0.40921  0.53579  1.0000
  C   C235      1.0  0.29679  0.23982  0.61014  1.0000
  H   H390      1.0  0.08649  0.27010  0.63117  1.0000
  H   H391      1.0  0.03418  0.29293  0.80577  1.0000
  H   H392      1.0  0.10730  0.44320  0.86766  1.0000
  H   H393      1.0  0.12737  0.39723  0.95651  1.0000
  S   S56       1.0  0.06955  0.46801  0.74548  1.0000
  C   C236      1.0  0.19194  0.26469  0.63882  1.0000
  H   H394      1.0  0.19656  0.41525  0.98105  1.0000
  H   H395      1.0  0.02302  0.46606  0.50807  1.0000
  H   H396      1.0  0.15221  0.46676  0.85772  1.0000
  H   H397      1.0  0.07338  0.43217  0.93705  1.0000
  H   H398      1.0  0.12860  0.33180  0.54947  1.0000
  H   H399      1.0  0.03139  0.33162  0.61703  1.0000
  H   H400      1.0  0.10348  0.41261  0.91105  1.0000
  C   C237      1.0  0.09796  0.26223  0.64249  1.0000
  C   C238      1.0  0.06705  0.45026  0.58613  1.0000
  C   C239      1.0  0.03252  0.27929  0.61957  1.0000
  H   H401      1.0  0.01182  0.33343  0.50976  1.0000
  H   H402      1.0  0.32117  0.24484  0.65146  1.0000
  H   H403      1.0  0.02210  0.47405  0.74650  1.0000
  H   H404      1.0  0.08178  0.45183  0.57412  1.0000
  H   H405      1.0  0.04665  0.40611  0.97466  1.0000
  H   H406      1.0  0.20703  0.26786  0.63526  1.0000
  H   H407      1.0  0.08044  0.43619  0.85329  1.0000
  C   C240      1.0  0.01544  0.29181  0.60881  1.0000
  C   C241      1.0  0.06541  0.28192  0.80201  1.0000
  C   C242      1.0  0.18954  0.24228  0.75312  1.0000
  C   C243      1.0  0.15872  0.39018  0.94150  1.0000
  H   H408      1.0  0.02799  0.45768  0.54048  1.0000
  H   H409      1.0  0.13862  0.47218  0.88884  1.0000
  N   N13       1.0  0.07107  0.38837  0.65025  1.0000
  C   C244      1.0  0.05223  0.39078  0.63928  1.0000
  C   C245      1.0  0.08865  0.39095  0.62712  1.0000
  C   C246      1.0  0.07539  0.37122  0.66493  1.0000
  C   C247      1.0  0.06898  0.39891  0.66950  1.0000
  C   C248      1.0  0.05465  0.41534  0.66489  1.0000
  C   C249      1.0  0.03370  0.38538  0.65989  1.0000
  C   C250      1.0  0.09644  0.36533  0.67284  1.0000
  C   C251      1.0  0.08656  0.40716  0.60713  1.0000
  C   C252      1.0  0.10477  0.40763  0.58393  1.0000
  C   C253      1.0  0.05647  0.42564  0.68292  1.0000
  H   H410      1.0  0.04723  0.28042  0.60564  1.0000
  C   C254      1.0  0.09763  0.34929  0.69253  1.0000
  H   H411      1.0  0.05541  0.38412  0.62305  1.0000
  H   H412      1.0  0.04756  0.40335  0.62942  1.0000
  H   H413      1.0  0.10270  0.38976  0.63451  1.0000
  H   H414      1.0  0.09173  0.38157  0.61542  1.0000
  H   H415      1.0  0.07407  0.36321  0.65265  1.0000
  H   H416      1.0  0.06383  0.36899  0.68365  1.0000
  H   H417      1.0  0.06330  0.39292  0.69048  1.0000
  H   H418      1.0  0.08410  0.40095  0.66977  1.0000
  H   H419      1.0  0.03868  0.41389  0.66958  1.0000
  H   H420      1.0  0.05779  0.42199  0.64399  1.0000
  H   H421      1.0  0.03553  0.37226  0.66383  1.0000
  H   H422      1.0  0.03210  0.38871  0.67923  1.0000
  H   H423      1.0  0.09989  0.37391  0.68220  1.0000
  H   H424      1.0  0.10835  0.36375  0.65481  1.0000
  H   H425      1.0  0.07300  0.40951  0.59826  1.0000
  H   H426      1.0  0.08601  0.41680  0.61708  1.0000
  H   H427      1.0  0.10604  0.39840  0.57266  1.0000
  H   H428      1.0  0.10289  0.41940  0.56997  1.0000
  H   H429      1.0  0.11895  0.40576  0.59139  1.0000
  H   H430      1.0  0.04551  0.43702  0.67992  1.0000
  H   H431      1.0  0.05317  0.41958  0.70434  1.0000
  H   H432      1.0  0.07191  0.42839  0.67784  1.0000
  H   H433      1.0  0.06084  0.46491  0.52989  1.0000
  H   H434      1.0  0.19382  0.25396  0.63080  1.0000
  N   N14       1.0  0.02717  0.30609  0.85190  1.0000
  H   H435      1.0  0.09253  0.34063  0.68512  1.0000
  H   H436      1.0  0.11345  0.34453  0.69533  1.0000
  H   H437      1.0  0.08807  0.35073  0.71225  1.0000
  C   C255      1.0  0.10326  0.42714  0.94716  1.0000
  S   S57       1.0  0.07313  0.46967  0.61446  1.0000
  H   H438      1.0  0.12285  0.48735  0.74416  1.0000
  C   C256      1.0  0.01602  0.35467  0.62296  1.0000
  H   H439      1.0  0.02892  0.34637  0.58676  1.0000
  C   C257      1.0  0.09299  0.38280  0.97690  1.0000
  S   S58       1.0  0.09546  0.36731  0.57071  1.0000
  H   H440      1.0  0.00535  0.45550  0.73432  1.0000
  H   H441      1.0  0.12500  0.46987  0.86539  1.0000
  C   C258      1.0  0.14930  0.25073  0.71170  1.0000
  H   H442      1.0  0.00395  0.44737  0.69737  1.0000
  C   C259      1.0  0.18637  0.26025  0.74971  1.0000
  H   H443      1.0  0.30282  0.26954  0.66693  1.0000
  H   H444      1.0  0.06405  0.32085  0.88765  1.0000
  H   H445      1.0  0.15186  0.32742  0.56139  1.0000
  H   H446      1.0  0.15990  0.30259  0.59360  1.0000
  H   H447      1.0  0.08994  0.25607  0.66190  1.0000
  S   S59       1.0  0.00781  0.35489  0.91997  1.0000
  H   H448      1.0  0.01381  0.35062  0.97270  1.0000
  S   S60       1.0  0.00688  0.37123  0.54285  1.0000
  C   C260      1.0  0.32030  0.24948  0.56973  1.0000
  Fe  Fe31      1.0  0.06113  0.48274  0.64831  1.0000
  C   C261      1.0  0.06160  0.45212  0.50023  1.0000
  C   C262      1.0  0.30853  0.26958  0.64532  1.0000
  C   C263      1.0  0.01353  0.31711  0.83386  1.0000
  C   C264      1.0  0.17757  0.27851  0.62505  1.0000
  H   H449      1.0  0.05677  0.44138  0.51400  1.0000
  C   C265      1.0  0.05604  0.44106  0.57952  1.0000
  C   C266      1.0  0.14048  0.32203  0.55719  1.0000
  H   H450      1.0  0.02327  0.33987  0.82766  1.0000
  C   C267      1.0  0.03269  0.31583  0.86762  1.0000
  C   C268      1.0  0.04499  0.28722  0.81932  1.0000
  H   H451      1.0  0.33123  0.25627  0.61985  1.0000
  C   C269      1.0  0.04171  0.30639  0.89266  1.0000
  H   H452      1.0  0.06228  0.43566  0.56246  1.0000
  H   H453      1.0  0.01481  0.28985  0.58922  1.0000
  C   C270      1.0  0.01417  0.39268  0.64931  1.0000
  H   H454      1.0  0.14353  0.42158  0.94189  1.0000
  C   C271      1.0  0.05110  0.31684  0.90296  1.0000
  H   H455      1.0  0.10216  0.27964  0.66092  1.0000
  H   H456      1.0  0.06390  0.27313  0.79148  1.0000
  H   H457      1.0  0.17615  0.28896  0.63357  1.0000
  H   H458      1.0  0.04502  0.34791  0.95363  1.0000
  C   C272      1.0  0.14008  0.44766  0.88748  1.0000
  H   H459      1.0  0.04378  0.32318  0.85448  1.0000
  H   H460      1.0  0.05500  0.30772  0.82265  1.0000
  H   H461      1.0  0.05710  0.29141  0.84951  1.0000
  H   H462      1.0  0.10116  0.41949  0.85538  1.0000
  H   H463      1.0  0.15462  0.44350  0.89461  1.0000
  H   H464      1.0  0.29613  0.26802  0.63699  1.0000
  H   H465      1.0  0.19852  0.26488  0.73362  1.0000
  H   H466      1.0  0.05359  0.29606  0.88843  1.0000
  H   H467      1.0  0.07048  0.29214  0.78675  1.0000
  C   C273      1.0  0.08909  0.42705  0.86723  1.0000
  H   H468      1.0  0.08233  0.44988  0.93552  1.0000
  Fe  Fe32      1.0  0.05896  0.40671  0.50154  1.0000
  H   H469      1.0  0.12570  0.27478  0.60536  1.0000
  S   S61       1.0  0.02638  0.41222  0.52193  1.0000
  H   H470      1.0  0.05674  0.31004  0.92138  1.0000
  H   H471      1.0  0.18704  0.26327  0.76854  1.0000
  C   C274      1.0  0.04665  0.29851  0.83607  1.0000
  C   C275      1.0  0.28532  0.26314  0.57806  1.0000
  S   S62       1.0  0.06193  0.38026  0.51435  1.0000
  C   C276      1.0  0.14673  0.29743  0.59410  1.0000
  H   H472      1.0  0.04031  0.27633  0.83281  1.0000
  H   H473      1.0  0.03970  0.32734  0.90780  1.0000
  H   H474      1.0  0.10053  0.41487  0.95529  1.0000
  H   H475      1.0  0.10706  0.25316  0.63107  1.0000
  H   H476      1.0  0.09760  0.24234  0.70930  1.0000
  H   H477      1.0  0.15806  0.24190  0.76870  1.0000
  C   C277      1.0  0.02133  0.33198  0.81573  1.0000
  S   S63       1.0  0.22204  0.24066  0.68904  1.0000
  H   H478      1.0  0.01524  0.38957  0.62993  1.0000
  C   C278      1.0  0.00084  0.28765  0.86101  1.0000
  C   C279      1.0  0.00716  0.47996  0.75616  1.0000
  H   H479      1.0  0.30527  0.23900  0.52997  1.0000
  N   N15       1.0  0.13975  0.28808  0.62196  1.0000
  C   C280      1.0  0.12161  0.28183  0.62119  1.0000
  H   H480      1.0  0.01193  0.35252  0.78566  1.0000
  C   C281      1.0  0.13436  0.29902  0.64132  1.0000
  C   C282      1.0  0.13589  0.29138  0.67095  1.0000
  C   C283      1.0  0.13083  0.31151  0.58268  1.0000
  C   C284      1.0  0.13045  0.30399  0.68772  1.0000
  C   C285      1.0  0.11166  0.27174  0.64756  1.0000
  H   H481      1.0  0.10919  0.29171  0.61552  1.0000
  C   C286      1.0  0.01313  0.32777  0.56393  1.0000
  H   H482      1.0  0.14416  0.30810  0.63461  1.0000
  H   H483      1.0  0.11865  0.30586  0.64135  1.0000
  H   H484      1.0  0.15144  0.28499  0.67284  1.0000
  H   H485      1.0  0.12556  0.28291  0.68005  1.0000
  H   H486      1.0  0.12351  0.31909  0.59733  1.0000
  H   H487      1.0  0.11899  0.30715  0.57741  1.0000
  S   S64       1.0  0.04019  0.47383  0.68614  1.0000
  H   H488      1.0  0.11522  0.31128  0.68616  1.0000
  H   H489      1.0  0.13040  0.29816  0.70909  1.0000
  H   H490      1.0  0.14171  0.31190  0.68100  1.0000
  H   H491      1.0  0.14780  0.31507  0.54154  1.0000
  C   C287      1.0  0.06996  0.43838  0.97468  1.0000
  C   C288      1.0  0.12221  0.44500  0.91147  1.0000
  H   H492      1.0  0.17001  0.39151  0.92244  1.0000
  H   H493      1.0  0.03348  0.28059  0.63954  1.0000
  C   C289      1.0  0.30478  0.26195  0.56220  1.0000
  C   C290      1.0  0.01596  0.29378  0.87136  1.0000
  H   H494      1.0  0.00641  0.29878  0.88866  1.0000
  H   H495      1.0  0.02826  0.33069  0.56143  1.0000
  C   C291      1.0  0.08192  0.43751  0.94646  1.0000
  H   H496      1.0  0.15799  0.37741  0.94905  1.0000
  H   H497      1.0  0.05443  0.44523  0.97374  1.0000
  H   H498      1.0  0.02689  0.28340  0.87980  1.0000
  C   C292      1.0  0.13786  0.39961  0.93713  1.0000
  H   H499      1.0  0.12525  0.44907  0.92812  1.0000
  H   H500      1.0  0.10859  0.45338  0.90579  1.0000
  H   H501      1.0  0.02645  0.47268  0.57146  1.0000
  H   H502      1.0  0.03783  0.32712  0.51390  1.0000
  H   H503      1.0  0.00936  0.36431  0.70794  1.0000
  H   H504      1.0  0.18605  0.26191  0.66075  1.0000
  H   H505      1.0  0.16370  0.39424  0.95659  1.0000
  C   C293      1.0  0.07574  0.34569  0.95634  1.0000
  C   C294      1.0  0.00589  0.39902  0.94604  1.0000
  C   C295      1.0  0.01012  0.38126  0.95839  1.0000
  C   C296      1.0  0.05313  0.46648  0.51307  1.0000
  H   H506      1.0  0.08516  0.35101  0.96440  1.0000
  H   H507      1.0  0.00385  0.33901  0.55488  1.0000
  H   H508      1.0  0.00837  0.39610  0.49460  1.0000
  C   C297      1.0  0.32662  0.25608  0.64147  1.0000
  H   H509      1.0  0.07680  0.33297  0.96637  1.0000
  H   H510      1.0  0.00619  0.36534  0.61327  1.0000
  C   C298      1.0  0.14882  0.23966  0.69746  1.0000
  H   H511      1.0  0.02962  0.26726  0.62163  1.0000
  C   C299      1.0  0.01847  0.30886  0.60674  1.0000
  H   H512      1.0  0.00745  0.28377  0.84197  1.0000
  H   H513      1.0  0.00840  0.35045  0.64391  1.0000
  H   H514      1.0  0.16359  0.25343  0.71171  1.0000
  H   H515      1.0  0.30414  0.24130  0.70380  1.0000
  H   H516      1.0  0.05725  0.47698  0.49782  1.0000
  H   H517      1.0  0.00986  0.31082  0.82066  1.0000
  C   C300      1.0  0.00647  0.34162  0.79787  1.0000
  H   H518      1.0  0.07838  0.45006  0.49555  1.0000
  H   H519      1.0  0.00122  0.38818  0.66376  1.0000
  H   H520      1.0  0.00540  0.37217  0.73734  1.0000
  C   C301      1.0  0.02663  0.48399  0.55627  1.0000
  N   N16       1.0  0.01918  0.48325  0.53222  1.0000
  H   H521      1.0  0.00914  0.48344  0.77391  1.0000
  H   H522      1.0  0.04282  0.48514  0.55054  1.0000
  H   H523      1.0  0.00551  0.26362  0.88532  1.0000
  N   N17       1.0  0.00421  0.32262  0.59319  1.0000
  H   H524      1.0  0.00352  0.25532  0.74877  1.0000
  H   H525      1.0  0.00845  0.48535  0.65325  1.0000
  H   H526      1.0  0.18974  0.23985  0.73362  1.0000
  H   H527      1.0  0.00012  0.40101  0.92740  1.0000
  C   C302      1.0  0.00131  0.33647  0.60620  1.0000
  H   H528      1.0  0.02634  0.48742  0.60732  1.0000
  H   H529      1.0  0.00110  0.28967  0.62295  1.0000
  H   H530      1.0  0.99889  0.42921  0.72015  1.0000
  H   H531      1.0  0.17257  0.23878  0.79375  1.0000
  H   H532      1.0  0.99880  0.32146  0.84617  1.0000
  C   C303      1.0  0.31633  0.23838  0.59383  1.0000
  H   H533      1.0  0.02850  0.38496  0.98283  1.0000
  C   C304      1.0  0.08479  0.73740  0.11705  1.0000
  S   S65       1.0  0.12215  0.50900  0.13551  1.0000
  Fe  Fe33      1.0  0.11338  0.52773  0.10041  1.0000
  S   S66       1.0  0.10102  0.55402  0.09687  1.0000
  H   H534      1.0  0.13414  0.67885  0.11980  1.0000
  S   S67       1.0  0.09486  0.51385  0.08957  1.0000
  H   H535      1.0  0.15166  0.70657  0.38571  1.0000
  Fe  Fe34      1.0  0.02919  0.63798  0.15296  1.0000
  S   S68       1.0  0.05471  0.63893  0.17109  1.0000
  S   S69       1.0  0.02192  0.65314  0.11393  1.0000
  Fe  Fe35      1.0  0.01040  0.61618  0.20287  1.0000
  S   S70       1.0  0.03386  0.61573  0.22541  1.0000
  N   N18       1.0  0.12256  0.72538  0.35519  1.0000
  Fe  Fe36      1.0  0.03071  0.64186  0.20772  1.0000
  S   S71       1.0  0.02277  0.66265  0.22776  1.0000
  Fe  Fe37      1.0  0.05552  0.61268  0.18677  1.0000
  S   S72       1.0  0.08233  0.59244  0.18822  1.0000
  H   H536      1.0  0.01398  0.63597  0.30560  1.0000
  S   S73       1.0  0.03203  0.61156  0.16537  1.0000
  H   H537      1.0  0.03883  0.60671  0.28404  1.0000
  C   C305      1.0  0.08751  0.71644  0.46975  1.0000
  S   S74       1.0  0.08071  0.70198  0.06392  1.0000
  C   C306      1.0  0.03713  0.65575  0.03637  1.0000
  Fe  Fe38      1.0  0.05670  0.68529  0.33770  1.0000
  S   S75       1.0  0.03813  0.70864  0.32147  1.0000
  S   S76       1.0  0.06827  0.66491  0.31650  1.0000
  Fe  Fe39      1.0  0.05724  0.69513  0.38907  1.0000
  S   S77       1.0  0.03887  0.71927  0.37687  1.0000
  S   S78       1.0  0.06585  0.68550  0.42978  1.0000
  Fe  Fe40      1.0  0.02035  0.70660  0.36354  1.0000
  H   H538      1.0  0.01075  0.72845  0.27098  1.0000
  Fe  Fe41      1.0  0.05833  0.71917  0.33601  1.0000
  C   C307      1.0  0.11103  0.70045  0.11735  1.0000
  S   S79       1.0  0.03710  0.68237  0.37869  1.0000
  S   S80       1.0  0.07856  0.69600  0.34923  1.0000
  H   H539      1.0  0.18386  0.56322  0.11375  1.0000
  H   H540      1.0  0.19253  0.55430  0.08573  1.0000
  H   H541      1.0  0.00677  0.71616  0.25100  1.0000
  H   H542      1.0  0.17201  0.49350  0.99675  1.0000
  C   C308      1.0  0.14015  0.58499  0.11790  1.0000
  H   H543      1.0  0.99886  0.67602  0.03560  1.0000
  C   C309      1.0  0.03584  0.66302  0.25208  1.0000
  C   C310      1.0  0.02843  0.67482  0.26703  1.0000
  C   C311      1.0  0.03825  0.67540  0.28687  1.0000
  C   C312      1.0  0.05567  0.66430  0.29173  1.0000
  C   C313      1.0  0.06313  0.65248  0.27674  1.0000
  C   C314      1.0  0.05324  0.65183  0.25692  1.0000
  H   H544      1.0  0.01489  0.68341  0.26346  1.0000
  H   H545      1.0  0.03229  0.68434  0.29858  1.0000
  H   H546      1.0  0.07660  0.64383  0.28043  1.0000
  H   H547      1.0  0.05907  0.64271  0.24541  1.0000
  C   C315      1.0  0.03840  0.66659  0.09989  1.0000
  C   C316      1.0  0.05836  0.66256  0.10360  1.0000
  C   C317      1.0  0.07141  0.67337  0.09199  1.0000
  C   C318      1.0  0.06458  0.68822  0.07659  1.0000
  C   C319      1.0  0.04472  0.69215  0.07244  1.0000
  C   C320      1.0  0.03162  0.68136  0.08431  1.0000
  H   H548      1.0  0.06393  0.65097  0.11482  1.0000
  H   H549      1.0  0.08685  0.67016  0.09490  1.0000
  H   H550      1.0  0.03934  0.70362  0.06059  1.0000
  H   H551      1.0  0.01617  0.68443  0.08171  1.0000
  H   H552      1.0  0.00327  0.68275  0.17812  1.0000
  C   C321      1.0  0.03751  0.57385  0.13218  1.0000
  S   S81       1.0  0.12661  0.50424  0.02053  1.0000
  H   H553      1.0  0.01857  0.64901  0.99052  1.0000
  H   H554      1.0  0.06323  0.56428  0.21729  1.0000
  H   H555      1.0  0.01493  0.52306  0.46802  1.0000
  H   H556      1.0  0.01950  0.70341  0.99925  1.0000
  C   C322      1.0  0.14016  0.73361  0.35031  1.0000
  H   H557      1.0  0.00632  0.69118  0.33877  1.0000
  C   C323      1.0  0.01422  0.69598  0.01889  1.0000
  H   H558      1.0  0.09460  0.70340  0.11713  1.0000
  C   C324      1.0  0.07352  0.71375  0.43351  1.0000
  C   C325      1.0  0.07443  0.69757  0.44454  1.0000
  C   C326      1.0  0.08166  0.69089  0.46839  1.0000
  H   H559      1.0  0.03039  0.53271  0.19874  1.0000
  H   H560      1.0  0.14417  0.72265  0.11118  1.0000
  H   H561      1.0  0.06767  0.71904  0.41537  1.0000
  H   H562      1.0  0.13703  0.48876  0.18767  1.0000
  C   C327      1.0  0.99902  0.70699  0.03547  1.0000
  H   H563      1.0  0.00359  0.65248  0.02149  1.0000
  C   C328      1.0  0.08632  0.58137  0.16363  1.0000
  C   C329      1.0  0.09494  0.56514  0.16876  1.0000
  C   C330      1.0  0.09874  0.55634  0.14888  1.0000
  C   C331      1.0  0.09469  0.56391  0.12347  1.0000
  C   C332      1.0  0.08612  0.58011  0.11842  1.0000
  C   C333      1.0  0.08160  0.58874  0.13855  1.0000
  H   H564      1.0  0.09868  0.55939  0.18814  1.0000
  H   H565      1.0  0.10525  0.54382  0.15301  1.0000
  H   H566      1.0  0.08306  0.58605  0.09876  1.0000
  H   H567      1.0  0.07520  0.60128  0.13431  1.0000
  H   H568      1.0  0.02217  0.53428  0.16905  1.0000
  C   C334      1.0  0.13719  0.70223  0.39118  1.0000
  H   H569      1.0  0.02572  0.57744  0.18843  1.0000
  H   H570      1.0  0.03587  0.72351  0.09160  1.0000
  C   C335      1.0  0.10296  0.73679  0.35179  1.0000
  H   H571      1.0  0.00673  0.72764  0.47877  1.0000
  Fe  Fe42      1.0  0.10572  0.49446  0.12241  1.0000
  H   H572      1.0  0.13161  0.70425  0.43290  1.0000
  C   C336      1.0  0.03534  0.61526  0.29728  1.0000
  H   H573      1.0  0.11465  0.70680  0.34292  1.0000
  H   H574      1.0  0.00101  0.54895  0.21452  1.0000
  C   C337      1.0  0.00801  0.65842  0.00015  1.0000
  H   H575      1.0  0.06426  0.66139  0.04237  1.0000
  C   C338      1.0  0.01928  0.72719  0.09798  1.0000
  H   H576      1.0  0.10915  0.67602  0.13733  1.0000
  H   H577      1.0  0.05692  0.64363  0.06441  1.0000
  H   H578      1.0  0.14919  0.72820  0.06196  1.0000
  C   C339      1.0  0.12675  0.71395  0.33691  1.0000
  H   H579      1.0  0.04239  0.54470  0.22167  1.0000
  H   H580      1.0  0.21398  0.57718  0.09247  1.0000
  N   N19       1.0  0.16004  0.56182  0.09502  1.0000
  C   C340      1.0  0.14463  0.57710  0.09357  1.0000
  C   C341      1.0  0.15945  0.55400  0.07316  1.0000
  C   C342      1.0  0.15358  0.55087  0.12143  1.0000
  C   C343      1.0  0.16608  0.53372  0.12584  1.0000
  C   C344      1.0  0.16485  0.56324  0.04397  1.0000
  C   C345      1.0  0.16091  0.55486  0.02444  1.0000
  C   C346      1.0  0.16147  0.52508  0.15513  1.0000
  H   H581      1.0  0.12992  0.57506  0.09168  1.0000
  H   H582      1.0  0.14895  0.58601  0.07522  1.0000
  H   H583      1.0  0.17014  0.54242  0.07417  1.0000
  H   H584      1.0  0.14411  0.55130  0.07615  1.0000
  H   H585      1.0  0.13760  0.54981  0.12381  1.0000
  H   H586      1.0  0.18257  0.53358  0.12002  1.0000
  H   H587      1.0  0.16210  0.52683  0.11382  1.0000
  H   H588      1.0  0.15576  0.57540  0.04068  1.0000
  H   H589      1.0  0.02351  0.73524  0.13119  1.0000
  H   H590      1.0  0.14462  0.55429  0.02833  1.0000
  H   H591      1.0  0.04756  0.56109  0.25012  1.0000
  H   H592      1.0  0.17005  0.51268  0.15740  1.0000
  H   H593      1.0  0.16607  0.53099  0.16814  1.0000
  H   H594      1.0  0.14509  0.52478  0.16179  1.0000
  H   H595      1.0  0.13934  0.60954  0.09613  1.0000
  H   H596      1.0  0.05210  0.56551  0.13199  1.0000
  H   H597      1.0  0.13014  0.57858  0.13497  1.0000
  C   C347      1.0  0.00475  0.68279  0.01537  1.0000
  H   H598      1.0  0.15465  0.72534  0.34505  1.0000
  H   H599      1.0  0.04756  0.58621  0.09151  1.0000
  H   H600      1.0  0.06252  0.51370  0.18895  1.0000
  C   C348      1.0  0.18402  0.49094  0.00860  1.0000
  H   H601      1.0  0.21857  0.57036  0.06167  1.0000
  H   H602      1.0  0.00292  0.68066  0.44339  1.0000
  H   H603      1.0  0.11996  0.72577  0.13092  1.0000
  C   C349      1.0  0.06165  0.51845  0.16752  1.0000
  N   N20       1.0  0.02150  0.55690  0.17764  1.0000
  C   C350      1.0  0.12928  0.60224  0.11150  1.0000
  H   H604      1.0  0.04788  0.65650  0.99448  1.0000
  C   C351      1.0  0.01951  0.56608  0.14960  1.0000
  C   C352      1.0  0.08007  0.72313  0.44611  1.0000
  H   H605      1.0  0.03133  0.64156  0.43393  1.0000
  C   C353      1.0  0.18118  0.56412  0.09340  1.0000
  C   C354      1.0  0.03838  0.66497  0.00688  1.0000
  H   H606      1.0  0.04837  0.62130  0.29291  1.0000
  C   C355      1.0  0.00370  0.65901  0.43036  1.0000
  H   H607      1.0  0.14105  0.70529  0.33909  1.0000
  C   C356      1.0  0.11783  0.68260  0.11895  1.0000
  H   H608      1.0  0.21321  0.59128  0.06107  1.0000
  H   H609      1.0  0.15421  0.58463  0.12454  1.0000
  H   H610      1.0  0.02046  0.58917  0.10236  1.0000
  H   H611      1.0  0.03855  0.58397  0.14004  1.0000
  H   H612      1.0  0.01917  0.63417  0.27142  1.0000
  H   H613      1.0  0.11518  0.67942  0.10130  1.0000
  H   H614      1.0  0.08380  0.72070  0.23062  1.0000
  H   H615      1.0  0.03343  0.60872  0.31849  1.0000
  H   H616      1.0  0.04735  0.67440  0.00325  1.0000
  C   C357      1.0  0.03102  0.53972  0.17784  1.0000
  H   H617      1.0  0.02726  0.66301  0.05043  1.0000
  C   C358      1.0  0.01420  0.71711  0.44478  1.0000
  H   H618      1.0  0.11378  0.70487  0.29758  1.0000
  H   H619      1.0  0.08428  0.72584  0.13121  1.0000
  H   H620      1.0  0.14633  0.68553  0.42622  1.0000
  H   H621      1.0  0.11347  0.70282  0.13572  1.0000
  C   C359      1.0  0.05806  0.65077  0.04360  1.0000
  H   H622      1.0  0.11717  0.70746  0.07513  1.0000
  C   C360      1.0  0.18697  0.58007  0.07638  1.0000
  H   H623      1.0  0.05348  0.54020  0.14046  1.0000
  C   C361      1.0  0.02338  0.65259  0.44097  1.0000
  H   H624      1.0  0.01611  0.70545  0.43960  1.0000
  H   H625      1.0  0.07713  0.51628  0.15534  1.0000
  H   H626      1.0  0.01980  0.55838  0.23255  1.0000
  C   C362      1.0  0.03489  0.55736  0.21911  1.0000
  H   H627      1.0  0.16997  0.54261  0.02636  1.0000
  H   H628      1.0  0.07135  0.71931  0.27928  1.0000
  H   H629      1.0  0.07920  0.73569  0.43778  1.0000
  C   C363      1.0  0.02510  0.51235  0.46189  1.0000
  C   C364      1.0  0.00056  0.70323  0.14377  1.0000
  H   H630      1.0  0.00924  0.70804  0.28520  1.0000
  H   H631      1.0  0.12485  0.60708  0.12993  1.0000
  H   H632      1.0  0.04090  0.57886  0.22570  1.0000
  C   C365      1.0  0.13338  0.69509  0.42125  1.0000
  C   C366      1.0  0.04740  0.56596  0.22854  1.0000
  H   H633      1.0  0.02866  0.72148  0.43698  1.0000
  H   H634      1.0  0.00151  0.61234  0.28197  1.0000
  C   C367      1.0  0.11946  0.71582  0.38367  1.0000
  H   H635      1.0  0.18118  0.56374  0.03872  1.0000
  N   N21       1.0  0.01496  0.71225  0.14790  1.0000
  C   C368      1.0  0.01023  0.71553  0.17566  1.0000
  C   C369      1.0  0.03656  0.70348  0.14248  1.0000
  C   C370      1.0  0.00809  0.71572  0.47502  1.0000
  H   H636      1.0  0.14376  0.72494  0.29852  1.0000
  C   C371      1.0  0.12716  0.73216  0.03698  1.0000
  C   C372      1.0  0.01369  0.72800  0.12804  1.0000
  C   C373      1.0  0.05303  0.53624  0.16231  1.0000
  C   C374      1.0  0.04179  0.68706  0.16111  1.0000
  C   C375      1.0  0.06462  0.68157  0.15858  1.0000
  C   C376      1.0  0.03306  0.56472  0.18954  1.0000
  H   H637      1.0  0.00989  0.70445  0.19126  1.0000
  H   H638      1.0  0.04867  0.56492  0.17782  1.0000
  H   H639      1.0  0.18345  0.50178  0.01563  1.0000
  H   H640      1.0  0.03361  0.66132  0.43340  1.0000
  H   H641      1.0  0.04087  0.70118  0.12196  1.0000
  H   H642      1.0  0.04701  0.71103  0.14314  1.0000
  H   H643      1.0  0.11673  0.73118  0.30148  1.0000
  Fe  Fe43      1.0  0.07341  0.71920  0.02644  1.0000
  Fe  Fe44      1.0  0.14859  0.49927  0.10600  1.0000
  S   S82       1.0  0.09887  0.72543  0.99262  1.0000
  C   C377      1.0  0.01627  0.62756  0.29246  1.0000
  H   H644      1.0  0.12890  0.71958  0.03617  1.0000
  H   H645      1.0  0.11951  0.68989  0.42732  1.0000
  H   H646      1.0  0.13074  0.71404  0.26944  1.0000
  H   H647      1.0  0.10574  0.71043  0.38823  1.0000
  H   H648      1.0  0.02276  0.72024  0.17873  1.0000
  H   H649      1.0  0.03568  0.68713  0.18246  1.0000
  H   H650      1.0  0.03582  0.67811  0.15559  1.0000
  H   H651      1.0  0.07202  0.68129  0.13755  1.0000
  H   H652      1.0  0.07104  0.68964  0.16564  1.0000
  H   H653      1.0  0.06797  0.66947  0.17112  1.0000
  H   H654      1.0  0.13894  0.70424  0.08911  1.0000
  H   H655      1.0  0.13882  0.69246  0.38092  1.0000
  N   N22       1.0  0.12019  0.72746  0.08905  1.0000
  H   H656      1.0  0.00654  0.57622  0.15041  1.0000
  H   H657      1.0  0.11536  0.60310  0.10410  1.0000
  C   C378      1.0  0.12900  0.72107  0.30643  1.0000
  C   C379      1.0  0.12861  0.70873  0.29124  1.0000
  H   H658      1.0  0.06864  0.64344  0.03000  1.0000
  H   H659      1.0  0.15670  0.73294  0.01065  1.0000
  H   H660      1.0  0.14087  0.69825  0.29474  1.0000
  C   C380      1.0  0.12260  0.70985  0.09147  1.0000
  S   S83       1.0  0.00523  0.64241  0.18849  1.0000
  Fe  Fe45      1.0  0.12355  0.50413  0.06388  1.0000
  H   H661      1.0  0.02724  0.69086  0.02899  1.0000
  C   C381      1.0  0.20958  0.57963  0.07274  1.0000
  C   C382      1.0  0.03476  0.58032  0.10325  1.0000
  H   H662      1.0  0.15410  0.55585  0.13843  1.0000
  H   H663      1.0  0.05226  0.51192  0.16174  1.0000
  S   S84       1.0  0.14144  0.51947  0.07197  1.0000
  H   H664      1.0  0.06314  0.54204  0.16816  1.0000
  H   H665      1.0  0.00773  0.66079  0.40817  1.0000
  H   H666      1.0  0.17877  0.58994  0.08645  1.0000
  H   H667      1.0  0.18322  0.58304  0.05628  1.0000
  C   C383      1.0  0.00315  0.71880  0.27127  1.0000
  H   H668      1.0  0.11659  0.72364  0.39808  1.0000
  S   S85       1.0  0.18068  0.49338  0.11234  1.0000
  C   C384      1.0  0.08528  0.72993  0.23946  1.0000
  C   C385      1.0  0.00050  0.55737  0.19486  1.0000
  H   H669      1.0  0.03111  0.64480  0.03963  1.0000
  C   C386      1.0  0.09841  0.73567  0.08942  1.0000
  H   H670      1.0  0.02286  0.51192  0.44200  1.0000
  H   H671      1.0  0.16519  0.56150  0.00358  1.0000
  H   H672      1.0  0.14114  0.73669  0.36903  1.0000
  S   S86       1.0  0.05543  0.71497  0.00015  1.0000
  H   H673      1.0  0.00589  0.71699  0.03552  1.0000
  C   C387      1.0  0.08816  0.70030  0.48100  1.0000
  C   C388      1.0  0.12878  0.73008  0.11080  1.0000
  H   H674      1.0  0.01599  0.55847  0.13829  1.0000
  H   H675      1.0  0.00241  0.72566  0.43475  1.0000
  H   H676      1.0  0.01169  0.71871  0.09391  1.0000
  H   H677      1.0  0.09095  0.72968  0.07953  1.0000
  H   H678      1.0  0.09840  0.49320  0.18363  1.0000
  H   H679      1.0  0.08236  0.67837  0.47703  1.0000
  H   H680      1.0  0.19902  0.48803  0.99560  1.0000
  C   C389      1.0  0.07813  0.72918  0.26700  1.0000
  H   H681      1.0  0.04107  0.51328  0.45991  1.0000
  H   H682      1.0  0.02044  0.64981  0.46313  1.0000
  N   N23       1.0  0.01845  0.67181  0.99806  1.0000
  C   C390      1.0  0.13297  0.73387  0.06250  1.0000
  H   H683      1.0  0.03914  0.70551  0.47953  1.0000
  H   H684      1.0  0.00809  0.69659  0.12764  1.0000
  H   H685      1.0  0.09093  0.73006  0.35362  1.0000
  H   H686      1.0  0.03461  0.57052  0.09396  1.0000
  C   C391      1.0  0.02032  0.49734  0.48224  1.0000
  H   H687      1.0  0.00448  0.49672  0.48282  1.0000
  H   H688      1.0  0.02451  0.65489  0.70233  1.0000
  H   H689      1.0  0.14721  0.64084  0.52366  1.0000
  H   H690      1.0  0.00951  0.69221  0.85070  1.0000
  C   C392      1.0  0.10749  0.49387  0.74134  1.0000
  C   C393      1.0  0.15093  0.62921  0.57749  1.0000
  S   S87       1.0  0.04322  0.50759  0.64192  1.0000
  C   C394      1.0  0.13504  0.70427  0.76078  1.0000
  C   C395      1.0  0.02530  0.49866  0.59210  1.0000
  Fe  Fe46      1.0  0.06256  0.51265  0.66590  1.0000
  S   S88       1.0  0.06991  0.53736  0.65342  1.0000
  C   C396      1.0  0.00078  0.71742  0.71352  1.0000
  S   S89       1.0  0.09511  0.70910  0.60543  1.0000
  Fe  Fe47      1.0  0.07824  0.70218  0.58062  1.0000
  C   C397      1.0  0.15560  0.69765  0.75739  1.0000
  S   S90       1.0  0.05144  0.69026  0.59431  1.0000
  H   H691      1.0  0.15486  0.62345  0.56010  1.0000
  H   H692      1.0  0.02566  0.66235  0.94781  1.0000
  N   N24       1.0  0.07344  0.53381  0.75773  1.0000
  S   S91       1.0  0.03169  0.67657  0.76841  1.0000
  Fe  Fe48      1.0  0.12409  0.58505  0.70149  1.0000
  S   S92       1.0  0.09287  0.59505  0.72098  1.0000
  S   S93       1.0  0.13199  0.55911  0.69992  1.0000
  Fe  Fe49      1.0  0.13778  0.61698  0.68630  1.0000
  S   S94       1.0  0.10720  0.62965  0.70338  1.0000
  S   S95       1.0  0.16225  0.63152  0.66520  1.0000
  Fe  Fe50      1.0  0.10793  0.60861  0.73772  1.0000
  S   S96       1.0  0.09639  0.61298  0.77927  1.0000
  Fe  Fe51      1.0  0.09458  0.61510  0.68525  1.0000
  S   S97       1.0  0.06640  0.62247  0.66825  1.0000
  S   S98       1.0  0.13946  0.59670  0.72194  1.0000
  S   S99       1.0  0.12493  0.60429  0.66432  1.0000
  S   S100      1.0  0.24350  0.69452  0.66430  1.0000
  S   S101      1.0  0.22830  0.69986  0.72564  1.0000
  Fe  Fe52      1.0  0.21922  0.68738  0.69973  1.0000
  S   S102      1.0  0.21248  0.66244  0.71654  1.0000
  S   S103      1.0  0.19540  0.70787  0.68674  1.0000
  H   H693      1.0  0.00989  0.64737  0.84755  1.0000
  C   C398      1.0  0.17365  0.64042  0.68255  1.0000
  C   C399      1.0  0.18386  0.63138  0.70292  1.0000
  C   C400      1.0  0.19518  0.63841  0.71374  1.0000
  C   C401      1.0  0.19652  0.65450  0.70419  1.0000
  C   C402      1.0  0.18590  0.66361  0.68433  1.0000
  C   C403      1.0  0.17458  0.65656  0.67359  1.0000
  H   H694      1.0  0.18364  0.61884  0.70960  1.0000
  H   H695      1.0  0.20349  0.63122  0.72895  1.0000
  H   H696      1.0  0.18666  0.67602  0.67697  1.0000
  H   H697      1.0  0.16658  0.66357  0.65812  1.0000
  C   C404      1.0  0.04882  0.65846  0.77242  1.0000
  C   C405      1.0  0.05268  0.64896  0.75378  1.0000
  C   C406      1.0  0.06686  0.63474  0.75633  1.0000
  C   C407      1.0  0.07727  0.62999  0.77749  1.0000
  C   C408      1.0  0.07298  0.63927  0.79659  1.0000
  C   C409      1.0  0.05883  0.65354  0.79398  1.0000
  H   H698      1.0  0.04521  0.65280  0.73692  1.0000
  H   H699      1.0  0.06977  0.62745  0.74183  1.0000
  H   H700      1.0  0.08088  0.63559  0.81309  1.0000
  H   H701      1.0  0.05556  0.66064  0.80878  1.0000
  C   C410      1.0  0.05527  0.67191  0.61628  1.0000
  C   C411      1.0  0.04171  0.66178  0.62076  1.0000
  C   C412      1.0  0.04506  0.64671  0.63730  1.0000
  C   C413      1.0  0.06177  0.64186  0.64973  1.0000
  C   C414      1.0  0.07485  0.65226  0.64622  1.0000
  C   C415      1.0  0.07164  0.66730  0.62924  1.0000
  H   H702      1.0  0.02892  0.66541  0.61090  1.0000
  H   H703      1.0  0.03494  0.63866  0.64009  1.0000
  H   H704      1.0  0.08764  0.64858  0.65606  1.0000
  H   H705      1.0  0.08188  0.67530  0.62589  1.0000
  C   C416      1.0  0.18913  0.70328  0.62111  1.0000
  H   H706      1.0  0.15479  0.71991  0.64642  1.0000
  H   H707      1.0  0.19612  0.69754  0.63817  1.0000
  C   C417      1.0  0.12899  0.66326  0.63126  1.0000
  C   C418      1.0  0.08820  0.54309  0.66495  1.0000
  C   C419      1.0  0.08653  0.55921  0.66429  1.0000
  C   C420      1.0  0.10008  0.56422  0.67462  1.0000
  C   C421      1.0  0.11569  0.55316  0.68521  1.0000
  C   C422      1.0  0.11786  0.53709  0.68496  1.0000
  C   C423      1.0  0.10414  0.53206  0.67484  1.0000
  H   H708      1.0  0.07443  0.56784  0.65626  1.0000
  H   H709      1.0  0.09832  0.57664  0.67455  1.0000
  H   H710      1.0  0.13006  0.52851  0.69282  1.0000
  H   H711      1.0  0.10577  0.51965  0.67492  1.0000
  H   H712      1.0  0.12208  0.63683  0.53057  1.0000
  C   C424      1.0  0.12321  0.64504  0.60523  1.0000
  H   H713      1.0  0.08541  0.72968  0.64209  1.0000
  H   H714      1.0  0.04712  0.52438  0.78126  1.0000
  C   C425      1.0  0.02266  0.68119  0.96968  1.0000
  C   C426      1.0  0.03654  0.72672  0.51029  1.0000
  H   H715      1.0  0.06449  0.62619  0.58991  1.0000
  H   H716      1.0  0.04344  0.69217  0.91914  1.0000
  H   H717      1.0  0.01386  0.50932  0.55636  1.0000
  H   H718      1.0  0.01641  0.50835  0.60227  1.0000
  H   H719      1.0  0.09654  0.63597  0.85667  1.0000
  H   H720      1.0  0.03323  0.73076  0.66551  1.0000
  H   H721      1.0  0.17236  0.59337  0.78862  1.0000
  C   C427      1.0  0.03553  0.68255  0.92010  1.0000
  S   S104      1.0  0.15204  0.69273  0.58308  1.0000
  C   C428      1.0  0.03834  0.69047  0.52933  1.0000
  H   H722      1.0  0.18572  0.70206  0.74802  1.0000
  Fe  Fe53      1.0  0.25058  0.70895  0.68919  1.0000
  H   H723      1.0  0.02783  0.66806  0.53461  1.0000
  H   H724      1.0  0.03491  0.53528  0.74533  1.0000
  H   H725      1.0  0.07277  0.66718  0.53185  1.0000
  H   H726      1.0  0.17243  0.68493  0.62666  1.0000
  H   H727      1.0  0.12770  0.66132  0.70073  1.0000
  H   H728      1.0  0.00841  0.68830  0.96382  1.0000
  H   H729      1.0  0.01769  0.63956  0.69187  1.0000
  H   H730      1.0  0.12210  0.71516  0.81161  1.0000
  S   S105      1.0  0.10571  0.69552  0.55002  1.0000
  N   N25       1.0  0.02945  0.70641  0.67597  1.0000
  Fe  Fe54      1.0  0.04561  0.69492  0.77544  1.0000
  H   H731      1.0  0.03829  0.72868  0.48831  1.0000
  H   H732      1.0  0.24672  0.72457  0.75573  1.0000
  C   C429      1.0  0.02329  0.49756  0.51032  1.0000
  C   C430      1.0  0.08044  0.62060  0.59116  1.0000
  Fe  Fe55      1.0  0.21978  0.71601  0.65316  1.0000
  C   C431      1.0  0.11576  0.62610  0.58453  1.0000
  H   H733      1.0  0.10276  0.50596  0.77313  1.0000
  H   H734      1.0  0.01916  0.71608  0.54735  1.0000
  C   C432      1.0  0.28941  0.63794  0.57654  1.0000
  C   C433      1.0  0.13092  0.64585  0.52956  1.0000
  H   H735      1.0  0.31712  0.73770  0.74897  1.0000
  C   C434      1.0  0.15641  0.61584  0.60157  1.0000
  C   C435      1.0  0.17906  0.60899  0.59712  1.0000
  H   H736      1.0  0.16133  0.63775  0.57265  1.0000
  H   H737      1.0  0.18396  0.60396  0.57889  1.0000
  H   H738      1.0  0.18778  0.61829  0.59517  1.0000
  H   H739      1.0  0.18241  0.59937  0.61460  1.0000
  C   C436      1.0  0.05302  0.51586  0.83297  1.0000
  N   N26       1.0  0.12922  0.63780  0.58091  1.0000
  H   H740      1.0  0.16391  0.72348  0.55965  1.0000
  H   H741      1.0  0.11625  0.67238  0.72666  1.0000
  H   H742      1.0  0.16066  0.68503  0.75940  1.0000
  H   H743      1.0  0.11605  0.67273  0.62617  1.0000
  H   H744      1.0  0.14198  0.66337  0.58996  1.0000
  H   H745      1.0  0.03723  0.69020  0.55072  1.0000
  H   H746      1.0  0.10809  0.65447  0.72804  1.0000
  H   H747      1.0  0.09185  0.63996  0.56252  1.0000
  H   H748      1.0  0.15228  0.64653  0.61290  1.0000
  C   C437      1.0  0.12675  0.65100  0.55659  1.0000
  Fe  Fe56      1.0  0.20626  0.72096  0.70963  1.0000
  H   H749      1.0  0.08675  0.64175  0.59666  1.0000
  C   C438      1.0  0.13826  0.69873  0.68920  1.0000
  C   C439      1.0  0.09032  0.54078  0.76070  1.0000
  H   H750      1.0  0.02019  0.69442  0.71700  1.0000
  C   C440      1.0  0.06157  0.54634  0.73893  1.0000
  H   H751      1.0  0.08079  0.61403  0.61213  1.0000
  C   C441      1.0  0.08385  0.55610  0.77193  1.0000
  C   C442      1.0  0.04589  0.54086  0.72866  1.0000
  H   H752      1.0  0.13518  0.68618  0.81940  1.0000
  Fe  Fe57      1.0  0.09820  0.72076  0.52807  1.0000
  C   C443      1.0  0.10220  0.56128  0.77564  1.0000
  C   C444      1.0  0.03389  0.55482  0.71159  1.0000
  H   H753      1.0  0.10053  0.54355  0.74089  1.0000
  H   H754      1.0  0.26853  0.67959  0.61344  1.0000
  H   H755      1.0  0.10458  0.71413  0.84231  1.0000
  H   H756      1.0  0.08471  0.52295  0.72334  1.0000
  H   H757      1.0  0.07209  0.55151  0.72089  1.0000
  H   H758      1.0  0.05312  0.55638  0.74854  1.0000
  S   S106      1.0  0.04178  0.50591  0.70517  1.0000
  C   C445      1.0  0.05938  0.72605  0.91012  1.0000
  C   C446      1.0  0.05849  0.66257  0.53992  1.0000
  H   H759      1.0  0.07626  0.56603  0.75795  1.0000
  H   H760      1.0  0.07350  0.55426  0.79168  1.0000
  H   H761      1.0  0.10709  0.49643  0.71970  1.0000
  H   H762      1.0  0.05355  0.53223  0.71586  1.0000
  H   H763      1.0  0.01006  0.64116  0.76364  1.0000
  N   N27       1.0  0.02057  0.70181  0.51923  1.0000
  H   H764      1.0  0.05114  0.72011  0.51581  1.0000
  H   H765      1.0  0.29038  0.64703  0.55752  1.0000
  C   C447      1.0  0.02062  0.69498  0.66765  1.0000
  C   C448      1.0  0.02379  0.70314  0.48950  1.0000
  H   H766      1.0  0.11486  0.51588  0.74115  1.0000
  H   H767      1.0  0.11316  0.56330  0.75638  1.0000
  C   C449      1.0  0.13419  0.70114  0.84649  1.0000
  H   H768      1.0  0.04421  0.56065  0.69417  1.0000
  H   H769      1.0  0.03205  0.69003  0.96799  1.0000
  H   H770      1.0  0.09728  0.57257  0.78276  1.0000
  H   H771      1.0  0.28340  0.62800  0.57423  1.0000
  H   H772      1.0  0.03992  0.51167  0.83054  1.0000
  H   H773      1.0  0.15483  0.72746  0.83680  1.0000
  H   H774      1.0  0.11507  0.68454  0.84863  1.0000
  H   H775      1.0  0.01321  0.50851  0.51568  1.0000
  H   H776      1.0  0.15039  0.70183  0.83895  1.0000
  H   H777      1.0  0.10987  0.55215  0.79062  1.0000
  C   C450      1.0  0.01220  0.73094  0.96212  1.0000
  C   C451      1.0  0.99938  0.65091  0.75343  1.0000
  H   H778      1.0  0.07141  0.70028  0.85719  1.0000
  H   H779      1.0  0.14048  0.66896  0.63432  1.0000
  H   H780      1.0  0.14839  0.60597  0.60445  1.0000
  C   C452      1.0  0.00264  0.73341  0.71748  1.0000
  S   S107      1.0  0.22882  0.73099  0.67496  1.0000
  S   S108      1.0  0.28214  0.70792  0.69591  1.0000
  H   H781      1.0  0.05863  0.69976  0.65089  1.0000
  C   C453      1.0  0.16986  0.70736  0.75064  1.0000
  H   H782      1.0  0.00956  0.72846  0.66218  1.0000
  Fe  Fe58      1.0  0.08883  0.73333  0.57964  1.0000
  H   H783      1.0  0.00455  0.72561  0.52264  1.0000
  N   N28       1.0  0.23962  0.66144  0.61351  1.0000
  C   C454      1.0  0.24411  0.65691  0.64135  1.0000
  C   C455      1.0  0.24014  0.67884  0.60243  1.0000
  C   C456      1.0  0.21824  0.65934  0.61606  1.0000
  C   C457      1.0  0.25386  0.65135  0.59502  1.0000
  C   C458      1.0  0.27594  0.64521  0.59961  1.0000
  C   C459      1.0  0.24150  0.63990  0.65710  1.0000
  C   C460      1.0  0.21002  0.66396  0.58970  1.0000
  C   C461      1.0  0.26107  0.68365  0.59595  1.0000
  H   H784      1.0  0.03010  0.63444  0.71986  1.0000
  H   H785      1.0  0.15189  0.71575  0.69645  1.0000
  H   H786      1.0  0.03887  0.49952  0.50826  1.0000
  C   C462      1.0  0.19106  0.65721  0.59340  1.0000
  H   H787      1.0  0.23393  0.66519  0.65381  1.0000
  H   H788      1.0  0.25955  0.65837  0.64105  1.0000
  H   H789      1.0  0.23456  0.68312  0.58335  1.0000
  H   H790      1.0  0.22970  0.68602  0.61648  1.0000
  H   H791      1.0  0.20755  0.66633  0.63020  1.0000
  H   H792      1.0  0.21683  0.64676  0.62493  1.0000
  H   H793      1.0  0.24791  0.64057  0.59631  1.0000
  H   H794      1.0  0.25454  0.65795  0.57383  1.0000
  C   C463      1.0  0.01919  0.71763  0.52572  1.0000
  H   H795      1.0  0.02330  0.55045  0.70384  1.0000
  H   H796      1.0  0.22529  0.63986  0.66601  1.0000
  H   H797      1.0  0.24642  0.63120  0.64406  1.0000
  H   H798      1.0  0.22128  0.65949  0.57314  1.0000
  H   H799      1.0  0.20583  0.67705  0.58341  1.0000
  H   H800      1.0  0.10905  0.66515  0.51155  1.0000
  H   H801      1.0  0.26976  0.63262  0.67173  1.0000
  C   C464      1.0  0.18447  0.72501  0.58321  1.0000
  Fe  Fe59      1.0  0.12199  0.70533  0.57225  1.0000
  S   S109      1.0  0.06983  0.72676  0.55740  1.0000
  H   H802      1.0  0.15176  0.69333  0.67596  1.0000
  H   H803      1.0  0.14085  0.67553  0.85158  1.0000
  H   H804      1.0  0.27641  0.63586  0.61816  1.0000
  H   H805      1.0  0.30281  0.72821  0.77914  1.0000
  H   H806      1.0  0.07070  0.51145  0.75073  1.0000
  H   H807      1.0  0.17283  0.73757  0.65371  1.0000
  H   H808      1.0  0.18481  0.66141  0.57482  1.0000
  H   H809      1.0  0.19462  0.64405  0.59799  1.0000
  H   H810      1.0  0.17931  0.66121  0.61000  1.0000
  C   C465      1.0  0.06802  0.70746  0.87195  1.0000
  H   H811      1.0  0.24972  0.62252  0.69195  1.0000
  H   H812      1.0  0.17087  0.67291  0.80433  1.0000
  H   H813      1.0  0.19065  0.66325  0.78112  1.0000
  C   C466      1.0  0.13808  0.65451  0.60843  1.0000
  S   S110      1.0  0.07176  0.72758  0.77987  1.0000
  H   H814      1.0  0.11132  0.65846  0.55954  1.0000
  H   H815      1.0  0.15235  0.62021  0.62033  1.0000
  H   H816      1.0  0.10011  0.53213  0.77369  1.0000
  H   H817      1.0  0.11577  0.61772  0.60435  1.0000
  Fe  Fe60      1.0  0.08536  0.70298  0.77386  1.0000
  C   C467      1.0  0.17567  0.69613  0.61463  1.0000
  H   H818      1.0  0.08806  0.68796  0.69359  1.0000
  C   C468      1.0  0.04695  0.72914  0.89145  1.0000
  C   C469      1.0  0.16369  0.72378  0.74676  1.0000
  H   H819      1.0  0.05262  0.69472  0.51900  1.0000
  C   C470      1.0  0.14501  0.73297  0.82174  1.0000
  C   C471      1.0  0.16651  0.70331  0.59252  1.0000
  C   C472      1.0  0.12139  0.66030  0.72247  1.0000
  S   S111      1.0  0.09207  0.71005  0.93277  1.0000
  H   H820      1.0  0.17310  0.60082  0.75308  1.0000
  H   H821      1.0  0.12404  0.65494  0.65023  1.0000
  H   H822      1.0  0.24895  0.64267  0.69317  1.0000
  C   C473      1.0  0.07596  0.71354  0.91011  1.0000
  C   C474      1.0  0.03343  0.72475  0.62849  1.0000
  C   C475      1.0  0.17070  0.71793  0.57699  1.0000
  H   H823      1.0  0.09625  0.65475  0.86380  1.0000
  C   C476      1.0  0.25324  0.63411  0.67984  1.0000
  H   H824      1.0  0.10851  0.65335  0.60488  1.0000
  H   H825      1.0  0.09308  0.69448  0.89101  1.0000
  H   H826      1.0  0.12174  0.61845  0.56962  1.0000
  Fe  Fe61      1.0  0.05305  0.72820  0.75057  1.0000
  S   S112      1.0  0.06894  0.70459  0.74158  1.0000
  H   H827      1.0  0.13826  0.69183  0.71003  1.0000
  S   S113      1.0  0.11783  0.69146  0.77028  1.0000
  H   H828      1.0  0.11728  0.63862  0.86913  1.0000
  H   H829      1.0  0.28288  0.65464  0.60165  1.0000
  H   H830      1.0  0.07373  0.50586  0.80170  1.0000
  C   C477      1.0  0.19373  0.71769  0.60530  1.0000
  H   H831      1.0  0.27091  0.67866  0.57892  1.0000
  Fe  Fe62      1.0  0.02400  0.49916  0.68146  1.0000
  H   H832      1.0  0.05425  0.66203  0.56181  1.0000
  H   H833      1.0  0.02030  0.68798  0.91543  1.0000
  H   H834      1.0  0.28120  0.72511  0.75742  1.0000
  C   C478      1.0  0.25923  0.70164  0.58745  1.0000
  C   C479      1.0  0.09329  0.63341  0.58313  1.0000
  H   H835      1.0  0.02502  0.56365  0.72361  1.0000
  H   H836      1.0  0.13070  0.69999  0.86852  1.0000
  S   S114      1.0  0.06348  0.69114  0.80725  1.0000
  H   H837      1.0  0.15557  0.58821  0.77275  1.0000
  C   C480      1.0  0.03379  0.67160  0.94788  1.0000
  H   H838      1.0  0.13714  0.65927  0.55377  1.0000
  H   H839      1.0  0.03279  0.70989  0.71380  1.0000
  C   C481      1.0  0.12544  0.66004  0.50722  1.0000
  H   H840      1.0  0.01554  0.71588  0.93470  1.0000
  H   H841      1.0  0.27453  0.70468  0.58105  1.0000
  H   H842      1.0  0.00707  0.66664  0.82553  1.0000
  C   C482      1.0  0.08195  0.51937  0.74547  1.0000
  H   H843      1.0  0.12066  0.63588  0.62403  1.0000
  N   N29       1.0  0.14283  0.64039  0.78756  1.0000
  C   C483      1.0  0.15702  0.62575  0.78030  1.0000
  C   C484      1.0  0.15528  0.65253  0.78556  1.0000
  C   C485      1.0  0.13077  0.63606  0.81553  1.0000
  C   C486      1.0  0.12819  0.64735  0.76882  1.0000
  C   C487      1.0  0.13749  0.65069  0.73852  1.0000
  C   C488      1.0  0.14707  0.61235  0.77862  1.0000
  C   C489      1.0  0.11690  0.65014  0.82732  1.0000
  C   C490      1.0  0.16921  0.64844  0.80621  1.0000
  C   C491      1.0  0.18120  0.66154  0.80164  1.0000
  C   C492      1.0  0.16309  0.59784  0.77290  1.0000
  C   C493      1.0  0.10613  0.64445  0.85601  1.0000
  H   H844      1.0  0.16687  0.62032  0.79523  1.0000
  H   H845      1.0  0.16745  0.62888  0.76085  1.0000
  H   H846      1.0  0.16534  0.65460  0.76550  1.0000
  H   H847      1.0  0.14537  0.66419  0.78713  1.0000
  H   H848      1.0  0.14092  0.62913  0.82958  1.0000
  H   H849      1.0  0.12052  0.62808  0.81609  1.0000
  H   H850      1.0  0.11703  0.63960  0.77221  1.0000
  H   H851      1.0  0.11902  0.65880  0.77317  1.0000
  H   H852      1.0  0.14368  0.63940  0.73170  1.0000
  H   H853      1.0  0.14971  0.65758  0.73356  1.0000
  H   H854      1.0  0.13681  0.60837  0.79768  1.0000
  H   H855      1.0  0.13834  0.61635  0.76237  1.0000
  H   H856      1.0  0.10503  0.65631  0.81546  1.0000
  H   H857      1.0  0.12566  0.65889  0.82765  1.0000
  H   H858      1.0  0.16034  0.64707  0.82698  1.0000
  H   H859      1.0  0.18038  0.63735  0.80439  1.0000
  H   H860      1.0  0.19137  0.65824  0.81624  1.0000
  H   H861      1.0  0.04933  0.66587  0.95091  1.0000
  C   C494      1.0  0.00513  0.72197  0.94938  1.0000
  H   H862      1.0  0.25101  0.70728  0.60446  1.0000
  H   H863      1.0  0.00009  0.68577  0.52485  1.0000
  H   H864      1.0  0.08944  0.68137  0.66355  1.0000
  C   C495      1.0  0.01488  0.49767  0.57055  1.0000
  C   C496      1.0  0.31204  0.72165  0.70093  1.0000
  H   H865      1.0  0.00110  0.68873  0.63196  1.0000
  H   H866      1.0  0.05354  0.68351  0.71090  1.0000
  H   H867      1.0  0.25111  0.70661  0.57054  1.0000
  C   C497      1.0  0.08245  0.68008  0.68510  1.0000
  H   H868      1.0  0.08601  0.61211  0.57766  1.0000
  H   H869      1.0  0.08144  0.52153  0.81054  1.0000
  H   H870      1.0  0.05450  0.67463  0.68361  1.0000
  C   C498      1.0  0.05941  0.68405  0.68924  1.0000
  H   H871      1.0  0.08721  0.66761  0.69535  1.0000
  H   H872      1.0  0.06110  0.65037  0.53659  1.0000
  H   H873      1.0  0.05629  0.73353  0.92426  1.0000
  S   S115      1.0  0.02810  0.71870  0.78199  1.0000
  H   H874      1.0  0.02957  0.69238  0.64821  1.0000
  H   H875      1.0  0.12438  0.69795  0.68319  1.0000
  C   C499      1.0  0.02157  0.70663  0.70534  1.0000
  C   C500      1.0  0.05915  0.52969  0.78401  1.0000
  S   S116      1.0  0.09627  0.72854  0.48425  1.0000
  H   H876      1.0  0.02204  0.68332  0.68199  1.0000
  C   C501      1.0  0.13108  0.68593  0.84118  1.0000
  C   C502      1.0  0.01889  0.64357  0.70953  1.0000
  C   C503      1.0  0.29422  0.72418  0.69109  1.0000
  H   H877      1.0  0.06006  0.50699  0.84883  1.0000
  C   C504      1.0  0.05209  0.70059  0.67206  1.0000
  H   H878      1.0  0.07324  0.72794  0.69101  1.0000
  H   H879      1.0  0.05944  0.70924  0.67620  1.0000
  C   C505      1.0  0.08024  0.70418  0.89106  1.0000
  H   H880      1.0  0.05092  0.54059  0.79137  1.0000
  C   C506      1.0  0.13887  0.71597  0.68780  1.0000
  C   C507      1.0  0.04165  0.67319  0.52595  1.0000
  S   S117      1.0  0.08244  0.48846  0.66890  1.0000
  Fe  Fe63      1.0  0.07939  0.72352  0.96598  1.0000
  S   S118      1.0  0.21106  0.72658  0.61278  1.0000
  H   H881      1.0  0.01204  0.73163  0.73255  1.0000
  H   H882      1.0  0.00711  0.66125  0.74692  1.0000
  C   C508      1.0  0.32239  0.73413  0.69704  1.0000
  H   H883      1.0  0.08190  0.73359  0.82765  1.0000
  C   C509      1.0  0.06858  0.51772  0.80676  1.0000
  C   C510      1.0  0.02581  0.72300  0.65912  1.0000
  H   H884      1.0  0.11289  0.72596  0.75893  1.0000
  C   C511      1.0  0.11865  0.73262  0.86347  1.0000
  C   C512      1.0  0.10252  0.50919  0.75151  1.0000
  H   H885      1.0  0.12898  0.65620  0.48793  1.0000
  H   H886      1.0  0.00172  0.49086  0.74190  1.0000
  H   H887      1.0  0.15088  0.72601  0.80573  1.0000
  H   H888      1.0  0.04426  0.67576  0.90467  1.0000
  C   C513      1.0  0.12020  0.71583  0.83286  1.0000
  H   H889      1.0  0.30491  0.63325  0.58067  1.0000
  H   H890      1.0  0.26373  0.73348  0.78398  1.0000
  H   H891      1.0  0.12990  0.72385  0.87424  1.0000
  H   H892      1.0  0.09390  0.69505  0.49920  1.0000
  H   H893      1.0  0.31800  0.70990  0.71140  1.0000
  S   S119      1.0  0.18208  0.73553  0.73494  1.0000
  H   H894      1.0  0.04622  0.67272  0.50444  1.0000
  C   C514      1.0  0.25194  0.73608  0.74878  1.0000
  H   H895      1.0  0.12484  0.72097  0.70071  1.0000
  C   C515      1.0  0.12872  0.72075  0.75692  1.0000
  H   H896      1.0  0.05018  0.72259  0.62344  1.0000
  S   S120      1.0  0.11676  0.73009  0.54773  1.0000
  H   H897      1.0  0.02800  0.73159  0.95758  1.0000
  C   C516      1.0  0.05133  0.71995  0.87221  1.0000
  H   H898      1.0  0.12798  0.72391  0.65124  1.0000
  Fe  Fe64      1.0  0.04835  0.71594  0.81064  1.0000
  H   H899      1.0  0.04762  0.52732  0.83950  1.0000
  H   H900      1.0  0.00844  0.68078  0.57058  1.0000
  H   H901      1.0  0.13282  0.73451  0.60720  1.0000
  C   C517      1.0  0.14081  0.72567  0.65849  1.0000
  C   C518      1.0  0.00105  0.69602  0.53252  1.0000
  S   S121      1.0  0.03571  0.72454  0.84872  1.0000
  H   H902      1.0  0.10397  0.72901  0.87366  1.0000
  C   C519      1.0  0.14310  0.73056  0.75006  1.0000
  H   H903      1.0  0.02804  0.71642  0.62078  1.0000
  C   C520      1.0  0.99994  0.65607  0.83475  1.0000
  H   H904      1.0  0.01280  0.64488  0.80161  1.0000
  H   H905      1.0  0.04079  0.50109  0.58329  1.0000
  H   H906      1.0  0.13419  0.66937  0.50504  1.0000
  C   C521      1.0  0.26941  0.73548  0.76204  1.0000
  N   N30       1.0  0.12319  0.73180  0.83436  1.0000
  H   H907      1.0  0.02353  0.69163  0.48514  1.0000
  H   H908      1.0  0.14005  0.49526  0.97040  1.0000
  H   H909      1.0  0.99933  0.49578  0.58043  1.0000
  H   H910      1.0  0.31753  0.73779  0.80721  1.0000
  H   H911      1.0  0.18801  0.73616  0.57084  1.0000
  C   C522      1.0  0.31286  0.93050  0.09560  1.0000
  C   C523      1.0  0.26649  0.93534  0.38399  1.0000
  H   H912      1.0  0.15067  0.76370  0.09905  1.0000
  Fe  Fe65      1.0  0.10930  0.79147  0.11167  1.0000
  S   S122      1.0  0.09487  0.81371  0.12704  1.0000
  S   S123      1.0  0.12651  0.79286  0.06926  1.0000
  Fe  Fe66      1.0  0.10006  0.76989  0.16657  1.0000
  S   S124      1.0  0.08527  0.79042  0.18600  1.0000
  C   C524      1.0  0.29518  0.91299  0.39723  1.0000
  H   H913      1.0  0.31672  0.85822  0.02393  1.0000
  Fe  Fe67      1.0  0.11123  0.80214  0.16113  1.0000
  S   S125      1.0  0.13298  0.81007  0.17883  1.0000
  S   S126      1.0  0.08399  0.77851  0.13218  1.0000
  S   S127      1.0  0.12692  0.78061  0.14433  1.0000
  H   H914      1.0  0.31663  0.97164  0.22812  1.0000
  H   H915      1.0  0.07246  0.76901  0.37788  1.0000
  C   C525      1.0  0.12968  0.74757  0.10962  1.0000
  H   H916      1.0  0.16389  0.75638  0.34051  1.0000
  H   H917      1.0  0.05080  0.80909  0.27536  1.0000
  S   S128      1.0  0.29746  0.85081  0.30263  1.0000
  C   C526      1.0  0.00852  0.80256  0.23221  1.0000
  H   H918      1.0  0.30914  0.88888  0.43773  1.0000
  H   H919      1.0  0.03421  0.75160  0.27979  1.0000
  H   H920      1.0  0.13217  0.74681  0.05983  1.0000
  H   H921      1.0  0.09030  0.74490  0.12638  1.0000
  H   H922      1.0  0.04645  0.77293  0.28384  1.0000
  C   C527      1.0  0.12143  0.78444  0.00006  1.0000
  H   H923      1.0  0.25526  0.92795  0.39617  1.0000
  C   C528      1.0  0.31708  0.89246  0.98363  1.0000
  H   H924      1.0  0.17800  0.88460  0.28634  1.0000
  H   H925      1.0  0.09763  0.74792  0.07714  1.0000
  C   C529      1.0  0.26095  0.93917  0.05637  1.0000
  H   H926      1.0  0.28434  0.90658  0.41316  1.0000
  H   H927      1.0  0.20842  0.94748  0.16386  1.0000
  C   C530      1.0  0.02080  0.79821  0.14926  1.0000
  H   H928      1.0  0.06291  0.75763  0.10142  1.0000
  C   C531      1.0  0.19382  0.82093  0.23824  1.0000
  C   C532      1.0  0.29882  0.89563  0.16181  1.0000
  Fe  Fe68      1.0  0.22104  0.87295  0.20682  1.0000
  S   S129      1.0  0.19801  0.89309  0.18969  1.0000
  S   S130      1.0  0.22009  0.86502  0.25106  1.0000
  Fe  Fe69      1.0  0.24112  0.86532  0.15312  1.0000
  S   S131      1.0  0.21978  0.88462  0.13177  1.0000
  S   S132      1.0  0.26644  0.85061  0.12944  1.0000
  Fe  Fe70      1.0  0.22462  0.89941  0.15750  1.0000
  S   S133      1.0  0.23309  0.92330  0.13653  1.0000
  Fe  Fe71      1.0  0.19552  0.87621  0.16583  1.0000
  S   S134      1.0  0.16530  0.87422  0.15851  1.0000
  S   S135      1.0  0.24759  0.88049  0.17668  1.0000
  S   S136      1.0  0.21671  0.85571  0.18531  1.0000
  S   S137      1.0  0.31354  0.96796  0.14287  1.0000
  H   H929      1.0  0.13016  0.87910  0.24188  1.0000
  C   C533      1.0  0.25961  0.93684  0.15023  1.0000
  H   H930      1.0  0.12832  0.75893  0.33569  1.0000
  H   H931      1.0  0.27147  0.92795  0.14227  1.0000
  H   H932      1.0  0.01525  0.81006  0.24004  1.0000
  H   H933      1.0  0.14061  0.75215  0.01151  1.0000
  H   H934      1.0  0.29174  0.89396  0.14631  1.0000
  N   N31       1.0  0.28622  0.95128  0.07011  1.0000
  C   C534      1.0  0.22411  0.94773  0.16261  1.0000
  N   N32       1.0  0.31492  0.85074  0.19493  1.0000
  H   H935      1.0  0.00025  0.73930  0.31660  1.0000
  C   C535      1.0  0.14112  0.85308  0.27900  1.0000
  H   H936      1.0  0.31650  0.85730  0.23089  1.0000
  H   H937      1.0  0.00608  0.78941  0.03180  1.0000
  C   C536      1.0  0.06319  0.74545  0.11400  1.0000
  H   H938      1.0  0.20198  0.82654  0.21847  1.0000
  H   H939      1.0  0.15297  0.89368  0.24215  1.0000
  H   H940      1.0  0.14510  0.83980  0.34647  1.0000
  H   H941      1.0  0.32539  0.83170  0.00843  1.0000
  C   C537      1.0  0.14090  0.73960  0.01175  1.0000
  C   C538      1.0  0.29445  0.83680  0.02790  1.0000
  C   C539      1.0  0.16580  0.84516  0.23941  1.0000
  C   C540      1.0  0.07958  0.74130  0.27834  1.0000
  C   C541      1.0  0.30540  0.88534  0.07470  1.0000
  C   C542      1.0  0.28773  0.89061  0.09189  1.0000
  C   C543      1.0  0.27575  0.87993  0.10827  1.0000
  C   C544      1.0  0.28127  0.86386  0.10761  1.0000
  C   C545      1.0  0.29888  0.85850  0.09019  1.0000
  H   H942      1.0  0.15979  0.76602  0.30720  1.0000
  H   H943      1.0  0.28335  0.90290  0.09307  1.0000
  H   H944      1.0  0.26221  0.88428  0.12137  1.0000
  H   H945      1.0  0.30310  0.84608  0.08950  1.0000
  H   H946      1.0  0.06953  0.79124  0.28267  1.0000
  H   H947      1.0  0.26623  0.94450  0.03504  1.0000
  C   C546      1.0  0.31437  0.86205  0.42037  1.0000
  C   C547      1.0  0.00789  0.76292  0.30519  1.0000
  H   H948      1.0  0.27290  0.95672  0.21374  1.0000
  C   C548      1.0  0.26123  0.95697  0.23228  1.0000
  H   H949      1.0  0.27068  0.85199  0.20779  1.0000
  H   H950      1.0  0.28031  0.84558  0.02526  1.0000
  C   C549      1.0  0.28565  0.93082  0.39566  1.0000
  Fe  Fe72      1.0  0.08165  0.75040  0.99055  1.0000
  C   C550      1.0  0.32074  0.84320  0.14901  1.0000
  C   C551      1.0  0.29630  0.95720  0.04157  1.0000
  H   H951      1.0  0.16100  0.74366  0.11395  1.0000
  H   H952      1.0  0.00142  0.74866  0.16366  1.0000
  H   H953      1.0  0.13562  0.73932  0.99373  1.0000
  H   H954      1.0  0.21720  0.96967  0.17602  1.0000
  H   H955      1.0  0.19297  0.83958  0.25733  1.0000
  H   H956      1.0  0.13738  0.82956  0.32658  1.0000
  H   H957      1.0  0.05453  0.74937  0.19758  1.0000
  H   H958      1.0  0.10415  0.74451  0.33149  1.0000
  C   C552      1.0  0.31304  0.87887  0.40316  1.0000
  H   H959      1.0  0.28478  0.96307  0.02897  1.0000
  C   C553      1.0  0.17269  0.89241  0.26826  1.0000
  H   H960      1.0  0.29771  0.83871  0.23186  1.0000
  C   C554      1.0  0.06272  0.80004  0.26653  1.0000
  C   C555      1.0  0.27638  0.85576  0.28717  1.0000
  C   C556      1.0  0.27538  0.86673  0.26277  1.0000
  C   C557      1.0  0.25850  0.86930  0.25074  1.0000
  C   C558      1.0  0.24233  0.86144  0.26372  1.0000
  C   C559      1.0  0.24334  0.85078  0.28822  1.0000
  C   C560      1.0  0.26040  0.84774  0.29958  1.0000
  H   H961      1.0  0.28766  0.87299  0.25313  1.0000
  H   H962      1.0  0.25776  0.87753  0.23178  1.0000
  H   H963      1.0  0.23096  0.84468  0.29839  1.0000
  H   H964      1.0  0.26112  0.83921  0.31833  1.0000
  C   C561      1.0  0.14220  0.82798  0.17101  1.0000
  C   C562      1.0  0.16075  0.82756  0.17757  1.0000
  C   C563      1.0  0.16840  0.84152  0.17285  1.0000
  C   C564      1.0  0.15724  0.85618  0.16232  1.0000
  C   C565      1.0  0.13880  0.85659  0.15542  1.0000
  C   C566      1.0  0.13136  0.84256  0.15956  1.0000
  H   H965      1.0  0.16930  0.81633  0.18632  1.0000
  H   H966      1.0  0.18283  0.84094  0.17761  1.0000
  H   H967      1.0  0.13009  0.86786  0.14713  1.0000
  H   H968      1.0  0.11701  0.84307  0.15457  1.0000
  C   C567      1.0  0.09602  0.75454  0.23489  1.0000
  H   H969      1.0  0.01877  0.79562  0.06706  1.0000
  H   H970      1.0  0.02304  0.77087  0.11350  1.0000
  H   H971      1.0  0.01618  0.74234  0.05907  1.0000
  H   H972      1.0  0.10331  0.76418  0.22271  1.0000
  H   H973      1.0  0.29287  0.95033  0.10852  1.0000
  H   H974      1.0  0.20516  0.81259  0.24934  1.0000
  C   C568      1.0  0.10520  0.77647  0.00724  1.0000
  C   C569      1.0  0.09480  0.77380  0.03393  1.0000
  C   C570      1.0  0.10078  0.77911  0.05328  1.0000
  C   C571      1.0  0.11744  0.78670  0.04599  1.0000
  C   C572      1.0  0.12767  0.78931  0.01934  1.0000
  H   H975      1.0  0.06573  0.75726  0.35951  1.0000
  H   H976      1.0  0.08201  0.76792  0.03950  1.0000
  H   H977      1.0  0.09256  0.77730  0.07372  1.0000
  H   H978      1.0  0.14045  0.79524  0.01349  1.0000
  C   C573      1.0  0.22911  0.96042  0.16916  1.0000
  Fe  Fe73      1.0  0.28597  0.98511  0.15655  1.0000
  H   H979      1.0  0.17858  0.87117  0.23342  1.0000
  H   H980      1.0  0.17359  0.84983  0.21866  1.0000
  H   H981      1.0  0.02753  0.79038  0.28326  1.0000
  C   C574      1.0  0.32787  0.92955  0.11300  1.0000
  C   C575      1.0  0.08888  0.75380  0.26237  1.0000
  H   H982      1.0  0.28675  0.89882  0.17878  1.0000
  H   H983      1.0  0.30818  0.91486  0.44055  1.0000
  H   H984      1.0  0.26738  0.82614  0.23878  1.0000
  H   H985      1.0  0.31121  0.85416  0.40937  1.0000
  C   C576      1.0  0.02903  0.78710  0.13314  1.0000
  H   H986      1.0  0.13311  0.85172  0.21489  1.0000
  H   H987      1.0  0.14871  0.87422  0.21390  1.0000
  H   H988      1.0  0.08747  0.74094  0.39139  1.0000
  H   H989      1.0  0.32008  0.91280  0.19162  1.0000
  H   H990      1.0  0.01086  0.75523  0.26918  1.0000
  H   H991      1.0  0.28226  0.84236  0.18035  1.0000
  C   C577      1.0  0.26906  0.96427  0.07832  1.0000
  C   C578      1.0  0.31169  0.94470  0.02740  1.0000
  H   H992      1.0  0.28928  0.92689  0.06788  1.0000
  H   H993      1.0  0.20087  0.84825  0.00006  1.0000
  H   H994      1.0  0.04893  0.76948  0.17874  1.0000
  H   H995      1.0  0.32025  0.93494  0.13044  1.0000
  H   H996      1.0  0.09041  0.76302  0.27116  1.0000
  C   C579      1.0  0.16042  0.75460  0.32219  1.0000
  N   N33       1.0  0.15371  0.85886  0.25193  1.0000
  C   C580      1.0  0.31718  0.92528  0.19374  1.0000
  H   H997      1.0  0.30487  0.89109  0.00175  1.0000
  C   C581      1.0  0.00657  0.74698  0.32464  1.0000
  S   S138      1.0  0.03634  0.80827  0.15823  1.0000
  H   H998      1.0  0.11781  0.87894  0.19292  1.0000
  H   H999      1.0  0.10002  0.86578  0.20653  1.0000
  C   C582      1.0  0.12490  0.86041  0.22740  1.0000
  C   C583      1.0  0.16801  0.86888  0.25304  1.0000
  C   C584      1.0  0.26998  0.82733  0.21677  1.0000
  H   H1000     1.0  0.24982  0.91759  0.07865  1.0000
  H   H1001     1.0  0.29460  0.90995  0.37826  1.0000
  C   C585      1.0  0.32356  0.93516  0.26967  1.0000
  C   C586      1.0  0.30151  0.83878  0.21001  1.0000
  H   H1002     1.0  0.30138  0.86611  0.99985  1.0000
  H   H1003     1.0  0.25508  0.82957  0.21096  1.0000
  H   H1004     1.0  0.29263  0.86621  0.17255  1.0000
  H   H1005     1.0  0.01479  0.76974  0.31415  1.0000
  H   H1006     1.0  0.28143  0.93329  0.41611  1.0000
  H   H1007     1.0  0.22043  0.90109  0.22569  1.0000
  H   H1008     1.0  0.21988  0.92174  0.21032  1.0000
  H   H1009     1.0  0.02121  0.75210  0.08204  1.0000
  H   H1010     1.0  0.16511  0.90418  0.27280  1.0000
  C   C587      1.0  0.15081  0.85003  0.30387  1.0000
  H   H1011     1.0  0.02168  0.75326  0.22835  1.0000
  H   H1012     1.0  0.11085  0.85842  0.07055  1.0000
  Fe  Fe74      1.0  0.07041  0.79976  0.15026  1.0000
  C   C588      1.0  0.00626  0.78688  0.25284  1.0000
  H   H1013     1.0  0.29752  0.88285  0.39906  1.0000
  H   H1014     1.0  0.04501  0.78487  0.12520  1.0000
  H   H1015     1.0  0.20984  0.91574  0.24580  1.0000
  C   C589      1.0  0.18192  0.83346  0.25421  1.0000
  H   H1016     1.0  0.17804  0.86246  0.26736  1.0000
  C   C590      1.0  0.25553  0.92332  0.05760  1.0000
  C   C591      1.0  0.13811  0.84143  0.32894  1.0000
  C   C592      1.0  0.31506  0.95106  0.26061  1.0000
  C   C593      1.0  0.15794  0.88526  0.26001  1.0000
  H   H1017     1.0  0.30317  0.86187  0.43948  1.0000
  H   H1018     1.0  0.24619  0.95877  0.22716  1.0000
  C   C594      1.0  0.28073  0.84115  0.20210  1.0000
  C   C595      1.0  0.10975  0.87224  0.21179  1.0000
  H   H1019     1.0  0.08488  0.76921  0.34350  1.0000
  H   H1020     1.0  0.09997  0.88072  0.22395  1.0000
  H   H1021     1.0  0.11629  0.85408  0.24611  1.0000
  N   N34       1.0  0.17283  0.82556  0.09002  1.0000
  C   C596      1.0  0.17819  0.83830  0.09959  1.0000
  C   C597      1.0  0.15020  0.82865  0.09200  1.0000
  C   C598      1.0  0.17830  0.80995  0.10906  1.0000
  C   C599      1.0  0.18396  0.82422  0.06196  1.0000
  C   C600      1.0  0.18920  0.83968  0.04223  1.0000
  C   C601      1.0  0.20020  0.83516  0.10405  1.0000
  C   C602      1.0  0.17312  0.79525  0.10354  1.0000
  C   C603      1.0  0.14052  0.84478  0.07615  1.0000
  C   C604      1.0  0.11748  0.84683  0.08223  1.0000
  H   H1022     1.0  0.16629  0.84289  0.30130  1.0000
  C   C605      1.0  0.20630  0.85034  0.10508  1.0000
  C   C606      1.0  0.18098  0.78009  0.12263  1.0000
  H   H1023     1.0  0.16803  0.83996  0.11890  1.0000
  H   H1024     1.0  0.17536  0.85002  0.08588  1.0000
  H   H1025     1.0  0.14583  0.81960  0.08462  1.0000
  H   H1026     1.0  0.14235  0.82750  0.11340  1.0000
  H   H1027     1.0  0.17082  0.81081  0.13007  1.0000
  H   H1028     1.0  0.19483  0.80700  0.10866  1.0000
  H   H1029     1.0  0.19869  0.81579  0.06244  1.0000
  H   H1030     1.0  0.17527  0.81890  0.05261  1.0000
  H   H1031     1.0  0.20142  0.84342  0.04777  1.0000
  H   H1032     1.0  0.17616  0.84966  0.04216  1.0000
  H   H1033     1.0  0.20150  0.82672  0.12350  1.0000
  H   H1034     1.0  0.21119  0.82993  0.08802  1.0000
  H   H1035     1.0  0.17990  0.79384  0.08275  1.0000
  H   H1036     1.0  0.15658  0.79626  0.10661  1.0000
  H   H1037     1.0  0.14419  0.85492  0.08126  1.0000
  H   H1038     1.0  0.14551  0.84529  0.05437  1.0000
  H   H1039     1.0  0.11280  0.83728  0.07656  1.0000
  H   H1040     1.0  0.11137  0.84658  0.10384  1.0000
  C   C607      1.0  0.31969  0.91639  0.42161  1.0000
  H   H1041     1.0  0.13710  0.74813  0.30969  1.0000
  H   H1042     1.0  0.20616  0.85902  0.08568  1.0000
  H   H1043     1.0  0.19583  0.85581  0.12121  1.0000
  H   H1044     1.0  0.17684  0.76978  0.11862  1.0000
  H   H1045     1.0  0.19770  0.77806  0.11982  1.0000
  H   H1046     1.0  0.17410  0.78087  0.14374  1.0000
  H   H1047     1.0  0.30771  0.84077  0.98616  1.0000
  H   H1048     1.0  0.31207  0.95572  0.08116  1.0000
  N   N35       1.0  0.02564  0.77553  0.25757  1.0000
  C   C608      1.0  0.03823  0.77069  0.23217  1.0000
  C   C609      1.0  0.03779  0.78250  0.27025  1.0000
  C   C610      1.0  0.02021  0.76068  0.27707  1.0000
  H   H1049     1.0  0.17276  0.74567  0.31368  1.0000
  S   S139      1.0  0.32664  0.88704  0.26647  1.0000
  C   C611      1.0  0.02751  0.76399  0.21625  1.0000
  H   H1050     1.0  0.27016  0.93373  0.36303  1.0000
  C   C612      1.0  0.05391  0.79183  0.25128  1.0000
  H   H1051     1.0  0.25023  0.97234  0.26103  1.0000
  H   H1052     1.0  0.07474  0.80606  0.25254  1.0000
  C   C613      1.0  0.31192  0.84102  0.00493  1.0000
  H   H1053     1.0  0.18466  0.83410  0.00657  1.0000
  H   H1054     1.0  0.01802  0.80037  0.21292  1.0000
  C   C614      1.0  0.07845  0.76166  0.36258  1.0000
  C   C615      1.0  0.13975  0.86891  0.23343  1.0000
  H   H1055     1.0  0.05188  0.76172  0.23679  1.0000
  S   S140      1.0  0.25478  0.97882  0.17110  1.0000
  H   H1056     1.0  0.00109  0.74267  0.19891  1.0000
  C   C616      1.0  0.00317  0.80091  0.06369  1.0000
  H   H1057     1.0  0.31980  0.93061  0.35117  1.0000
  C   C617      1.0  0.32974  0.84502  0.17173  1.0000
  H   H1058     1.0  0.25800  0.98238  0.22688  1.0000
  H   H1059     1.0  0.30721  0.95620  0.98686  1.0000
  H   H1060     1.0  0.01481  0.77307  0.20914  1.0000
  H   H1061     1.0  0.06660  0.78349  0.24203  1.0000
  H   H1062     1.0  0.27905  0.81610  0.21136  1.0000
  H   H1063     1.0  0.28253  0.98555  0.05941  1.0000
  H   H1064     1.0  0.04785  0.80092  0.23497  1.0000
  C   C618      1.0  0.30093  0.94771  0.08876  1.0000
  H   H1065     1.0  0.15780  0.74880  0.07957  1.0000
  H   H1066     1.0  0.12254  0.84846  0.33292  1.0000
  C   C619      1.0  0.09386  0.74279  0.22327  1.0000
  H   H1067     1.0  0.30971  0.82654  0.20847  1.0000
  Fe  Fe75      1.0  0.31980  0.86619  0.29928  1.0000
  H   H1068     1.0  0.25962  0.94799  0.38392  1.0000
  H   H1069     1.0  0.26895  0.91524  0.04886  1.0000
  H   H1070     1.0  0.11944  0.75625  0.09726  1.0000
  H   H1071     1.0  0.24348  0.92530  0.04605  1.0000
  H   H1072     1.0  0.29802  0.83651  0.04741  1.0000
  C   C620      1.0  0.26461  0.94971  0.15643  1.0000
  N   N36       1.0  0.26587  0.92635  0.24536  1.0000
  C   C621      1.0  0.24551  0.92656  0.23991  1.0000
  C   C622      1.0  0.26494  0.94150  0.25375  1.0000
  C   C623      1.0  0.28152  0.92479  0.22020  1.0000
  C   C624      1.0  0.27163  0.91252  0.26745  1.0000
  C   C625      1.0  0.25605  0.91097  0.29426  1.0000
  C   C626      1.0  0.24278  0.91093  0.23478  1.0000
  C   C627      1.0  0.30276  0.92742  0.22003  1.0000
  C   C628      1.0  0.26342  0.89634  0.31465  1.0000
  C   C629      1.0  0.22191  0.91257  0.22880  1.0000
  H   H1073     1.0  0.18356  0.81406  0.23511  1.0000
  H   H1074     1.0  0.24249  0.93589  0.22186  1.0000
  H   H1075     1.0  0.23315  0.92993  0.25656  1.0000
  H   H1076     1.0  0.25247  0.94292  0.27128  1.0000
  H   H1077     1.0  0.27893  0.94102  0.26079  1.0000
  H   H1078     1.0  0.27620  0.93312  0.20254  1.0000
  H   H1079     1.0  0.28376  0.91278  0.21616  1.0000
  H   H1080     1.0  0.27499  0.90114  0.26076  1.0000
  H   H1081     1.0  0.28598  0.91327  0.27234  1.0000
  H   H1082     1.0  0.24121  0.90983  0.29155  1.0000
  H   H1083     1.0  0.25380  0.92140  0.30314  1.0000
  H   H1084     1.0  0.25412  0.90751  0.21737  1.0000
  H   H1085     1.0  0.24424  0.90115  0.25257  1.0000
  H   H1086     1.0  0.30938  0.91891  0.23647  1.0000
  H   H1087     1.0  0.30215  0.93958  0.22208  1.0000
  H   H1088     1.0  0.25197  0.89529  0.33355  1.0000
  H   H1089     1.0  0.26590  0.88540  0.30698  1.0000
  H   H1090     1.0  0.27777  0.89736  0.31909  1.0000
  C   C630      1.0  0.30221  0.86679  0.18607  1.0000
  S   S141      1.0  0.31677  0.87846  0.33254  1.0000
  H   H1091     1.0  0.22181  0.84755  0.10929  1.0000
  H   H1092     1.0  0.30163  0.95664  0.27263  1.0000
  H   H1093     1.0  0.30457  0.96667  0.04052  1.0000
  H   H1094     1.0  0.27025  0.93280  0.09443  1.0000
  C   C631      1.0  0.32352  0.95952  0.23548  1.0000
  H   H1095     1.0  0.15182  0.86144  0.30780  1.0000
  Fe  Fe76      1.0  0.32664  0.89838  0.29977  1.0000
  H   H1096     1.0  0.12677  0.86177  0.28291  1.0000
  C   C632      1.0  0.04218  0.75926  0.19157  1.0000
  H   H1097     1.0  0.25838  0.96802  0.06429  1.0000
  H   H1098     1.0  0.14450  0.88437  0.27644  1.0000
  C   C633      1.0  0.23930  0.93599  0.15270  1.0000
  H   H1099     1.0  0.13627  0.84201  0.27915  1.0000
  H   H1100     1.0  0.30479  0.93476  0.02722  1.0000
  H   H1101     1.0  0.30239  0.92235  0.10711  1.0000
  H   H1102     1.0  0.18597  0.89403  0.25175  1.0000
  C   C634      1.0  0.26161  0.97149  0.24229  1.0000
  H   H1103     1.0  0.15574  0.83770  0.23758  1.0000
  S   S142      1.0  0.31971  0.89915  0.05374  1.0000
  C   C635      1.0  0.01648  0.77922  0.12636  1.0000
  H   H1104     1.0  0.28024  0.95046  0.15398  1.0000
  C   C636      1.0  0.24935  0.96176  0.16525  1.0000
  H   H1105     1.0  0.29151  0.87056  0.20377  1.0000
  H   H1106     1.0  0.04416  0.78082  0.21768  1.0000
  H   H1107     1.0  0.17450  0.82700  0.27371  1.0000
  H   H1108     1.0  0.32156  0.88344  0.18464  1.0000
  H   H1109     1.0  0.26003  0.95975  0.09838  1.0000
  C   C637      1.0  0.27728  0.93694  0.07309  1.0000
  C   C638      1.0  0.31117  0.86923  0.07404  1.0000
  H   H1110     1.0  0.10681  0.75245  0.37587  1.0000
  H   H1111     1.0  0.24684  0.94689  0.06438  1.0000
  C   C639      1.0  0.99974  0.80145  0.15830  1.0000
  H   H1112     1.0  0.29188  0.82490  0.02832  1.0000
  H   H1113     1.0  0.00335  0.81275  0.05005  1.0000
  H   H1114     1.0  0.27684  0.97094  0.24580  1.0000
  S   S143      1.0  0.31161  0.92382  0.29919  1.0000
  S   S144      1.0  0.00797  0.74865  0.99928  1.0000
  C   C640      1.0  0.15112  0.75104  0.09989  1.0000
  H   H1115     1.0  0.31189  0.83357  0.15638  1.0000
  C   C641      1.0  0.31362  0.88056  0.17125  1.0000
  C   C642      1.0  0.31560  0.85766  0.00359  1.0000
  H   H1116     1.0  0.29607  0.93872  0.38324  1.0000
  H   H1117     1.0  0.32138  0.92608  0.07754  1.0000
  S   S145      1.0  0.05752  0.74434  0.02639  1.0000
  H   H1118     1.0  0.31099  0.85437  0.14089  1.0000
  H   H1119     1.0  0.30700  0.90561  0.15298  1.0000
  C   C643      1.0  0.19671  0.83717  0.01361  1.0000
  S   S146      1.0  0.10100  0.74445  0.18848  1.0000
  H   H1120     1.0  0.12427  0.74988  0.13014  1.0000
  C   C644      1.0  0.31854  0.89011  0.41712  1.0000
  H   H1121     1.0  0.28586  0.97727  0.09329  1.0000
  C   C645      1.0  0.09466  0.74774  0.37211  1.0000
  H   H1122     1.0  0.03405  0.75536  0.17958  1.0000
  Fe  Fe77      1.0  0.04158  0.74076  0.99680  1.0000
  H   H1123     1.0  0.02181  0.74091  0.32850  1.0000
  N   N37       1.0  0.31635  0.90740  0.40293  1.0000
  H   H1124     1.0  0.32473  0.87763  0.15332  1.0000
  H   H1125     1.0  0.32494  0.86509  0.06094  1.0000
  H   H1126     1.0  0.31087  0.93332  0.17661  1.0000
  C   C646      1.0  0.32689  0.85236  0.21401  1.0000
  C   C647      1.0  0.31968  0.95202  0.99819  1.0000
  H   H1127     1.0  0.05359  0.74634  0.13397  1.0000
  H   H1128     1.0  0.21026  0.82753  0.01247  1.0000
  C   C648      1.0  0.01288  0.74336  0.08028  1.0000
  H   H1129     1.0  0.31733  0.92932  0.41318  1.0000
  S   S147      1.0  0.06925  0.74147  0.31216  1.0000
  C   C649      1.0  0.14015  0.74925  0.32859  1.0000
  H   H1130     1.0  0.33031  0.90852  0.99623  1.0000
  H   H1131     1.0  0.32377  0.87816  0.38400  1.0000
  C   C650      1.0  0.27522  0.97967  0.07954  1.0000
  H   H1132     1.0  0.32486  0.93997  0.03726  1.0000
  H   H1133     1.0  0.24949  0.98637  0.11039  1.0000
  H   H1134     1.0  0.32688  0.96215  0.99676  1.0000
  H   H1135     1.0  0.05683  0.73852  0.10454  1.0000
  H   H1136     1.0  0.32979  0.85732  0.42473  1.0000
  H   H1137     1.0  0.32898  0.90209  0.36367  1.0000
  Fe  Fe78      1.0  0.32914  0.97825  0.16475  1.0000
  H   H1138     1.0  0.11129  0.73816  0.03598  1.0000
  H   H1139     1.0  0.33101  0.91996  0.46672  1.0000
  S   S148      1.0  0.32988  0.98353  0.06752  1.0000
  H   H1140     1.0  0.33122  0.83555  0.11121  1.0000
  H   H1141     1.0  0.33172  0.92840  0.19343  1.0000
  C   C651      1.0  0.33185  0.90864  0.37721  1.0000
  H   H1142     1.0  0.33120  0.94295  0.98886  1.0000
  H   H1143     1.0  0.11303  0.74897  0.62125  1.0000
  H   H1144     1.0  0.14524  0.75576  0.56981  1.0000
  C   C652      1.0  0.07319  0.75855  0.81398  1.0000
  C   C653      1.0  0.31503  0.74929  0.68310  1.0000
  S   S149      1.0  0.07650  0.75531  0.59621  1.0000
  C   C654      1.0  0.31257  0.78927  0.59888  1.0000
  H   H1145     1.0  0.07705  0.75844  0.79232  1.0000
  H   H1146     1.0  0.28081  0.77257  0.84693  1.0000
  H   H1147     1.0  0.12507  0.77575  0.65496  1.0000
  H   H1148     1.0  0.17866  0.74634  0.81966  1.0000
  C   C655      1.0  0.02581  0.74151  0.61349  1.0000
  H   H1149     1.0  0.17545  0.76126  0.78964  1.0000
  H   H1150     1.0  0.32442  0.96937  0.70960  1.0000
  H   H1151     1.0  0.30948  0.91804  0.97950  1.0000
  C   C656      1.0  0.14970  0.74972  0.80795  1.0000
  C   C657      1.0  0.17245  0.74941  0.80111  1.0000
  H   H1152     1.0  0.29073  0.79339  0.74883  1.0000
  C   C658      1.0  0.30301  0.97160  0.74582  1.0000
  C   C659      1.0  0.09599  0.77525  0.68056  1.0000
  H   H1153     1.0  0.05031  0.77679  0.62665  1.0000
  H   H1154     1.0  0.15170  0.76734  0.67595  1.0000
  C   C660      1.0  0.11047  0.74854  0.89936  1.0000
  H   H1155     1.0  0.32064  0.81750  0.59655  1.0000
  H   H1156     1.0  0.30338  0.95862  0.75193  1.0000
  H   H1157     1.0  0.28997  0.97725  0.73578  1.0000
  H   H1158     1.0  0.03235  0.74277  0.59179  1.0000
  C   C661      1.0  0.06838  0.75326  0.63103  1.0000
  H   H1159     1.0  0.30080  0.80008  0.59450  1.0000
  H   H1160     1.0  0.03026  0.74199  0.53885  1.0000
  H   H1161     1.0  0.27163  0.79928  0.71239  1.0000
  H   H1162     1.0  0.30954  0.82722  0.63925  1.0000
  H   H1163     1.0  0.27314  0.74149  0.66960  1.0000
  H   H1164     1.0  0.32140  0.81648  0.66709  1.0000
  H   H1165     1.0  0.10723  0.77035  0.64137  1.0000
  H   H1166     1.0  0.05694  0.75786  0.82142  1.0000
  C   C662      1.0  0.32343  0.81918  0.64497  1.0000
  C   C663      1.0  0.04805  0.76492  0.66808  1.0000
  H   H1167     1.0  0.14402  0.75396  0.78890  1.0000
  C   C664      1.0  0.12121  0.75069  0.67012  1.0000
  H   H1168     1.0  0.30319  0.76289  0.80839  1.0000
  H   H1169     1.0  0.12944  0.78664  0.97948  1.0000
  C   C665      1.0  0.28679  0.76605  0.80858  1.0000
  H   H1170     1.0  0.04570  0.74887  0.50695  1.0000
  H   H1171     1.0  0.27024  0.78319  0.75802  1.0000
  C   C666      1.0  0.03251  0.74305  0.51693  1.0000
  C   C667      1.0  0.29722  0.75183  0.67325  1.0000
  C   C668      1.0  0.27985  0.75551  0.79461  1.0000
  H   H1172     1.0  0.31089  0.76536  0.73237  1.0000
  H   H1173     1.0  0.15913  0.74544  0.61441  1.0000
  H   H1174     1.0  0.07553  0.76987  0.81677  1.0000
  H   H1175     1.0  0.03770  0.77484  0.67523  1.0000
  C   C669      1.0  0.18388  0.76132  0.66330  1.0000
  H   H1176     1.0  0.28361  0.76988  0.61537  1.0000
  H   H1177     1.0  0.26371  0.76079  0.79374  1.0000
  H   H1178     1.0  0.18665  0.75422  0.68309  1.0000
  H   H1179     1.0  0.28644  0.75068  0.73032  1.0000
  C   C670      1.0  0.33140  0.85499  0.91387  1.0000
  H   H1180     1.0  0.25918  0.76832  0.83903  1.0000
  H   H1181     1.0  0.31078  0.89291  0.96608  1.0000
  H   H1182     1.0  0.08157  0.74526  0.85093  1.0000
  H   H1183     1.0  0.18586  0.77358  0.66150  1.0000
  C   C671      1.0  0.08602  0.74442  0.82961  1.0000
  H   H1184     1.0  0.29766  0.79048  0.70222  1.0000
  H   H1185     1.0  0.10152  0.77473  0.69883  1.0000
  H   H1186     1.0  0.01890  0.75066  0.50968  1.0000
  H   H1187     1.0  0.00269  0.76211  0.88473  1.0000
  C   C672      1.0  0.12969  0.75778  0.58198  1.0000
  C   C673      1.0  0.11322  0.76858  0.65978  1.0000
  H   H1188     1.0  0.31470  0.85648  0.91733  1.0000
  H   H1189     1.0  0.27829  0.77882  0.70978  1.0000
  H   H1190     1.0  0.27732  0.78525  0.58688  1.0000
  H   H1191     1.0  0.10858  0.75864  0.85845  1.0000
  C   C674      1.0  0.16251  0.76158  0.66034  1.0000
  H   H1192     1.0  0.19525  0.75621  0.64737  1.0000
  H   H1193     1.0  0.00065  0.76978  0.78111  1.0000
  S   S150      1.0  0.06428  0.74916  0.96068  1.0000
  S   S151      1.0  0.04492  0.75056  0.72061  1.0000
  C   C675      1.0  0.30970  0.77663  0.58536  1.0000
  H   H1194     1.0  0.08361  0.76843  0.68617  1.0000
  C   C676      1.0  0.27579  0.76468  0.83774  1.0000
  H   H1195     1.0  0.30868  0.78431  0.62073  1.0000
  H   H1196     1.0  0.12500  0.77042  0.58343  1.0000
  H   H1197     1.0  0.28621  0.76494  0.58362  1.0000
  C   C677      1.0  0.27827  0.75089  0.75124  1.0000
  H   H1198     1.0  0.27936  0.75232  0.84926  1.0000
  H   H1199     1.0  0.08978  0.78780  0.67216  1.0000
  H   H1200     1.0  0.14245  0.76306  0.62019  1.0000
  H   H1201     1.0  0.11119  0.75638  0.81747  1.0000
  H   H1202     1.0  0.29140  0.76351  0.66248  1.0000
  H   H1203     1.0  0.16094  0.76912  0.64044  1.0000
  H   H1204     1.0  0.31357  0.79862  0.64388  1.0000
  C   C678      1.0  0.05520  0.76603  0.64059  1.0000
  H   H1205     1.0  0.11922  0.75527  0.57158  1.0000
  H   H1206     1.0  0.27950  0.74368  0.80839  1.0000
  H   H1207     1.0  0.11096  0.76001  0.90359  1.0000
  C   C679      1.0  0.11843  0.74873  0.86957  1.0000
  H   H1208     1.0  0.09455  0.74679  0.90530  1.0000
  C   C680      1.0  0.28785  0.77408  0.59335  1.0000
  H   H1209     1.0  0.14255  0.75848  0.82060  1.0000
  C   C681      1.0  0.10896  0.74428  0.81873  1.0000
  H   H1210     1.0  0.23901  0.74561  0.75403  1.0000
  C   C682      1.0  0.14356  0.75007  0.62458  1.0000
  H   H1211     1.0  0.28345  0.77871  0.79839  1.0000
  H   H1212     1.0  0.12258  0.74886  0.69136  1.0000
  H   H1213     1.0  0.31358  0.86932  0.95441  1.0000
  C   C683      1.0  0.28534  0.78358  0.74489  1.0000
  C   C684      1.0  0.30083  0.76789  0.75137  1.0000
  H   H1214     1.0  0.26521  0.76094  0.74965  1.0000
  C   C685      1.0  0.12875  0.74695  0.60984  1.0000
  H   H1215     1.0  0.30088  0.97622  0.76414  1.0000
  C   C686      1.0  0.32282  0.97477  0.72686  1.0000
  C   C687      1.0  0.28310  0.78822  0.71558  1.0000
  C   C688      1.0  0.05431  0.75115  0.68635  1.0000
  N   N38       1.0  0.29196  0.75354  0.76722  1.0000
  H   H1216     1.0  0.31121  0.77051  0.76180  1.0000
  H   H1217     1.0  0.13402  0.75109  0.86454  1.0000
  H   H1218     1.0  0.31942  0.76501  0.59174  1.0000
  H   H1219     1.0  0.11242  0.74291  0.79760  1.0000
  C   C689      1.0  0.15884  0.74458  0.66391  1.0000
  C   C690      1.0  0.32999  0.86552  0.95488  1.0000
  C   C691      1.0  0.32310  0.90845  0.97973  1.0000
  H   H1220     1.0  0.32440  0.80425  0.55285  1.0000
  H   H1221     1.0  0.99865  0.74085  0.86638  1.0000
  H   H1222     1.0  0.31338  0.78019  0.56322  1.0000
  N   N39       1.0  0.14076  0.74314  0.65430  1.0000
  H   H1223     1.0  0.00183  0.74473  0.81454  1.0000
  H   H1224     1.0  0.13834  0.74331  0.74650  1.0000
  C   C692      1.0  0.32727  0.80384  0.63509  1.0000
  H   H1225     1.0  0.03046  0.75045  0.62075  1.0000
  H   H1226     1.0  0.10869  0.74465  0.67104  1.0000
  H   H1227     1.0  0.00908  0.74395  0.61623  1.0000
  H   H1228     1.0  0.00938  0.74088  0.69862  1.0000
  S   S152      1.0  0.32761  0.76539  0.67678  1.0000
  H   H1229     1.0  0.15771  0.73937  0.68566  1.0000
  C   C693      1.0  0.07482  0.73943  0.64926  1.0000
  C   C694      1.0  0.99889  0.73873  0.98127  1.0000
  H   H1230     1.0  0.18039  0.74060  0.78863  1.0000
  C   C695      1.0  0.28679  0.73938  0.67735  1.0000
  H   H1231     1.0  0.03406  0.73882  0.89174  1.0000
  S   S153      1.0  0.09874  0.77024  0.98190  1.0000
  C   C696      1.0  0.30888  0.73922  0.76936  1.0000
  C   C697      1.0  0.32463  0.73904  0.78567  1.0000
  H   H1232     1.0  0.11979  0.73886  0.91177  1.0000
  C   C698      1.0  0.06793  0.73844  0.67697  1.0000
  H   H1233     1.0  0.33120  0.74988  0.77878  1.0000
  H   H1234     1.0  0.25689  0.73821  0.72669  1.0000
  H   H1235     1.0  0.43621  0.06539  0.13962  1.0000
  Fe  Fe79      1.0  0.50898  0.11184  0.23429  1.0000
  S   S154      1.0  0.53580  0.09767  0.25182  1.0000
  S   S155      1.0  0.47673  0.11177  0.25432  1.0000
  Fe  Fe80      1.0  0.53394  0.12367  0.18048  1.0000
  S   S156      1.0  0.56328  0.11067  0.19247  1.0000
  S   S157      1.0  0.52947  0.13696  0.13953  1.0000
  Fe  Fe81      1.0  0.54719  0.09037  0.21222  1.0000
  Fe  Fe82      1.0  0.54957  0.11917  0.23082  1.0000
  S   S158      1.0  0.56798  0.13072  0.24686  1.0000
  S   S159      1.0  0.51913  0.10273  0.19680  1.0000
  S   S160      1.0  0.52153  0.13401  0.21680  1.0000
  Fe  Fe83      1.0  0.40225  0.10828  0.17626  1.0000
  S   S161      1.0  0.38617  0.10415  0.14765  1.0000
  S   S162      1.0  0.43286  0.11484  0.16161  1.0000
  C   C699      1.0  0.57172  0.00836  0.22214  1.0000
  H   H1236     1.0  0.41087  0.18335  0.40137  1.0000
  H   H1237     1.0  0.37080  0.21402  0.01872  1.0000
  Fe  Fe84      1.0  0.37458  0.08536  0.18164  1.0000
  C   C700      1.0  0.40534  0.15416  0.21384  1.0000
  H   H1238     1.0  0.59942  0.12962  0.43423  1.0000
  C   C701      1.0  0.57261  0.09545  0.43463  1.0000
  S   S163      1.0  0.39313  0.08801  0.20913  1.0000
  S   S164      1.0  0.37707  0.12672  0.19113  1.0000
  Fe  Fe85      1.0  0.55523  0.19627  0.34785  1.0000
  S   S165      1.0  0.56715  0.17283  0.37273  1.0000
  S   S166      1.0  0.57653  0.20764  0.31271  1.0000
  Fe  Fe86      1.0  0.51259  0.19651  0.37852  1.0000
  S   S167      1.0  0.52085  0.17334  0.40631  1.0000
  S   S168      1.0  0.48004  0.20856  0.38477  1.0000
  Fe  Fe87      1.0  0.54749  0.18281  0.40747  1.0000
  S   S169      1.0  0.56052  0.17657  0.44479  1.0000
  Fe  Fe88      1.0  0.53949  0.16537  0.36944  1.0000
  S   S170      1.0  0.53692  0.14147  0.36509  1.0000
  S   S171      1.0  0.53760  0.20692  0.38284  1.0000
  S   S172      1.0  0.52932  0.18784  0.34136  1.0000
  Fe  Fe89      1.0  0.37079  0.19260  0.30751  1.0000
  S   S173      1.0  0.36553  0.17232  0.34230  1.0000
  Fe  Fe90      1.0  0.41361  0.19042  0.31278  1.0000
  S   S174      1.0  0.41239  0.16993  0.34803  1.0000
  S   S175      1.0  0.44206  0.19992  0.29430  1.0000
  Fe  Fe91      1.0  0.39653  0.16060  0.32487  1.0000
  S   S176      1.0  0.40617  0.13558  0.31892  1.0000
  Fe  Fe92      1.0  0.38162  0.18365  0.36229  1.0000
  C   C702      1.0  0.34739  0.22754  0.13859  1.0000
  S   S177      1.0  0.40050  0.18000  0.28839  1.0000
  S   S178      1.0  0.65244  0.99006  0.05309  1.0000
  C   C703      1.0  0.45508  0.19575  0.17919  1.0000
  C   C704      1.0  0.59365  0.12580  0.38965  1.0000
  H   H1239     1.0  0.40770  0.23194  0.29365  1.0000
  H   H1240     1.0  0.60109  0.13562  0.38914  1.0000
  Fe  Fe93      1.0  0.54023  0.22390  0.03434  1.0000
  H   H1241     1.0  0.42525  0.08004  0.15988  1.0000
  S   S179      1.0  0.55317  0.22608  0.06769  1.0000
  H   H1242     1.0  0.45511  0.19940  0.03452  1.0000
  S   S180      1.0  0.41710  0.18521  0.03671  1.0000
  S   S181      1.0  0.37967  0.16278  0.01933  1.0000
  C   C705      1.0  0.59380  0.12583  0.36065  1.0000
  C   C706      1.0  0.61470  0.04915  0.15094  1.0000
  C   C707      1.0  0.38587  0.14177  0.44128  1.0000
  C   C708      1.0  0.47742  0.21098  0.03908  1.0000
  H   H1243     1.0  0.48153  0.23603  0.20734  1.0000
  C   C709      1.0  0.59747  0.20501  0.37364  1.0000
  H   H1244     1.0  0.35543  0.16873  0.27115  1.0000
  C   C710      1.0  0.37470  0.99606  0.17476  1.0000
  C   C711      1.0  0.33702  0.12165  0.04752  1.0000
  H   H1245     1.0  0.39244  0.03934  0.25975  1.0000
  C   C712      1.0  0.40534  0.23309  0.04686  1.0000
  C   C713      1.0  0.62224  0.23325  0.37646  1.0000
  H   H1246     1.0  0.60961  0.12398  0.34929  1.0000
  H   H1247     1.0  0.42230  0.19859  0.18572  1.0000
  C   C714      1.0  0.37102  0.19653  0.44751  1.0000
  C   C715      1.0  0.46908  0.20666  0.35960  1.0000
  C   C716      1.0  0.48049  0.20695  0.33372  1.0000
  C   C717      1.0  0.47210  0.20486  0.31374  1.0000
  C   C718      1.0  0.45220  0.20253  0.31956  1.0000
  C   C719      1.0  0.44050  0.20265  0.34526  1.0000
  C   C720      1.0  0.44892  0.20483  0.36527  1.0000
  H   H1248     1.0  0.49571  0.20904  0.32891  1.0000
  H   H1249     1.0  0.48109  0.20493  0.29385  1.0000
  H   H1250     1.0  0.42499  0.20106  0.34977  1.0000
  H   H1251     1.0  0.43996  0.20477  0.38522  1.0000
  H   H1252     1.0  0.41107  0.18055  0.11576  1.0000
  C   C721      1.0  0.35216  0.14675  0.10752  1.0000
  H   H1253     1.0  0.50027  0.17064  0.46517  1.0000
  C   C722      1.0  0.34848  0.15915  0.06183  1.0000
  C   C723      1.0  0.36947  0.15742  0.05360  1.0000
  C   C724      1.0  0.38188  0.15058  0.07248  1.0000
  C   C725      1.0  0.37321  0.14504  0.09944  1.0000
  S   S182      1.0  0.50636  0.22658  0.04027  1.0000
  H   H1254     1.0  0.62124  0.20928  0.43694  1.0000
  H   H1255     1.0  0.39814  0.14916  0.06620  1.0000
  H   H1256     1.0  0.38279  0.13956  0.11397  1.0000
  H   H1257     1.0  0.57460  0.00473  0.08219  1.0000
  C   C726      1.0  0.38830  0.11804  0.26689  1.0000
  C   C727      1.0  0.39981  0.12401  0.27904  1.0000
  C   C728      1.0  0.39101  0.12970  0.30247  1.0000
  H   H1258     1.0  0.55551  0.98940  0.11248  1.0000
  C   C729      1.0  0.55459  0.23218  0.21355  1.0000
  H   H1259     1.0  0.39520  0.11364  0.24888  1.0000
  H   H1260     1.0  0.41562  0.12407  0.27045  1.0000
  C   C730      1.0  0.59404  0.06832  0.17708  1.0000
  H   H1261     1.0  0.59248  0.07863  0.18514  1.0000
  H   H1262     1.0  0.62459  0.06929  0.15535  1.0000
  C   C731      1.0  0.55949  0.13330  0.27995  1.0000
  C   C732      1.0  0.56447  0.14575  0.28712  1.0000
  C   C733      1.0  0.55742  0.14841  0.31317  1.0000
  C   C734      1.0  0.54595  0.13827  0.33243  1.0000
  C   C735      1.0  0.54151  0.12549  0.32557  1.0000
  C   C736      1.0  0.54799  0.12315  0.29923  1.0000
  H   H1263     1.0  0.57347  0.15357  0.27230  1.0000
  H   H1264     1.0  0.56101  0.15825  0.31833  1.0000
  H   H1265     1.0  0.53272  0.11758  0.34049  1.0000
  H   H1266     1.0  0.54430  0.11342  0.29389  1.0000
  C   C737      1.0  0.54347  0.15204  0.12764  1.0000
  C   C738      1.0  0.55558  0.15444  0.14320  1.0000
  C   C739      1.0  0.56878  0.16518  0.13202  1.0000
  C   C740      1.0  0.56934  0.17383  0.10566  1.0000
  C   C741      1.0  0.55643  0.17196  0.09073  1.0000
  C   C742      1.0  0.54358  0.16101  0.10163  1.0000
  H   H1267     1.0  0.55541  0.14758  0.16343  1.0000
  H   H1268     1.0  0.57868  0.16668  0.14369  1.0000
  H   H1269     1.0  0.55682  0.17851  0.07045  1.0000
  H   H1270     1.0  0.53416  0.15920  0.08961  1.0000
  C   C743      1.0  0.46299  0.11423  0.22934  1.0000
  C   C744      1.0  0.44629  0.10693  0.23482  1.0000
  C   C745      1.0  0.43658  0.10750  0.21418  1.0000
  C   C746      1.0  0.44349  0.11543  0.18807  1.0000
  C   C747      1.0  0.45969  0.12326  0.18281  1.0000
  C   C748      1.0  0.46948  0.12261  0.20339  1.0000
  H   H1271     1.0  0.44123  0.10045  0.25487  1.0000
  H   H1272     1.0  0.42410  0.10144  0.21840  1.0000
  H   H1273     1.0  0.46503  0.12948  0.16267  1.0000
  H   H1274     1.0  0.48222  0.12844  0.19907  1.0000
  H   H1275     1.0  0.58558  0.13741  0.35093  1.0000
  H   H1276     1.0  0.37837  0.20906  0.06433  1.0000
  H   H1277     1.0  0.60968  0.00805  0.06094  1.0000
  Fe  Fe94      1.0  0.36642  0.10629  0.22203  1.0000
  C   C749      1.0  0.54079  0.20334  0.46474  1.0000
  H   H1278     1.0  0.36084  0.22116  0.14740  1.0000
  H   H1279     1.0  0.62835  0.19273  0.36154  1.0000
  S   S183      1.0  0.55622  0.06504  0.20744  1.0000
  S   S184      1.0  0.34691  0.10190  0.19749  1.0000
  H   H1280     1.0  0.53155  0.20613  0.44981  1.0000
  H   H1281     1.0  0.53300  0.11145  0.45608  1.0000
  H   H1282     1.0  0.42029  0.06019  0.17190  1.0000
  C   C750      1.0  0.49436  0.19493  0.14427  1.0000
  C   C751      1.0  0.48733  0.17760  0.12024  1.0000
  C   C752      1.0  0.51311  0.20010  0.12378  1.0000
  C   C753      1.0  0.47257  0.17098  0.11011  1.0000
  C   C754      1.0  0.52888  0.20163  0.13810  1.0000
  C   C755      1.0  0.48289  0.15529  0.10186  1.0000
  H   H1283     1.0  0.49977  0.18414  0.15898  1.0000
  H   H1284     1.0  0.49479  0.16767  0.13461  1.0000
  H   H1285     1.0  0.49942  0.18042  0.10250  1.0000
  H   H1286     1.0  0.48410  0.20768  0.09436  1.0000
  H   H1287     1.0  0.52056  0.19143  0.11108  1.0000
  H   H1288     1.0  0.50878  0.21181  0.11058  1.0000
  C   C756      1.0  0.49767  0.20959  0.04029  1.0000
  H   H1289     1.0  0.36403  0.12406  0.05637  1.0000
  H   H1290     1.0  0.54229  0.20507  0.12315  1.0000
  H   H1291     1.0  0.52260  0.21083  0.15021  1.0000
  H   H1292     1.0  0.53400  0.19012  0.15131  1.0000
  H   H1293     1.0  0.36998  0.19449  0.14220  1.0000
  H   H1294     1.0  0.49674  0.15672  0.08628  1.0000
  H   H1295     1.0  0.48705  0.14619  0.11949  1.0000
  C   C757      1.0  0.55874  0.05300  0.29246  1.0000
  H   H1296     1.0  0.49736  0.23268  0.34220  1.0000
  H   H1297     1.0  0.60158  0.99549  0.26252  1.0000
  H   H1298     1.0  0.34690  0.15145  0.27218  1.0000
  H   H1299     1.0  0.60911  0.99896  0.03437  1.0000
  H   H1300     1.0  0.59262  0.01760  0.03835  1.0000
  C   C758      1.0  0.59991  0.20748  0.40063  1.0000
  S   S185      1.0  0.47583  0.16786  0.02900  1.0000
  C   C759      1.0  0.34616  0.03644  0.14834  1.0000
  H   H1301     1.0  0.63115  0.22737  0.39222  1.0000
  H   H1302     1.0  0.41473  0.09101  0.10160  1.0000
  C   C760      1.0  0.37099  0.19683  0.12019  1.0000
  H   H1303     1.0  0.43185  0.19794  0.21481  1.0000
  H   H1304     1.0  0.54888  0.03603  0.27930  1.0000
  N   N40       1.0  0.59672  0.11595  0.10099  1.0000
  C   C761      1.0  0.39472  0.10709  0.07589  1.0000
  H   H1305     1.0  0.57324  0.99627  0.05536  1.0000
  C   C762      1.0  0.39963  0.17278  0.12229  1.0000
  H   H1306     1.0  0.49518  0.19894  0.44184  1.0000
  C   C763      1.0  0.38149  0.19081  0.42456  1.0000
  H   H1307     1.0  0.35087  0.11536  0.10189  1.0000
  H   H1308     1.0  0.59033  0.15999  0.02739  1.0000
  H   H1309     1.0  0.55016  0.17796  0.99488  1.0000
  C   C764      1.0  0.38066  0.18104  0.11089  1.0000
  H   H1310     1.0  0.35742  0.22501  0.05818  1.0000
  H   H1311     1.0  0.58178  0.21373  0.44925  1.0000
  H   H1312     1.0  0.58211  0.23435  0.44137  1.0000
  C   C765      1.0  0.40265  0.18764  0.41914  1.0000
  H   H1313     1.0  0.35132  0.19096  0.08524  1.0000
  H   H1314     1.0  0.49550  0.23384  0.29310  1.0000
  H   H1315     1.0  0.45427  0.20873  0.17302  1.0000
  C   C766      1.0  0.43473  0.19284  0.19685  1.0000
  H   H1316     1.0  0.46678  0.19074  0.19175  1.0000
  C   C767      1.0  0.34543  0.23557  0.28243  1.0000
  H   H1317     1.0  0.59516  0.14968  0.07311  1.0000
  H   H1318     1.0  0.47092  0.22472  0.13130  1.0000
  H   H1319     1.0  0.60334  0.10712  0.15438  1.0000
  H   H1320     1.0  0.60896  0.01056  0.22086  1.0000
  H   H1321     1.0  0.60041  0.03041  0.15021  1.0000
  H   H1322     1.0  0.46640  0.22846  0.42016  1.0000
  S   S186      1.0  0.61950  0.00783  0.11461  1.0000
  H   H1323     1.0  0.33412  0.16622  0.20273  1.0000
  C   C768      1.0  0.51060  0.19481  0.04096  1.0000
  H   H1324     1.0  0.61832  0.12143  0.17622  1.0000
  S   S187      1.0  0.59795  0.22039  0.02792  1.0000
  H   H1325     1.0  0.39586  0.16963  0.14449  1.0000
  H   H1326     1.0  0.41881  0.15688  0.21796  1.0000
  S   S188      1.0  0.56265  0.20213  0.02592  1.0000
  C   C769      1.0  0.58040  0.04654  0.17369  1.0000
  H   H1327     1.0  0.55496  0.08636  0.14630  1.0000
  H   H1328     1.0  0.56810  0.04019  0.17862  1.0000
  C   C770      1.0  0.61068  0.12807  0.15933  1.0000
  H   H1329     1.0  0.62709  0.11584  0.07753  1.0000
  N   N41       1.0  0.48541  0.14959  0.29545  1.0000
  C   C771      1.0  0.50581  0.15405  0.28248  1.0000
  C   C772      1.0  0.48930  0.13174  0.30522  1.0000
  C   C773      1.0  0.47295  0.15437  0.27395  1.0000
  C   C774      1.0  0.47515  0.15818  0.31774  1.0000
  C   C775      1.0  0.48820  0.15661  0.33857  1.0000
  C   C776      1.0  0.50565  0.17173  0.26846  1.0000
  C   C777      1.0  0.45266  0.14861  0.28111  1.0000
  C   C778      1.0  0.47381  0.12455  0.32940  1.0000
  C   C779      1.0  0.47692  0.10660  0.33274  1.0000
  C   C780      1.0  0.47526  0.16069  0.36467  1.0000
  C   C781      1.0  0.52701  0.17529  0.26016  1.0000
  C   C782      1.0  0.44174  0.15452  0.25758  1.0000
  H   H1330     1.0  0.51387  0.14688  0.26720  1.0000
  H   H1331     1.0  0.51583  0.15078  0.29725  1.0000
  H   H1332     1.0  0.49101  0.12590  0.28832  1.0000
  H   H1333     1.0  0.50412  0.12740  0.31161  1.0000
  H   H1334     1.0  0.48188  0.14998  0.25574  1.0000
  H   H1335     1.0  0.46914  0.16753  0.26783  1.0000
  H   H1336     1.0  0.47031  0.17102  0.30965  1.0000
  H   H1337     1.0  0.46064  0.15439  0.32826  1.0000
  H   H1338     1.0  0.49904  0.16487  0.33043  1.0000
  H   H1339     1.0  0.49711  0.14444  0.34331  1.0000
  H   H1340     1.0  0.49934  0.17466  0.25002  1.0000
  H   H1341     1.0  0.49655  0.17972  0.28176  1.0000
  H   H1342     1.0  0.44262  0.15306  0.29856  1.0000
  H   H1343     1.0  0.45509  0.13550  0.28549  1.0000
  H   H1344     1.0  0.47581  0.12685  0.34815  1.0000
  H   H1345     1.0  0.45790  0.12958  0.32763  1.0000
  H   H1346     1.0  0.46621  0.10171  0.35068  1.0000
  H   H1347     1.0  0.47392  0.10374  0.31501  1.0000
  H   H1348     1.0  0.49261  0.10088  0.33525  1.0000
  H   H1349     1.0  0.48521  0.16027  0.37845  1.0000
  H   H1350     1.0  0.46603  0.17278  0.36078  1.0000
  H   H1351     1.0  0.46508  0.15206  0.37450  1.0000
  H   H1352     1.0  0.53707  0.16717  0.24745  1.0000
  H   H1353     1.0  0.52663  0.18768  0.24858  1.0000
  H   H1354     1.0  0.53334  0.17393  0.27815  1.0000
  H   H1355     1.0  0.42702  0.15052  0.26343  1.0000
  H   H1356     1.0  0.43887  0.16766  0.25183  1.0000
  H   H1357     1.0  0.45084  0.14953  0.24015  1.0000
  N   N42       1.0  0.56980  0.12509  0.43613  1.0000
  C   C783      1.0  0.57175  0.12832  0.40619  1.0000
  C   C784      1.0  0.54826  0.13145  0.44844  1.0000
  H   H1358     1.0  0.34473  0.00882  0.18753  1.0000
  H   H1359     1.0  0.34292  0.17394  0.14807  1.0000
  H   H1360     1.0  0.38613  0.08423  0.09174  1.0000
  C   C785      1.0  0.53161  0.12391  0.44465  1.0000
  H   H1361     1.0  0.59180  0.07528  0.45567  1.0000
  H   H1362     1.0  0.34461  0.12891  0.00405  1.0000
  H   H1363     1.0  0.56460  0.14080  0.39871  1.0000
  H   H1364     1.0  0.56318  0.12116  0.40052  1.0000
  H   H1365     1.0  0.40606  0.15242  0.45264  1.0000
  H   H1366     1.0  0.47826  0.17618  0.45000  1.0000
  H   H1367     1.0  0.49893  0.12658  0.45330  1.0000
  C   C786      1.0  0.36122  0.22833  0.23989  1.0000
  C   C787      1.0  0.59852  0.14120  0.47536  1.0000
  H   H1368     1.0  0.40194  0.15663  0.40697  1.0000
  H   H1369     1.0  0.41052  0.13555  0.40875  1.0000
  C   C788      1.0  0.61111  0.21995  0.44305  1.0000
  H   H1370     1.0  0.53236  0.12428  0.42331  1.0000
  C   C789      1.0  0.51052  0.13258  0.45544  1.0000
  H   H1371     1.0  0.36562  0.04501  0.27150  1.0000
  H   H1372     1.0  0.45790  0.20435  0.44754  1.0000
  H   H1373     1.0  0.35466  0.19912  0.45167  1.0000
  C   C790      1.0  0.37062  0.12939  0.31373  1.0000
  H   H1374     1.0  0.33783  0.08915  0.06843  1.0000
  C   C791      1.0  0.34777  0.05831  0.08163  1.0000
  H   H1375     1.0  0.40599  0.15762  0.19190  1.0000
  N   N43       1.0  0.48642  0.06789  0.16782  1.0000
  C   C792      1.0  0.50015  0.07867  0.14918  1.0000
  C   C793      1.0  0.49486  0.05087  0.16516  1.0000
  C   C794      1.0  0.46619  0.07293  0.15929  1.0000
  C   C795      1.0  0.48293  0.06937  0.19650  1.0000
  C   C796      1.0  0.50179  0.06469  0.20941  1.0000
  C   C797      1.0  0.49255  0.09670  0.14757  1.0000
  C   C798      1.0  0.45029  0.06228  0.17374  1.0000
  C   C799      1.0  0.51828  0.04565  0.15870  1.0000
  C   C800      1.0  0.52441  0.02783  0.15970  1.0000
  C   C801      1.0  0.49663  0.06860  0.23710  1.0000
  C   C802      1.0  0.50820  0.10619  0.12926  1.0000
  C   C803      1.0  0.43193  0.06732  0.16038  1.0000
  H   H1376     1.0  0.50284  0.07679  0.12844  1.0000
  H   H1377     1.0  0.51527  0.07575  0.15452  1.0000
  H   H1378     1.0  0.48887  0.04257  0.18364  1.0000
  H   H1379     1.0  0.48962  0.04840  0.14861  1.0000
  H   H1380     1.0  0.46836  0.07390  0.13732  1.0000
  H   H1381     1.0  0.45871  0.08491  0.16294  1.0000
  H   H1382     1.0  0.47516  0.08160  0.19868  1.0000
  H   H1383     1.0  0.47234  0.06168  0.20959  1.0000
  H   H1384     1.0  0.51397  0.07101  0.19714  1.0000
  H   H1385     1.0  0.50754  0.05173  0.21218  1.0000
  H   H1386     1.0  0.47857  0.10106  0.13924  1.0000
  H   H1387     1.0  0.48962  0.09942  0.16758  1.0000
  H   H1388     1.0  0.44478  0.06345  0.19488  1.0000
  H   H1389     1.0  0.45642  0.04959  0.17350  1.0000
  H   H1390     1.0  0.52452  0.05177  0.13815  1.0000
  H   H1391     1.0  0.52572  0.04844  0.17268  1.0000
  H   H1392     1.0  0.51865  0.02098  0.17987  1.0000
  H   H1393     1.0  0.51837  0.02468  0.14460  1.0000
  H   H1394     1.0  0.54117  0.02440  0.15522  1.0000
  H   H1395     1.0  0.48522  0.06186  0.25080  1.0000
  H   H1396     1.0  0.51050  0.06546  0.24569  1.0000
  H   H1397     1.0  0.49059  0.08147  0.23573  1.0000
  H   H1398     1.0  0.51213  0.10369  0.10889  1.0000
  H   H1399     1.0  0.50191  0.11902  0.12764  1.0000
  H   H1400     1.0  0.52203  0.10344  0.13773  1.0000
  N   N44       1.0  0.47817  0.19179  0.13290  1.0000
  C   C804      1.0  0.61222  0.06298  0.16035  1.0000
  S   S189      1.0  0.34859  0.20463  0.28080  1.0000
  H   H1401     1.0  0.59914  0.00673  0.28660  1.0000
  S   S190      1.0  0.35358  0.10918  0.26447  1.0000
  C   C805      1.0  0.57822  0.05994  0.18410  1.0000
  H   H1402     1.0  0.37920  0.00231  0.21820  1.0000
  Fe  Fe95      1.0  0.57694  0.20549  0.05716  1.0000
  Fe  Fe96      1.0  0.58125  0.21901  0.99748  1.0000
  H   H1403     1.0  0.35036  0.03556  0.23328  1.0000
  H   H1404     1.0  0.48834  0.20444  0.15571  1.0000
  H   H1405     1.0  0.57814  0.99631  0.23224  1.0000
  S   S191      1.0  0.58682  0.18638  0.09118  1.0000
  H   H1406     1.0  0.62699  0.11175  0.13444  1.0000
  H   H1407     1.0  0.40992  0.22595  0.22630  1.0000
  Fe  Fe97      1.0  0.40542  0.17584  0.00921  1.0000
  H   H1408     1.0  0.61050  0.13442  0.10517  1.0000
  H   H1409     1.0  0.41255  0.13134  0.45859  1.0000
  C   C806      1.0  0.57612  0.10772  0.44842  1.0000
  H   H1410     1.0  0.58038  0.14695  0.43048  1.0000
  H   H1411     1.0  0.58655  0.11623  0.35967  1.0000
  H   H1412     1.0  0.38685  0.14551  0.39871  1.0000
  H   H1413     1.0  0.37210  0.15115  0.44332  1.0000
  C   C807      1.0  0.47289  0.23067  0.43573  1.0000
  H   H1414     1.0  0.46708  0.22216  0.03973  1.0000
  H   H1415     1.0  0.46318  0.17467  0.16407  1.0000
  H   H1416     1.0  0.59874  0.22769  0.48090  1.0000
  C   C808      1.0  0.40263  0.19490  0.46061  1.0000
  H   H1417     1.0  0.35721  0.18782  0.20347  1.0000
  C   C809      1.0  0.36162  0.04186  0.15413  1.0000
  H   H1418     1.0  0.33351  0.22488  0.15317  1.0000
  S   S192      1.0  0.36750  0.18670  0.40447  1.0000
  H   H1419     1.0  0.33510  0.20024  0.15443  1.0000
  C   C810      1.0  0.39707  0.14504  0.41219  1.0000
  C   C811      1.0  0.38155  0.19868  0.46536  1.0000
  H   H1420     1.0  0.36665  0.21944  0.22790  1.0000
  C   C812      1.0  0.59868  0.04102  0.15748  1.0000
  C   C813      1.0  0.59521  0.14082  0.06171  1.0000
  H   H1421     1.0  0.55023  0.08124  0.11783  1.0000
  H   H1422     1.0  0.38524  0.18324  0.08878  1.0000
  H   H1423     1.0  0.37126  0.99424  0.26491  1.0000
  H   H1424     1.0  0.58328  0.09539  0.41515  1.0000
  H   H1425     1.0  0.60285  0.11447  0.39843  1.0000
  H   H1426     1.0  0.54462  0.01986  0.20600  1.0000
  H   H1427     1.0  0.34569  0.14349  0.02156  1.0000
  H   H1428     1.0  0.46754  0.17940  0.09237  1.0000
  C   C814      1.0  0.35874  0.11427  0.05223  1.0000
  C   C815      1.0  0.48348  0.23480  0.24844  1.0000
  H   H1429     1.0  0.39683  0.11570  0.05639  1.0000
  C   C816      1.0  0.55183  0.00780  0.21540  1.0000
  C   C817      1.0  0.60910  0.21748  0.47329  1.0000
  H   H1430     1.0  0.52589  0.19334  0.04335  1.0000
  C   C818      1.0  0.53834  0.21380  0.48171  1.0000
  C   C819      1.0  0.47062  0.19808  0.03614  1.0000
  C   C820      1.0  0.44053  0.23057  0.46910  1.0000
  H   H1431     1.0  0.33837  0.23230  0.30328  1.0000
  H   H1432     1.0  0.38658  0.01983  0.23797  1.0000
  C   C821      1.0  0.36811  0.11723  0.27865  1.0000
  H   H1433     1.0  0.36116  0.08557  0.04640  1.0000
  H   H1434     1.0  0.62705  0.01478  0.25562  1.0000
  C   C822      1.0  0.38362  0.09428  0.07440  1.0000
  C   C823      1.0  0.47132  0.20559  0.11147  1.0000
  C   C824      1.0  0.36386  0.00881  0.21500  1.0000
  C   C825      1.0  0.34858  0.22285  0.11184  1.0000
  H   H1435     1.0  0.34374  0.12221  0.31138  1.0000
  N   N45       1.0  0.36125  0.09957  0.07421  1.0000
  C   C826      1.0  0.56180  0.08420  0.12589  1.0000
  H   H1436     1.0  0.57403  0.10948  0.13632  1.0000
  H   H1437     1.0  0.55591  0.10852  0.10483  1.0000
  H   H1438     1.0  0.57455  0.07389  0.12715  1.0000
  H   H1439     1.0  0.59490  0.13323  0.16781  1.0000
  H   H1440     1.0  0.35394  0.19053  0.23635  1.0000
  C   C827      1.0  0.46043  0.18763  0.15497  1.0000
  H   H1441     1.0  0.45897  0.16869  0.12560  1.0000
  C   C828      1.0  0.56929  0.09885  0.10742  1.0000
  H   H1442     1.0  0.57007  0.13243  0.09060  1.0000
  H   H1443     1.0  0.58613  0.13332  0.12544  1.0000
  H   H1444     1.0  0.56751  0.15385  0.04772  1.0000
  H   H1445     1.0  0.40636  0.16168  0.11490  1.0000
  C   C829      1.0  0.37454  0.02399  0.25419  1.0000
  H   H1446     1.0  0.37691  0.03516  0.15132  1.0000
  H   H1447     1.0  0.38244  0.20456  0.11144  1.0000
  H   H1448     1.0  0.45026  0.23176  0.08327  1.0000
  C   C830      1.0  0.58402  0.10429  0.11947  1.0000
  H   H1449     1.0  0.34203  0.02715  0.26770  1.0000
  C   C831      1.0  0.35708  0.00068  0.19694  1.0000
  C   C832      1.0  0.58520  0.12698  0.08033  1.0000
  C   C833      1.0  0.60062  0.12596  0.11758  1.0000
  C   C834      1.0  0.61093  0.11688  0.14163  1.0000
  C   C835      1.0  0.58363  0.14955  0.03932  1.0000
  H   H1450     1.0  0.58198  0.12042  0.06720  1.0000
  H   H1451     1.0  0.59389  0.09353  0.12898  1.0000
  H   H1452     1.0  0.57626  0.09593  0.08766  1.0000
  H   H1453     1.0  0.61871  0.13786  0.14767  1.0000
  S   S193      1.0  0.38418  0.20508  0.32863  1.0000
  C   C836      1.0  0.35932  0.12288  0.30213  1.0000
  H   H1454     1.0  0.65511  0.02457  0.21970  1.0000
  H   H1455     1.0  0.56845  0.10509  0.46983  1.0000
  C   C837      1.0  0.61688  0.10735  0.08847  1.0000
  H   H1456     1.0  0.62475  0.09926  0.10431  1.0000
  C   C838      1.0  0.57617  0.07867  0.45179  1.0000
  Fe  Fe98      1.0  0.44768  0.17786  0.01210  1.0000
  H   H1457     1.0  0.54451  0.14453  0.44063  1.0000
  C   C839      1.0  0.48480  0.17792  0.46597  1.0000
  C   C840      1.0  0.48389  0.18356  0.03516  1.0000
  H   H1458     1.0  0.51390  0.17048  0.03849  1.0000
  C   C841      1.0  0.36706  0.15911  0.22367  1.0000
  C   C842      1.0  0.46150  0.22141  0.12032  1.0000
  C   C843      1.0  0.39956  0.14144  0.46067  1.0000
  C   C844      1.0  0.50371  0.18179  0.03848  1.0000
  C   C845      1.0  0.36188  0.20701  0.03626  1.0000
  H   H1459     1.0  0.54637  0.12974  0.47046  1.0000
  H   H1460     1.0  0.60858  0.10365  0.05312  1.0000
  H   H1461     1.0  0.51897  0.17252  0.98858  1.0000
  C   C846      1.0  0.61643  0.09681  0.06966  1.0000
  C   C847      1.0  0.41574  0.09975  0.08218  1.0000
  H   H1462     1.0  0.42147  0.20925  0.05798  1.0000
  H   H1463     1.0  0.37625  0.04880  0.23598  1.0000
  H   H1464     1.0  0.36850  0.19423  0.03750  1.0000
  H   H1465     1.0  0.55476  0.01854  0.25575  1.0000
  H   H1466     1.0  0.58213  0.20269  0.37571  1.0000
  H   H1467     1.0  0.42304  0.10922  0.08359  1.0000
  H   H1468     1.0  0.40362  0.21806  0.26171  1.0000
  C   C848      1.0  0.41319  0.18960  0.43725  1.0000
  H   H1469     1.0  0.44656  0.19000  0.14648  1.0000
  C   C849      1.0  0.46421  0.20576  0.46402  1.0000
  C   C850      1.0  0.57090  0.22837  0.30240  1.0000
  H   H1470     1.0  0.38119  0.00653  0.16264  1.0000
  H   H1471     1.0  0.49667  0.22490  0.24749  1.0000
  H   H1472     1.0  0.40605  0.14115  0.22048  1.0000
  H   H1473     1.0  0.34612  0.20933  0.03317  1.0000
  H   H1474     1.0  0.38126  0.13016  0.44514  1.0000
  C   C851      1.0  0.64209  0.02155  0.21476  1.0000
  H   H1475     1.0  0.42535  0.09377  0.06611  1.0000
  H   H1476     1.0  0.45990  0.20283  0.10282  1.0000
  S   S194      1.0  0.37711  0.06127  0.17285  1.0000
  H   H1477     1.0  0.62142  0.03565  0.24057  1.0000
  C   C852      1.0  0.35318  0.02476  0.24931  1.0000
  H   H1478     1.0  0.48088  0.23739  0.99568  1.0000
  H   H1479     1.0  0.59258  0.10476  0.44878  1.0000
  H   H1480     1.0  0.63902  0.02955  0.19555  1.0000
  H   H1481     1.0  0.42955  0.18677  0.43335  1.0000
  C   C853      1.0  0.35520  0.99608  0.26324  1.0000
  H   H1482     1.0  0.52407  0.22750  0.25977  1.0000
  H   H1483     1.0  0.48914  0.22506  0.43153  1.0000
  H   H1484     1.0  0.47242  0.15110  0.09363  1.0000
  S   S195      1.0  0.63802  0.04190  0.13170  1.0000
  H   H1485     1.0  0.50872  0.13255  0.47695  1.0000
  C   C854      1.0  0.59013  0.22294  0.43565  1.0000
  C   C855      1.0  0.62361  0.02348  0.23725  1.0000
  H   H1486     1.0  0.58450  0.14164  0.02579  1.0000
  C   C856      1.0  0.56075  0.23787  0.32076  1.0000
  H   H1487     1.0  0.60079  0.03143  0.21316  1.0000
  H   H1488     1.0  0.62551  0.22529  0.36229  1.0000
  H   H1489     1.0  0.58125  0.04526  0.24778  1.0000
  H   H1490     1.0  0.57174  0.05444  0.29970  1.0000
  C   C857      1.0  0.34715  0.18594  0.22361  1.0000
  H   H1491     1.0  0.41960  0.21074  0.10456  1.0000
  H   H1492     1.0  0.55628  0.06252  0.27450  1.0000
  H   H1493     1.0  0.35812  0.09531  0.11743  1.0000
  H   H1494     1.0  0.56406  0.03234  0.22774  1.0000
  H   H1495     1.0  0.38595  0.11369  0.09145  1.0000
  H   H1496     1.0  0.54498  0.05439  0.30836  1.0000
  C   C858      1.0  0.41315  0.22098  0.09089  1.0000
  C   C859      1.0  0.56255  0.03669  0.28579  1.0000
  H   H1497     1.0  0.61101  0.13650  0.05222  1.0000
  C   C860      1.0  0.58194  0.03434  0.26409  1.0000
  N   N46       1.0  0.35076  0.20533  0.11313  1.0000
  C   C861      1.0  0.36250  0.21193  0.06160  1.0000
  C   C862      1.0  0.38607  0.16316  0.22878  1.0000
  H   H1498     1.0  0.37012  0.17269  0.11703  1.0000
  H   H1499     1.0  0.60893  0.08674  0.08120  1.0000
  H   H1500     1.0  0.38657  0.15959  0.25043  1.0000
  H   H1501     1.0  0.61086  0.17982  0.38098  1.0000
  H   H1502     1.0  0.38642  0.17600  0.22197  1.0000
  C   C863      1.0  0.41407  0.22007  0.06451  1.0000
  H   H1503     1.0  0.61826  0.23047  0.43357  1.0000
  H   H1504     1.0  0.56609  0.99229  0.27678  1.0000
  H   H1505     1.0  0.43476  0.17994  0.20361  1.0000
  H   H1506     1.0  0.59452  0.03423  0.27368  1.0000
  C   C864      1.0  0.60444  0.02124  0.22971  1.0000
  C   C865      1.0  0.58130  0.13466  0.47153  1.0000
  C   C866      1.0  0.40395  0.23505  0.09962  1.0000
  Fe  Fe99      1.0  0.36006  0.12091  0.16546  1.0000
  H   H1507     1.0  0.34956  0.02562  0.14108  1.0000
  C   C867      1.0  0.59972  0.00594  0.04927  1.0000
  C   C868      1.0  0.35217  0.22410  0.26687  1.0000
  Fe  Fe100     1.0  0.64141  0.01634  0.12975  1.0000
  S   S196      1.0  0.34061  0.14015  0.14087  1.0000
  H   H1508     1.0  0.56433  0.02772  0.30451  1.0000
  H   H1509     1.0  0.37600  0.06473  0.07940  1.0000
  S   S197      1.0  0.64092  0.99771  0.16769  1.0000
  H   H1510     1.0  0.56696  0.14252  0.47856  1.0000
  H   H1511     1.0  0.56091  0.00500  0.29975  1.0000
  H   H1512     1.0  0.36799  0.14623  0.23259  1.0000
  H   H1513     1.0  0.39175  0.08964  0.05615  1.0000
  H   H1514     1.0  0.36888  0.16044  0.20166  1.0000
  N   N47       1.0  0.58613  0.01990  0.25216  1.0000
  S   S198      1.0  0.33893  0.99707  0.12935  1.0000
  H   H1515     1.0  0.55716  0.09805  0.43058  1.0000
  H   H1516     1.0  0.59932  0.21562  0.35728  1.0000
  H   H1517     1.0  0.64619  0.08213  0.07286  1.0000
  H   H1518     1.0  0.61329  0.13330  0.47024  1.0000
  H   H1519     1.0  0.36845  0.11180  0.03296  1.0000
  Fe  Fe101     1.0  0.41638  0.20752  0.00472  1.0000
  C   C869      1.0  0.33986  0.15399  0.08872  1.0000
  H   H1520     1.0  0.34597  0.99804  0.28304  1.0000
  C   C870      1.0  0.41387  0.22498  0.24586  1.0000
  C   C871      1.0  0.61264  0.19075  0.36525  1.0000
  H   H1521     1.0  0.46600  0.22361  0.23254  1.0000
  C   C872      1.0  0.58324  0.13439  0.44171  1.0000
  C   C873      1.0  0.57296  0.99674  0.28950  1.0000
  C   C874      1.0  0.34398  0.16450  0.26468  1.0000
  H   H1522     1.0  0.36627  0.02064  0.20246  1.0000
  H   H1523     1.0  0.37675  0.01583  0.27357  1.0000
  S   S199      1.0  0.40514  0.23185  0.01416  1.0000
  C   C875      1.0  0.63785  0.08963  0.05709  1.0000
  H   H1524     1.0  0.36381  0.13355  0.33202  1.0000
  H   H1525     1.0  0.59374  0.19788  0.41662  1.0000
  C   C876      1.0  0.56843  0.02036  0.24010  1.0000
  C   C877      1.0  0.42858  0.23303  0.44660  1.0000
  H   H1526     1.0  0.58223  0.01180  0.20293  1.0000
  N   N48       1.0  0.58982  0.22348  0.40693  1.0000
  C   C878      1.0  0.33769  0.06459  0.16685  1.0000
  H   H1527     1.0  0.50776  0.14501  0.44396  1.0000
  C   C879      1.0  0.34859  0.20361  0.08633  1.0000
  H   H1528     1.0  0.62413  0.21630  0.47809  1.0000
  H   H1529     1.0  0.61628  0.20492  0.40086  1.0000
  H   H1530     1.0  0.47305  0.23776  0.08424  1.0000
  H   H1531     1.0  0.56123  0.21573  0.41618  1.0000
  H   H1532     1.0  0.58919  0.23750  0.08504  1.0000
  C   C880      1.0  0.35740  0.05577  0.16386  1.0000
  H   H1533     1.0  0.44639  0.22045  0.13319  1.0000
  H   H1534     1.0  0.55589  0.21956  0.22427  1.0000
  C   C881      1.0  0.33731  0.13435  0.02158  1.0000
  H   H1535     1.0  0.43020  0.22182  0.44017  1.0000
  N   N49       1.0  0.34682  0.16845  0.23461  1.0000
  H   H1536     1.0  0.49353  0.19625  0.47725  1.0000
  H   H1537     1.0  0.33884  0.16451  0.04736  1.0000
  H   H1538     1.0  0.34978  0.05820  0.06015  1.0000
  H   H1539     1.0  0.36164  0.22755  0.09765  1.0000
  H   H1540     1.0  0.56687  0.22748  0.38352  1.0000
  H   H1541     1.0  0.60991  0.18901  0.34645  1.0000
  Fe  Fe102     1.0  0.64684  0.99222  0.09579  1.0000
  H   H1542     1.0  0.34188  0.21716  0.19901  1.0000
  C   C882      1.0  0.37730  0.04029  0.25544  1.0000
  C   C883      1.0  0.48576  0.19538  0.46189  1.0000
  H   H1543     1.0  0.55946  0.23267  0.19172  1.0000
  H   H1544     1.0  0.56519  0.07782  0.47115  1.0000
  C   C884      1.0  0.35030  0.10308  0.10123  1.0000
  H   H1545     1.0  0.54135  0.00307  0.23376  1.0000
  H   H1546     1.0  0.64635  0.00910  0.21230  1.0000
  H   H1547     1.0  0.59892  0.15327  0.46257  1.0000
  C   C885      1.0  0.59919  0.23695  0.38800  1.0000
  H   H1548     1.0  0.36942  0.99096  0.16131  1.0000
  H   H1549     1.0  0.33425  0.07529  0.17445  1.0000
  H   H1550     1.0  0.37758  0.16543  0.47604  1.0000
  C   C886      1.0  0.59094  0.00474  0.27253  1.0000
  N   N50       1.0  0.35005  0.01044  0.24160  1.0000
  H   H1551     1.0  0.55478  0.99990  0.20117  1.0000
  H   H1552     1.0  0.34262  0.13809  0.22817  1.0000
  H   H1553     1.0  0.39947  0.23048  0.47328  1.0000
  H   H1554     1.0  0.63713  0.08203  0.04384  1.0000
  C   C887      1.0  0.35436  0.08650  0.06752  1.0000
  H   H1555     1.0  0.33485  0.22970  0.10384  1.0000
  H   H1556     1.0  0.44323  0.23443  0.31267  1.0000
  H   H1557     1.0  0.42973  0.21855  0.24525  1.0000
  H   H1558     1.0  0.35328  0.04609  0.09234  1.0000
  H   H1559     1.0  0.57410  0.07013  0.44113  1.0000
  C   C888      1.0  0.55552  0.18944  0.46687  1.0000
  S   S200      1.0  0.40164  0.23530  0.13340  1.0000
  H   H1560     1.0  0.64625  0.09910  0.04492  1.0000
  H   H1561     1.0  0.45468  0.20022  0.48269  1.0000
  N   N51       1.0  0.46267  0.22309  0.46313  1.0000
  H   H1562     1.0  0.48956  0.22171  0.47800  1.0000
  H   H1563     1.0  0.33274  0.20847  0.08348  1.0000
  H   H1564     1.0  0.35647  0.07007  0.10669  1.0000
  H   H1565     1.0  0.58485  0.22814  0.26120  1.0000
  H   H1566     1.0  0.53224  0.98859  0.15906  1.0000
  H   H1567     1.0  0.47592  0.14300  0.98750  1.0000
  C   C889      1.0  0.33354  0.19958  0.13437  1.0000
  H   H1568     1.0  0.55615  0.23247  0.34155  1.0000
  H   H1569     1.0  0.54612  0.23086  0.14106  1.0000
  C   C890      1.0  0.58337  0.99722  0.06785  1.0000
  C   C891      1.0  0.47165  0.23489  0.22756  1.0000
  H   H1570     1.0  0.52725  0.22469  0.47975  1.0000
  S   S201      1.0  0.43612  0.16606  0.98787  1.0000
  H   H1571     1.0  0.43067  0.14870  0.47744  1.0000
  H   H1572     1.0  0.47351  0.23234  0.26844  1.0000
  H   H1573     1.0  0.33365  0.16759  0.31749  1.0000
  C   C892      1.0  0.35966  0.06972  0.08520  1.0000
  H   H1574     1.0  0.59452  0.23713  0.12994  1.0000
  Fe  Fe103     1.0  0.62087  0.98824  0.15107  1.0000
  C   C893      1.0  0.56795  0.22623  0.40465  1.0000
  H   H1575     1.0  0.43208  0.23582  0.27710  1.0000
  H   H1576     1.0  0.35118  0.98988  0.20810  1.0000
  H   H1577     1.0  0.52322  0.23585  0.21184  1.0000
  C   C894      1.0  0.57687  0.23546  0.27542  1.0000
  C   C895      1.0  0.45830  0.23496  0.09620  1.0000
  H   H1578     1.0  0.52573  0.23389  0.41547  1.0000
  H   H1579     1.0  0.52615  0.23634  0.30355  1.0000
  H   H1580     1.0  0.56499  0.23772  0.21953  1.0000
  H   H1581     1.0  0.50266  0.21277  0.98328  1.0000
  H   H1582     1.0  0.44755  0.13685  0.92272  1.0000
  H   H1583     1.0  0.40985  0.16331  0.48875  1.0000
  S   S202      1.0  0.56269  0.19047  0.57967  1.0000
  H   H1584     1.0  0.36471  0.16799  0.96636  1.0000
  Fe  Fe104     1.0  0.56619  0.21440  0.55411  1.0000
  Fe  Fe105     1.0  0.56188  0.20075  0.61451  1.0000
  S   S203      1.0  0.54114  0.19396  0.65442  1.0000
  S   S204      1.0  0.54906  0.19192  0.81645  1.0000
  S   S205      1.0  0.54613  0.21220  0.87592  1.0000
  Fe  Fe106     1.0  0.57041  0.20343  0.78169  1.0000
  S   S206      1.0  0.56111  0.21935  0.74427  1.0000
  C   C896      1.0  0.35099  0.14734  0.93321  1.0000
  H   H1585     1.0  0.60823  0.99567  0.75354  1.0000
  S   S207      1.0  0.60232  0.12339  0.68830  1.0000
  C   C897      1.0  0.47263  0.01007  0.63525  1.0000
  H   H1586     1.0  0.36723  0.17022  0.85019  1.0000
  Fe  Fe107     1.0  0.36894  0.09717  0.64887  1.0000
  C   C898      1.0  0.34398  0.20643  0.66913  1.0000
  S   S208      1.0  0.37733  0.10202  0.60404  1.0000
  Fe  Fe108     1.0  0.38033  0.10617  0.69392  1.0000
  H   H1587     1.0  0.54613  0.14611  0.60810  1.0000
  S   S209      1.0  0.40188  0.12052  0.69705  1.0000
  H   H1588     1.0  0.63175  0.02299  0.73452  1.0000
  C   C899      1.0  0.34942  0.12916  0.60490  1.0000
  H   H1589     1.0  0.45414  0.03955  0.62197  1.0000
  H   H1590     1.0  0.57904  0.05083  0.60943  1.0000
  S   S210      1.0  0.39328  0.08627  0.67248  1.0000
  H   H1591     1.0  0.33695  0.13175  0.77784  1.0000
  Fe  Fe109     1.0  0.43339  0.18964  0.95916  1.0000
  H   H1592     1.0  0.45363  0.01918  0.55265  1.0000
  S   S211      1.0  0.44441  0.18840  0.91567  1.0000
  C   C900      1.0  0.61029  0.00800  0.74477  1.0000
  H   H1593     1.0  0.50137  0.18534  0.65759  1.0000
  C   C901      1.0  0.47684  0.17400  0.76948  1.0000
  H   H1594     1.0  0.48539  0.15954  0.67175  1.0000
  C   C902      1.0  0.36254  0.99184  0.62587  1.0000
  H   H1595     1.0  0.39274  0.03512  0.63299  1.0000
  S   S212      1.0  0.41385  0.00283  0.63961  1.0000
  S   S213      1.0  0.58833  0.03737  0.67008  1.0000
  H   H1596     1.0  0.47812  0.17013  0.79086  1.0000
  H   H1597     1.0  0.35621  0.16956  0.69887  1.0000
  H   H1598     1.0  0.34985  0.18358  0.50340  1.0000
  C   C903      1.0  0.35523  0.19939  0.96230  1.0000
  H   H1599     1.0  0.38074  0.12037  0.54201  1.0000
  H   H1600     1.0  0.46564  0.16061  0.63582  1.0000
  H   H1601     1.0  0.35227  0.23109  0.63185  1.0000
  H   H1602     1.0  0.42027  0.07911  0.61922  1.0000
  C   C904      1.0  0.46578  0.21643  0.51286  1.0000
  H   H1603     1.0  0.42703  0.23386  0.91864  1.0000
  H   H1604     1.0  0.39184  0.11524  0.49426  1.0000
  H   H1605     1.0  0.33460  0.16458  0.80208  1.0000
  H   H1606     1.0  0.34788  0.15346  0.91306  1.0000
  Fe  Fe110     1.0  0.59628  0.18634  0.57491  1.0000
  H   H1607     1.0  0.53543  0.19620  0.97990  1.0000
  C   C905      1.0  0.36090  0.15821  0.66627  1.0000
  C   C906      1.0  0.55040  0.21027  0.50104  1.0000
  H   H1608     1.0  0.54691  0.14090  0.89133  1.0000
  H   H1609     1.0  0.44188  0.15736  0.90611  1.0000
  H   H1610     1.0  0.52501  0.02908  0.67294  1.0000
  H   H1611     1.0  0.44274  0.01048  0.71443  1.0000
  H   H1612     1.0  0.43334  0.06427  0.60020  1.0000
  H   H1613     1.0  0.37354  0.14869  0.67244  1.0000
  H   H1614     1.0  0.35570  0.10311  0.55726  1.0000
  S   S214      1.0  0.56212  0.22535  0.58950  1.0000
  H   H1615     1.0  0.62916  0.01251  0.76826  1.0000
  C   C907      1.0  0.44713  0.17103  0.60643  1.0000
  H   H1616     1.0  0.43547  0.17792  0.61978  1.0000
  H   H1617     1.0  0.35508  0.01876  0.68657  1.0000
  H   H1618     1.0  0.46562  0.19480  0.74202  1.0000
  H   H1619     1.0  0.42888  0.06085  0.66086  1.0000
  S   S215      1.0  0.42969  0.21059  0.71067  1.0000
  C   C908      1.0  0.37697  0.17167  0.89836  1.0000
  C   C909      1.0  0.38764  0.03545  0.69864  1.0000
  C   C910      1.0  0.39670  0.01968  0.70760  1.0000
  C   C911      1.0  0.40469  0.00958  0.68960  1.0000
  C   C912      1.0  0.40323  0.01508  0.66270  1.0000
  C   C913      1.0  0.39382  0.03077  0.65383  1.0000
  C   C914      1.0  0.38622  0.04099  0.67171  1.0000
  C   C915      1.0  0.36461  0.17399  0.94497  1.0000
  H   H1620     1.0  0.41221  0.99761  0.69649  1.0000
  H   H1621     1.0  0.61569  0.07687  0.65659  1.0000
  H   H1622     1.0  0.37927  0.05318  0.66466  1.0000
  C   C916      1.0  0.55999  0.21157  0.89996  1.0000
  N   N52       1.0  0.37884  0.16370  0.92685  1.0000
  C   C917      1.0  0.43719  0.14837  0.92424  1.0000
  H   H1623     1.0  0.65196  0.99101  0.78181  1.0000
  H   H1624     1.0  0.38535  0.18296  0.84381  1.0000
  N   N53       1.0  0.62400  0.23588  0.87024  1.0000
  C   C918      1.0  0.36967  0.12260  0.59640  1.0000
  C   C919      1.0  0.38403  0.13241  0.58599  1.0000
  C   C920      1.0  0.37818  0.14875  0.58519  1.0000
  Fe  Fe111     1.0  0.57500  0.17118  0.81818  1.0000
  H   H1625     1.0  0.57806  0.01705  0.75487  1.0000
  H   H1626     1.0  0.39979  0.12725  0.58017  1.0000
  H   H1627     1.0  0.35205  0.14277  0.71990  1.0000
  H   H1628     1.0  0.56718  0.07754  0.71536  1.0000
  H   H1629     1.0  0.53635  0.19684  0.74746  1.0000
  C   C921      1.0  0.57926  0.20217  0.89975  1.0000
  H   H1630     1.0  0.55723  0.18620  0.95967  1.0000
  H   H1631     1.0  0.44447  0.18304  0.86436  1.0000
  H   H1632     1.0  0.59698  0.13068  0.55651  1.0000
  C   C922      1.0  0.38439  0.14567  0.76669  1.0000
  C   C923      1.0  0.39509  0.15250  0.74193  1.0000
  C   C924      1.0  0.40044  0.14465  0.72067  1.0000
  C   C925      1.0  0.39483  0.13008  0.72396  1.0000
  C   C926      1.0  0.38422  0.12318  0.74875  1.0000
  H   H1633     1.0  0.35218  0.15364  0.65594  1.0000
  H   H1634     1.0  0.39960  0.16367  0.73925  1.0000
  H   H1635     1.0  0.40881  0.14993  0.70156  1.0000
  H   H1636     1.0  0.64065  0.16376  0.75592  1.0000
  H   H1637     1.0  0.39897  0.13850  0.52682  1.0000
  H   H1638     1.0  0.65219  0.09468  0.61966  1.0000
  C   C927      1.0  0.50196  0.16236  0.95572  1.0000
  C   C928      1.0  0.62916  0.03370  0.66754  1.0000
  C   C929      1.0  0.60960  0.04004  0.67947  1.0000
  C   C930      1.0  0.60693  0.05008  0.69700  1.0000
  C   C931      1.0  0.62363  0.05433  0.70177  1.0000
  H   H1639     1.0  0.63134  0.02602  0.65383  1.0000
  H   H1640     1.0  0.59187  0.05467  0.70680  1.0000
  H   H1641     1.0  0.62135  0.06213  0.71524  1.0000
  H   H1642     1.0  0.41860  0.15580  0.53390  1.0000
  C   C932      1.0  0.36219  0.99720  0.65121  1.0000
  N   N54       1.0  0.38937  0.14043  0.48976  1.0000
  H   H1643     1.0  0.58240  0.06544  0.57830  1.0000
  H   H1644     1.0  0.58138  0.11368  0.85274  1.0000
  H   H1645     1.0  0.34362  0.15545  0.75743  1.0000
  C   C933      1.0  0.55706  0.21082  0.72002  1.0000
  C   C934      1.0  0.56586  0.21584  0.69312  1.0000
  C   C935      1.0  0.56132  0.21042  0.67304  1.0000
  C   C936      1.0  0.54742  0.20034  0.67965  1.0000
  C   C937      1.0  0.53825  0.19554  0.70654  1.0000
  C   C938      1.0  0.54344  0.20047  0.72677  1.0000
  H   H1646     1.0  0.43260  0.22320  0.48724  1.0000
  H   H1647     1.0  0.51052  0.20922  0.78354  1.0000
  H   H1648     1.0  0.46152  0.01348  0.62192  1.0000
  C   C939      1.0  0.58253  0.21160  0.93736  1.0000
  C   C940      1.0  0.59117  0.14684  0.64721  1.0000
  C   C941      1.0  0.59359  0.15535  0.62076  1.0000
  H   H1649     1.0  0.57849  0.15100  0.66183  1.0000
  H   H1650     1.0  0.58253  0.16577  0.61531  1.0000
  H   H1651     1.0  0.56602  0.09673  0.72130  1.0000
  S   S216      1.0  0.56919  0.14637  0.82880  1.0000
  C   C942      1.0  0.47721  0.03821  0.65640  1.0000
  H   H1652     1.0  0.34292  0.12259  0.74932  1.0000
  H   H1653     1.0  0.59616  0.14203  0.49657  1.0000
  H   H1654     1.0  0.51917  0.03690  0.64008  1.0000
  H   H1655     1.0  0.44222  0.15979  0.60793  1.0000
  H   H1656     1.0  0.44815  0.17791  0.58545  1.0000
  H   H1657     1.0  0.54860  0.09424  0.70314  1.0000
  C   C943      1.0  0.50165  0.22426  0.96854  1.0000
  H   H1658     1.0  0.47863  0.18753  0.58910  1.0000
  C   C944      1.0  0.47284  0.22524  0.48367  1.0000
  C   C945      1.0  0.37276  0.14765  0.93532  1.0000
  C   C946      1.0  0.40016  0.16223  0.93073  1.0000
  C   C947      1.0  0.38902  0.16237  0.87663  1.0000
  H   H1659     1.0  0.65397  0.07528  0.64190  1.0000
  C   C948      1.0  0.41547  0.14676  0.92623  1.0000
  H   H1660     1.0  0.36804  0.12678  0.48787  1.0000
  C   C949      1.0  0.46804  0.19172  0.76279  1.0000
  H   H1661     1.0  0.38306  0.13920  0.92359  1.0000
  H   H1662     1.0  0.55738  0.06240  0.59583  1.0000
  S   S217      1.0  0.37700  0.15557  0.79326  1.0000
  H   H1663     1.0  0.40542  0.16207  0.87414  1.0000
  H   H1664     1.0  0.42121  0.03021  0.74096  1.0000
  H   H1665     1.0  0.33288  0.10386  0.79076  1.0000
  H   H1666     1.0  0.41495  0.14337  0.90776  1.0000
  H   H1667     1.0  0.41098  0.06105  0.62560  1.0000
  H   H1668     1.0  0.35080  0.12351  0.95815  1.0000
  H   H1669     1.0  0.48355  0.03990  0.63453  1.0000
  H   H1670     1.0  0.38471  0.19053  0.94130  1.0000
  N   N55       1.0  0.55411  0.14627  0.74698  1.0000
  C   C950      1.0  0.53753  0.14360  0.73583  1.0000
  C   C951      1.0  0.54474  0.15634  0.76755  1.0000
  C   C952      1.0  0.56733  0.15568  0.72427  1.0000
  C   C953      1.0  0.56725  0.13104  0.75867  1.0000
  C   C954      1.0  0.55718  0.11633  0.77124  1.0000
  C   C955      1.0  0.54471  0.13645  0.71049  1.0000
  C   C956      1.0  0.58352  0.16188  0.73210  1.0000
  C   C957      1.0  0.52906  0.14973  0.79178  1.0000
  C   C958      1.0  0.51901  0.16202  0.80893  1.0000
  C   C959      1.0  0.57176  0.10247  0.78457  1.0000
  C   C960      1.0  0.52806  0.12987  0.70533  1.0000
  C   C961      1.0  0.59800  0.16877  0.70736  1.0000
  H   H1671     1.0  0.52701  0.15504  0.73041  1.0000
  H   H1672     1.0  0.52801  0.13587  0.75111  1.0000
  H   H1673     1.0  0.55657  0.15838  0.77641  1.0000
  H   H1674     1.0  0.53739  0.16826  0.75765  1.0000
  H   H1675     1.0  0.55801  0.16600  0.71303  1.0000
  H   H1676     1.0  0.57563  0.14841  0.70939  1.0000
  H   H1677     1.0  0.58042  0.12725  0.74319  1.0000
  H   H1678     1.0  0.57416  0.13304  0.77409  1.0000
  H   H1679     1.0  0.55289  0.11230  0.75565  1.0000
  H   H1680     1.0  0.54338  0.11881  0.78642  1.0000
  H   H1681     1.0  0.54885  0.14584  0.69271  1.0000
  H   H1682     1.0  0.55817  0.12684  0.71222  1.0000
  H   H1683     1.0  0.59254  0.15218  0.74476  1.0000
  H   H1684     1.0  0.57630  0.17154  0.74304  1.0000
  H   H1685     1.0  0.51681  0.14650  0.78556  1.0000
  H   H1686     1.0  0.53668  0.13923  0.80478  1.0000
  H   H1687     1.0  0.53034  0.16477  0.81767  1.0000
  H   H1688     1.0  0.51169  0.17315  0.79688  1.0000
  H   H1689     1.0  0.50735  0.15723  0.82564  1.0000
  H   H1690     1.0  0.56459  0.09187  0.79246  1.0000
  H   H1691     1.0  0.58589  0.09946  0.76998  1.0000
  H   H1692     1.0  0.57564  0.10552  0.80151  1.0000
  H   H1693     1.0  0.53370  0.12499  0.68698  1.0000
  H   H1694     1.0  0.52362  0.12014  0.72232  1.0000
  H   H1695     1.0  0.51460  0.13939  0.70245  1.0000
  H   H1696     1.0  0.58957  0.17868  0.69418  1.0000
  H   H1697     1.0  0.60906  0.17342  0.71366  1.0000
  H   H1698     1.0  0.60637  0.15949  0.69598  1.0000
  N   N56       1.0  0.51148  0.17477  0.93408  1.0000
  C   C962      1.0  0.33985  0.01546  0.69244  1.0000
  C   C963      1.0  0.52101  0.18407  0.94622  1.0000
  C   C964      1.0  0.49464  0.18604  0.92147  1.0000
  C   C965      1.0  0.52673  0.16779  0.91234  1.0000
  H   H1699     1.0  0.49685  0.23523  0.57987  1.0000
  C   C966      1.0  0.50043  0.20106  0.90096  1.0000
  C   C967      1.0  0.65122  0.19118  0.87666  1.0000
  H   H1700     1.0  0.33905  0.20058  0.96181  1.0000
  H   H1701     1.0  0.47130  0.00704  0.67760  1.0000
  C   C968      1.0  0.48213  0.21170  0.89015  1.0000
  C   C969      1.0  0.55173  0.22066  0.91948  1.0000
  C   C970      1.0  0.37011  0.12150  0.52885  1.0000
  H   H1702     1.0  0.53238  0.19009  0.93063  1.0000
  C   C971      1.0  0.45424  0.22511  0.75927  1.0000
  H   H1703     1.0  0.48195  0.19009  0.93727  1.0000
  H   H1704     1.0  0.48822  0.17993  0.91057  1.0000
  H   H1705     1.0  0.51909  0.16329  0.90047  1.0000
  H   H1706     1.0  0.53414  0.17718  0.89757  1.0000
  H   H1707     1.0  0.64538  0.17419  0.58613  1.0000
  H   H1708     1.0  0.64448  0.00305  0.69994  1.0000
  H   H1709     1.0  0.51178  0.19775  0.88352  1.0000
  H   H1710     1.0  0.50656  0.20824  0.91019  1.0000
  S   S218      1.0  0.37202  0.21137  0.59339  1.0000
  C   C972      1.0  0.63068  0.01102  0.74754  1.0000
  C   C973      1.0  0.36824  0.16091  0.51858  1.0000
  H   H1711     1.0  0.66056  0.22933  0.82853  1.0000
  H   H1712     1.0  0.33489  0.17348  0.68294  1.0000
  S   S219      1.0  0.56987  0.00101  0.71527  1.0000
  C   C974      1.0  0.62956  0.18890  0.65555  1.0000
  C   C975      1.0  0.48827  0.22452  0.72882  1.0000
  H   H1713     1.0  0.48660  0.22264  0.87648  1.0000
  H   H1714     1.0  0.47638  0.20549  0.87872  1.0000
  H   H1715     1.0  0.46983  0.21510  0.90676  1.0000
  N   N57       1.0  0.59260  0.08821  0.63302  1.0000
  C   C976      1.0  0.59199  0.07595  0.61831  1.0000
  C   C977      1.0  0.61368  0.08609  0.63812  1.0000
  C   C978      1.0  0.57821  0.08541  0.65972  1.0000
  C   C979      1.0  0.58562  0.10491  0.61834  1.0000
  C   C980      1.0  0.59780  0.11033  0.58994  1.0000
  C   C981      1.0  0.57094  0.07535  0.61410  1.0000
  C   C982      1.0  0.57944  0.09446  0.68055  1.0000
  H   H1716     1.0  0.46936  0.22781  0.97859  1.0000
  C   C983      1.0  0.58720  0.12640  0.57594  1.0000
  C   C984      1.0  0.57263  0.06275  0.59840  1.0000
  C   C985      1.0  0.56432  0.09047  0.70663  1.0000
  H   H1717     1.0  0.59819  0.06393  0.62932  1.0000
  H   H1718     1.0  0.60205  0.07738  0.59833  1.0000
  H   H1719     1.0  0.61585  0.09715  0.64213  1.0000
  H   H1720     1.0  0.58050  0.07255  0.66921  1.0000
  H   H1721     1.0  0.56225  0.08876  0.65700  1.0000
  H   H1722     1.0  0.56943  0.10682  0.61714  1.0000
  H   H1723     1.0  0.58621  0.11359  0.62978  1.0000
  H   H1724     1.0  0.59971  0.10186  0.57707  1.0000
  H   H1725     1.0  0.61288  0.11181  0.59130  1.0000
  H   H1726     1.0  0.56064  0.07209  0.63354  1.0000
  H   H1727     1.0  0.56401  0.08693  0.60280  1.0000
  H   H1728     1.0  0.57586  0.10746  0.67293  1.0000
  H   H1729     1.0  0.59467  0.09133  0.68567  1.0000
  C   C986      1.0  0.63982  0.13651  0.84584  1.0000
  H   H1730     1.0  0.36084  0.17509  0.89640  1.0000
  Fe  Fe112     1.0  0.58537  0.01208  0.67458  1.0000
  H   H1731     1.0  0.57264  0.12538  0.57207  1.0000
  H   H1732     1.0  0.58424  0.13535  0.58832  1.0000
  C   C987      1.0  0.40555  0.13863  0.50540  1.0000
  S   S220      1.0  0.35873  0.09284  0.72555  1.0000
  Fe  Fe113     1.0  0.56381  0.20049  0.84190  1.0000
  H   H1733     1.0  0.52723  0.18797  0.71166  1.0000
  H   H1734     1.0  0.59354  0.03151  0.74989  1.0000
  S   S221      1.0  0.35626  0.19954  0.80011  1.0000
  H   H1735     1.0  0.38621  0.15012  0.88137  1.0000
  Fe  Fe114     1.0  0.36687  0.22564  0.55330  1.0000
  C   C988      1.0  0.46755  0.16738  0.61485  1.0000
  H   H1736     1.0  0.47828  0.15961  0.60206  1.0000
  H   H1737     1.0  0.49941  0.01641  0.66658  1.0000
  H   H1738     1.0  0.36162  0.21538  0.68764  1.0000
  H   H1739     1.0  0.36737  0.16812  0.65181  1.0000
  C   C989      1.0  0.63752  0.22919  0.59846  1.0000
  H   H1740     1.0  0.38021  0.11177  0.75150  1.0000
  H   H1741     1.0  0.35213  0.10597  0.52354  1.0000
  H   H1742     1.0  0.41587  0.12689  0.50542  1.0000
  H   H1743     1.0  0.63268  0.06777  0.61709  1.0000
  H   H1744     1.0  0.40684  0.17244  0.91764  1.0000
  C   C990      1.0  0.64806  0.18845  0.63289  1.0000
  C   C991      1.0  0.60751  0.23501  0.85699  1.0000
  H   H1745     1.0  0.51326  0.15382  0.96651  1.0000
  S   S222      1.0  0.58276  0.21404  0.80700  1.0000
  C   C992      1.0  0.59046  0.20215  0.91841  1.0000
  N   N58       1.0  0.47683  0.21961  0.75700  1.0000
  H   H1746     1.0  0.64510  0.18661  0.89812  1.0000
  H   H1747     1.0  0.58576  0.19509  0.88496  1.0000
  C   C993      1.0  0.64317  0.04846  0.68915  1.0000
  H   H1748     1.0  0.38238  0.18311  0.89244  1.0000
  H   H1749     1.0  0.65796  0.19535  0.63651  1.0000
  S   S223      1.0  0.64834  0.11995  0.72057  1.0000
  C   C994      1.0  0.36024  0.98977  0.71191  1.0000
  C   C995      1.0  0.36117  0.23002  0.64714  1.0000
  C   C996      1.0  0.60548  0.13345  0.65481  1.0000
  C   C997      1.0  0.64237  0.23098  0.62165  1.0000
  H   H1750     1.0  0.51302  0.16445  0.59985  1.0000
  H   H1751     1.0  0.61913  0.18179  0.65366  1.0000
  H   H1752     1.0  0.38937  0.15623  0.57834  1.0000
  S   S224      1.0  0.35757  0.11817  0.66807  1.0000
  C   C998      1.0  0.47564  0.18278  0.61116  1.0000
  H   H1753     1.0  0.50022  0.15563  0.63157  1.0000
  H   H1754     1.0  0.46161  0.17309  0.66851  1.0000
  H   H1755     1.0  0.44800  0.04539  0.69435  1.0000
  H   H1756     1.0  0.51016  0.21991  0.56194  1.0000
  C   C999      1.0  0.35804  0.15512  0.59494  1.0000
  H   H1757     1.0  0.53137  0.13650  0.63878  1.0000
  Fe  Fe115     1.0  0.36979  0.07381  0.70165  1.0000
  S   S225      1.0  0.40196  0.19885  0.97903  1.0000
  C   C1000     1.0  0.59266  0.11678  0.83506  1.0000
  H   H1758     1.0  0.55482  0.15974  0.92756  1.0000
  S   S226      1.0  0.62991  0.08738  0.73160  1.0000
  C   C1001     1.0  0.64593  0.03790  0.67241  1.0000
  H   H1759     1.0  0.37628  0.09586  0.53254  1.0000
  H   H1760     1.0  0.62250  0.21750  0.77196  1.0000
  C   C1002     1.0  0.54026  0.14606  0.62968  1.0000
  C   C1003     1.0  0.44551  0.04058  0.64240  1.0000
  C   C1004     1.0  0.50810  0.16563  0.62112  1.0000
  H   H1761     1.0  0.46291  0.19158  0.61943  1.0000
  H   H1762     1.0  0.46823  0.20345  0.51459  1.0000
  H   H1763     1.0  0.42925  0.03640  0.69052  1.0000
  H   H1764     1.0  0.44381  0.03587  0.74361  1.0000
  C   C1005     1.0  0.59068  0.13233  0.81989  1.0000
  H   H1765     1.0  0.61077  0.09319  0.83917  1.0000
  H   H1766     1.0  0.47745  0.19576  0.65120  1.0000
  C   C1006     1.0  0.63808  0.21769  0.77138  1.0000
  H   H1767     1.0  0.58151  0.12261  0.48445  1.0000
  Fe  Fe116     1.0  0.40492  0.20850  0.57448  1.0000
  H   H1768     1.0  0.55335  0.14350  0.63963  1.0000
  C   C1007     1.0  0.47486  0.17450  0.70001  1.0000
  C   C1008     1.0  0.54425  0.15456  0.92129  1.0000
  H   H1769     1.0  0.53878  0.14504  0.93776  1.0000
  H   H1770     1.0  0.39789  0.01538  0.72841  1.0000
  H   H1771     1.0  0.64590  0.18231  0.53750  1.0000
  S   S227      1.0  0.35056  0.17494  0.59750  1.0000
  H   H1772     1.0  0.36100  0.01026  0.64587  1.0000
  C   C1009     1.0  0.52731  0.16221  0.63320  1.0000
  C   C1010     1.0  0.43128  0.19191  0.86928  1.0000
  H   H1773     1.0  0.60319  0.20649  0.48386  1.0000
  S   S228      1.0  0.61225  0.23503  0.59381  1.0000
  N   N59       1.0  0.49412  0.18142  0.62258  1.0000
  C   C1011     1.0  0.47710  0.17182  0.67196  1.0000
  C   C1012     1.0  0.53097  0.17491  0.97056  1.0000
  H   H1774     1.0  0.60539  0.19485  0.91805  1.0000
  H   H1775     1.0  0.45101  0.06479  0.63596  1.0000
  C   C1013     1.0  0.43762  0.02608  0.74110  1.0000
  C   C1014     1.0  0.35088  0.22031  0.67373  1.0000
  C   C1015     1.0  0.60924  0.10520  0.82737  1.0000
  S   S229      1.0  0.63799  0.19079  0.81149  1.0000
  C   C1016     1.0  0.65691  0.14869  0.79914  1.0000
  H   H1776     1.0  0.53696  0.17114  0.62331  1.0000
  H   H1777     1.0  0.48968  0.02754  0.69278  1.0000
  H   H1778     1.0  0.37432  0.14231  0.95650  1.0000
  H   H1779     1.0  0.60953  0.01049  0.72325  1.0000
  H   H1780     1.0  0.33963  0.15306  0.94841  1.0000
  H   H1781     1.0  0.51206  0.19169  0.58505  1.0000
  H   H1782     1.0  0.48994  0.17284  0.70503  1.0000
  H   H1783     1.0  0.48891  0.21538  0.62108  1.0000
  H   H1784     1.0  0.60396  0.14828  0.78545  1.0000
  S   S230      1.0  0.61017  0.99086  0.67070  1.0000
  C   C1017     1.0  0.62185  0.12825  0.63559  1.0000
  Fe  Fe117     1.0  0.37909  0.18137  0.78011  1.0000
  C   C1018     1.0  0.59236  0.01888  0.75829  1.0000
  C   C1019     1.0  0.48802  0.18420  0.65067  1.0000
  H   H1785     1.0  0.52319  0.16206  0.65494  1.0000
  H   H1786     1.0  0.64959  0.22352  0.55979  1.0000
  C   C1020     1.0  0.54421  0.18446  0.97653  1.0000
  Fe  Fe118     1.0  0.63134  0.10976  0.70043  1.0000
  H   H1787     1.0  0.42060  0.19433  0.83301  1.0000
  C   C1021     1.0  0.42761  0.19686  0.89347  1.0000
  C   C1022     1.0  0.41896  0.15144  0.49507  1.0000
  C   C1023     1.0  0.38323  0.17047  0.84959  1.0000
  H   H1788     1.0  0.57846  0.17501  0.48855  1.0000
  H   H1789     1.0  0.37119  0.12547  0.78944  1.0000
  C   C1024     1.0  0.50555  0.19419  0.60540  1.0000
  S   S231      1.0  0.58779  0.17866  0.84669  1.0000
  H   H1790     1.0  0.39298  0.16413  0.83406  1.0000
  C   C1025     1.0  0.43804  0.05860  0.64134  1.0000
  C   C1026     1.0  0.36882  0.19090  0.94070  1.0000
  S   S232      1.0  0.39983  0.22446  0.53514  1.0000
  H   H1791     1.0  0.46622  0.16595  0.71490  1.0000
  S   S233      1.0  0.59544  0.18206  0.78142  1.0000
  H   H1792     1.0  0.49105  0.16814  0.97136  1.0000
  C   C1027     1.0  0.60532  0.13629  0.79710  1.0000
  N   N60       1.0  0.64968  0.99919  0.73999  1.0000
  C   C1028     1.0  0.34782  0.13033  0.93820  1.0000
  S   S234      1.0  0.40631  0.18957  0.78336  1.0000
  H   H1793     1.0  0.66103  0.03327  0.66266  1.0000
  H   H1794     1.0  0.47941  0.21261  0.59430  1.0000
  C   C1029     1.0  0.62343  0.10899  0.80394  1.0000
  H   H1795     1.0  0.51860  0.19436  0.61383  1.0000
  C   C1030     1.0  0.41779  0.19825  0.85153  1.0000
  H   H1796     1.0  0.66453  0.07719  0.60673  1.0000
  H   H1797     1.0  0.62966  0.14813  0.84739  1.0000
  H   H1798     1.0  0.65957  0.16104  0.72636  1.0000
  H   H1799     1.0  0.46907  0.99713  0.52468  1.0000
  C   C1031     1.0  0.46210  0.01430  0.66266  1.0000
  H   H1800     1.0  0.46662  0.16723  0.76597  1.0000
  H   H1801     1.0  0.46646  0.18668  0.70126  1.0000
  H   H1802     1.0  0.66054  0.18977  0.71425  1.0000
  C   C1032     1.0  0.62145  0.12455  0.78881  1.0000
  C   C1033     1.0  0.49040  0.15251  0.94660  1.0000
  H   H1803     1.0  0.49194  0.17124  0.75658  1.0000
  C   C1034     1.0  0.49329  0.21145  0.60184  1.0000
  C   C1035     1.0  0.38015  0.12572  0.49892  1.0000
  H   H1804     1.0  0.62135  0.20135  0.65486  1.0000
  S   S235      1.0  0.64352  0.09420  0.79385  1.0000
  C   C1036     1.0  0.61031  0.15053  0.60171  1.0000
  S   S236      1.0  0.37761  0.19550  0.73843  1.0000
  Fe  Fe119     1.0  0.40291  0.20527  0.74317  1.0000
  C   C1037     1.0  0.41054  0.20830  0.89973  1.0000
  S   S237      1.0  0.66431  0.05396  0.69431  1.0000
  C   C1038     1.0  0.48455  0.13869  0.96922  1.0000
  S   S238      1.0  0.42953  0.21390  0.58962  1.0000
  C   C1039     1.0  0.39726  0.21482  0.88182  1.0000
  C   C1040     1.0  0.42978  0.15224  0.51643  1.0000
  Fe  Fe120     1.0  0.60585  0.19164  0.80993  1.0000
  C   C1041     1.0  0.55646  0.14677  0.89820  1.0000
  C   C1042     1.0  0.64896  0.20610  0.78884  1.0000
  C   C1043     1.0  0.44573  0.03433  0.69035  1.0000
  H   H1805     1.0  0.63277  0.11780  0.64120  1.0000
  H   H1806     1.0  0.35646  0.13055  0.53356  1.0000
  C   C1044     1.0  0.42778  0.21195  0.67750  1.0000
  C   C1045     1.0  0.41492  0.20413  0.67117  1.0000
  H   H1807     1.0  0.56781  0.98813  0.60054  1.0000
  H   H1808     1.0  0.36572  0.19822  0.92109  1.0000
  C   C1046     1.0  0.50594  0.22227  0.77743  1.0000
  H   H1809     1.0  0.45297  0.19374  0.77617  1.0000
  H   H1810     1.0  0.47503  0.23189  0.53169  1.0000
  C   C1047     1.0  0.42490  0.06614  0.62027  1.0000
  H   H1811     1.0  0.47393  0.05029  0.66061  1.0000
  S   S239      1.0  0.34617  0.08309  0.67616  1.0000
  S   S240      1.0  0.60021  0.20965  0.54687  1.0000
  C   C1048     1.0  0.62409  0.13664  0.60889  1.0000
  C   C1049     1.0  0.44007  0.22079  0.65687  1.0000
  H   H1812     1.0  0.33573  0.18311  0.77761  1.0000
  S   S241      1.0  0.40610  0.18616  0.56133  1.0000
  H   H1813     1.0  0.56827  0.21439  0.65236  1.0000
  S   S242      1.0  0.59537  0.19463  0.61182  1.0000
  H   H1814     1.0  0.43957  0.16126  0.50804  1.0000
  S   S243      1.0  0.61430  0.16245  0.56958  1.0000
  H   H1815     1.0  0.43830  0.99589  0.55840  1.0000
  H   H1816     1.0  0.56260  0.15575  0.88115  1.0000
  H   H1817     1.0  0.49312  0.98862  0.64958  1.0000
  H   H1818     1.0  0.47200  0.21271  0.55236  1.0000
  H   H1819     1.0  0.43945  0.01601  0.75846  1.0000
  H   H1820     1.0  0.64745  0.16550  0.62838  1.0000
  H   H1821     1.0  0.49780  0.19709  0.75803  1.0000
  H   H1822     1.0  0.44086  0.01310  0.58672  1.0000
  C   C1050     1.0  0.66006  0.13889  0.82729  1.0000
  H   H1823     1.0  0.63258  0.12763  0.77106  1.0000
  Fe  Fe121     1.0  0.35734  0.21452  0.75850  1.0000
  H   H1824     1.0  0.47621  0.16000  0.94085  1.0000
  H   H1825     1.0  0.62641  0.21463  0.90176  1.0000
  Fe  Fe122     1.0  0.37250  0.19077  0.57628  1.0000
  C   C1051     1.0  0.43965  0.22181  0.63013  1.0000
  C   C1052     1.0  0.42720  0.21379  0.62363  1.0000
  H   H1826     1.0  0.33577  0.16799  0.52080  1.0000
  H   H1827     1.0  0.48820  0.20552  0.70967  1.0000
  H   H1828     1.0  0.64994  0.21978  0.88429  1.0000
  H   H1829     1.0  0.48550  0.01623  0.62549  1.0000
  C   C1053     1.0  0.48190  0.20179  0.76702  1.0000
  H   H1830     1.0  0.64637  0.14353  0.79271  1.0000
  H   H1831     1.0  0.48117  0.19879  0.78908  1.0000
  H   H1832     1.0  0.49392  0.21445  0.52583  1.0000
  H   H1833     1.0  0.64282  0.19450  0.61391  1.0000
  H   H1834     1.0  0.45678  0.23665  0.93263  1.0000
  Fe  Fe123     1.0  0.59607  0.21848  0.58457  1.0000
  H   H1835     1.0  0.63529  0.18640  0.71842  1.0000
  H   H1836     1.0  0.34878  0.17581  0.94234  1.0000
  C   C1054     1.0  0.49447  0.02843  0.67094  1.0000
  C   C1055     1.0  0.65419  0.16791  0.74237  1.0000
  H   H1837     1.0  0.63043  0.08725  0.59603  1.0000
  H   H1838     1.0  0.64376  0.21028  0.84418  1.0000
  H   H1839     1.0  0.63231  0.12940  0.83824  1.0000
  H   H1840     1.0  0.43865  0.15192  0.94219  1.0000
  H   H1841     1.0  0.40006  0.16295  0.95155  1.0000
  H   H1842     1.0  0.40563  0.19704  0.68696  1.0000
  C   C1056     1.0  0.41466  0.20502  0.64418  1.0000
  S   S244      1.0  0.65892  0.09956  0.67352  1.0000
  C   C1057     1.0  0.37921  0.13089  0.77019  1.0000
  H   H1843     1.0  0.38051  0.16647  0.51993  1.0000
  C   C1058     1.0  0.50582  0.22297  0.58192  1.0000
  H   H1844     1.0  0.50922  0.04837  0.66588  1.0000
  C   C1059     1.0  0.64766  0.18526  0.72896  1.0000
  H   H1845     1.0  0.33753  0.22783  0.68359  1.0000
  H   H1846     1.0  0.42273  0.22975  0.95461  1.0000
  C   C1060     1.0  0.65180  0.08204  0.62159  1.0000
  H   H1847     1.0  0.37688  0.99178  0.65722  1.0000
  Fe  Fe124     1.0  0.55241  0.99273  0.69303  1.0000
  S   S245      1.0  0.44771  0.20068  0.98154  1.0000
  C   C1061     1.0  0.47748  0.21908  0.53172  1.0000
  H   H1848     1.0  0.44761  0.00984  0.66874  1.0000
  H   H1849     1.0  0.57615  0.22406  0.68773  1.0000
  C   C1062     1.0  0.56714  0.18577  0.48665  1.0000
  H   H1850     1.0  0.57392  0.19328  0.51853  1.0000
  C   C1063     1.0  0.44885  0.02074  0.71521  1.0000
  H   H1851     1.0  0.66153  0.16486  0.65224  1.0000
  H   H1852     1.0  0.41197  0.13684  0.94339  1.0000
  H   H1853     1.0  0.43205  0.03520  0.64546  1.0000
  Fe  Fe125     1.0  0.38350  0.20877  0.80047  1.0000
  N   N61       1.0  0.34189  0.99756  0.69964  1.0000
  C   C1064     1.0  0.40076  0.20979  0.85776  1.0000
  H   H1854     1.0  0.34847  0.99756  0.61808  1.0000
  S   S246      1.0  0.59799  0.21274  0.95818  1.0000
  H   H1855     1.0  0.40522  0.19858  0.63933  1.0000
  C   C1065     1.0  0.56457  0.19611  0.50370  1.0000
  H   H1856     1.0  0.62249  0.20335  0.86703  1.0000
  H   H1857     1.0  0.50165  0.22502  0.81846  1.0000
  S   S247      1.0  0.56604  0.00545  0.65231  1.0000
  H   H1858     1.0  0.65744  0.02860  0.74936  1.0000
  H   H1859     1.0  0.35717  0.19802  0.66077  1.0000
  H   H1860     1.0  0.40764  0.21225  0.91823  1.0000
  H   H1861     1.0  0.34609  0.17748  0.53929  1.0000
  C   C1066     1.0  0.45396  0.00964  0.57104  1.0000
  H   H1862     1.0  0.63431  0.18412  0.67510  1.0000
  C   C1067     1.0  0.65313  0.22438  0.57808  1.0000
  H   H1863     1.0  0.33606  0.20012  0.68849  1.0000
  Fe  Fe126     1.0  0.64971  0.09640  0.74943  1.0000
  C   C1068     1.0  0.33871  0.15040  0.71200  1.0000
  H   H1864     1.0  0.50936  0.19372  0.95381  1.0000
  H   H1865     1.0  0.46496  0.01654  0.71649  1.0000
  C   C1069     1.0  0.34361  0.14541  0.60415  1.0000
  H   H1866     1.0  0.64813  0.16048  0.80229  1.0000
  H   H1867     1.0  0.49969  0.14748  0.92937  1.0000
  Fe  Fe127     1.0  0.39851  0.20238  0.52323  1.0000
  C   C1070     1.0  0.66265  0.22775  0.62464  1.0000
  C   C1071     1.0  0.63475  0.21939  0.88141  1.0000
  Fe  Fe128     1.0  0.65868  0.07758  0.70604  1.0000
  H   H1868     1.0  0.63683  0.13272  0.59405  1.0000
  C   C1072     1.0  0.45267  0.99398  0.56543  1.0000
  H   H1869     1.0  0.37604  0.22258  0.64057  1.0000
  C   C1073     1.0  0.51304  0.03626  0.66178  1.0000
  S   S248      1.0  0.54815  0.22386  0.52104  1.0000
  H   H1870     1.0  0.38847  0.23392  0.66935  1.0000
  H   H1871     1.0  0.56935  0.13768  0.90475  1.0000
  S   S249      1.0  0.38348  0.21831  0.83621  1.0000
  S   S250      1.0  0.36505  0.20525  0.53735  1.0000
  C   C1074     1.0  0.63177  0.08050  0.61649  1.0000
  H   H1872     1.0  0.36147  0.00576  0.73634  1.0000
  H   H1873     1.0  0.43931  0.14057  0.52313  1.0000
  S   S251      1.0  0.38270  0.22533  0.76048  1.0000
  C   C1075     1.0  0.64809  0.99296  0.71678  1.0000
  H   H1874     1.0  0.44947  0.22078  0.52011  1.0000
  H   H1875     1.0  0.48697  0.98948  0.61818  1.0000
  C   C1076     1.0  0.65886  0.17113  0.63186  1.0000
  H   H1876     1.0  0.59173  0.01615  0.78020  1.0000
  H   H1877     1.0  0.33334  0.21079  0.65508  1.0000
  N   N62       1.0  0.45801  0.03166  0.66328  1.0000
  H   H1878     1.0  0.37564  0.99529  0.61025  1.0000
  H   H1879     1.0  0.44639  0.22130  0.78038  1.0000
  H   H1880     1.0  0.64188  0.19270  0.74414  1.0000
  H   H1881     1.0  0.37399  0.99357  0.69839  1.0000
  C   C1077     1.0  0.37326  0.15515  0.49195  1.0000
  H   H1882     1.0  0.65947  0.14569  0.60613  1.0000
  H   H1883     1.0  0.46809  0.00842  0.57819  1.0000
  H   H1884     1.0  0.65224  0.18199  0.86540  1.0000
  H   H1885     1.0  0.35896  0.15357  0.48798  1.0000
  H   H1886     1.0  0.51972  0.22265  0.58894  1.0000
  H   H1887     1.0  0.44826  0.21940  0.74739  1.0000
  H   H1888     1.0  0.34583  0.99122  0.75384  1.0000
  S   S252      1.0  0.37863  0.04806  0.72128  1.0000
  H   H1889     1.0  0.48665  0.23764  0.72280  1.0000
  H   H1890     1.0  0.36638  0.15117  0.53635  1.0000
  S   S253      1.0  0.51897  0.99464  0.70858  1.0000
  C   C1078     1.0  0.36316  0.10563  0.53579  1.0000
  H   H1891     1.0  0.54050  0.16337  0.96767  1.0000
  C   C1079     1.0  0.51014  0.22957  0.79819  1.0000
  H   H1892     1.0  0.35856  0.21145  0.95873  1.0000
  H   H1893     1.0  0.47541  0.17375  0.48579  1.0000
  H   H1894     1.0  0.55675  0.22798  0.95286  1.0000
  H   H1895     1.0  0.44999  0.22689  0.66156  1.0000
  C   C1080     1.0  0.63736  0.20639  0.86556  1.0000
  H   H1896     1.0  0.48471  0.99060  0.54855  1.0000
  H   H1897     1.0  0.49829  0.13002  0.97409  1.0000
  H   H1898     1.0  0.33195  0.13044  0.93751  1.0000
  H   H1899     1.0  0.64233  0.13005  0.86614  1.0000
  H   H1900     1.0  0.50346  0.22192  0.94838  1.0000
  H   H1901     1.0  0.47497  0.13256  0.96297  1.0000
  H   H1902     1.0  0.66433  0.13846  0.63942  1.0000
  C   C1081     1.0  0.34711  0.16414  0.69047  1.0000
  C   C1082     1.0  0.34469  0.99192  0.67410  1.0000
  H   H1903     1.0  0.38414  0.22378  0.88667  1.0000
  H   H1904     1.0  0.33353  0.14311  0.70165  1.0000
  Fe  Fe129     1.0  0.33681  0.10330  0.69757  1.0000
  C   C1083     1.0  0.47095  0.98859  0.54397  1.0000
  H   H1905     1.0  0.53683  0.22798  0.91970  1.0000
  H   H1906     1.0  0.44920  0.22875  0.61438  1.0000
  H   H1907     1.0  0.50476  0.22011  0.72768  1.0000
  C   C1084     1.0  0.48074  0.99230  0.63820  1.0000
  H   H1908     1.0  0.35799  0.12428  0.92251  1.0000
  C   C1085     1.0  0.34875  0.17327  0.52051  1.0000
  C   C1086     1.0  0.64761  0.22928  0.75241  1.0000
  H   H1909     1.0  0.47392  0.22518  0.79544  1.0000
  H   H1910     1.0  0.51585  0.22644  0.75810  1.0000
  C   C1087     1.0  0.48300  0.21855  0.70688  1.0000
  H   H1911     1.0  0.33600  0.17387  0.73673  1.0000
  H   H1912     1.0  0.33279  0.02062  0.67449  1.0000
  S   S254      1.0  0.33341  0.23124  0.73732  1.0000
  H   H1913     1.0  0.64960  0.19793  0.55045  1.0000
  H   H1914     1.0  0.46660  0.22162  0.70699  1.0000
  H   H1915     1.0  0.63368  0.23151  0.92266  1.0000
  H   H1916     1.0  0.49063  0.22075  0.66386  1.0000
  H   H1917     1.0  0.52655  0.22640  0.79858  1.0000
  H   H1918     1.0  0.51413  0.22995  0.96881  1.0000
  C   C1088     1.0  0.48118  0.23473  0.97623  1.0000
  C   C1089     1.0  0.35988  0.99329  0.73918  1.0000
  C   C1090     1.0  0.66016  0.17407  0.57211  1.0000
  C   C1091     1.0  0.65651  0.18599  0.54626  1.0000
  H   H1919     1.0  0.34386  0.04403  0.70204  1.0000
  H   H1920     1.0  0.33840  0.12155  0.61355  1.0000
  C   C1092     1.0  0.48336  0.22738  0.77488  1.0000
  H   H1921     1.0  0.63040  0.23500  0.63727  1.0000
  C   C1093     1.0  0.56297  0.22067  0.93822  1.0000
  H   H1922     1.0  0.61364  0.22884  0.84013  1.0000
  H   H1923     1.0  0.51031  0.22357  0.67770  1.0000
  C   C1094     1.0  0.49370  0.22595  0.67904  1.0000
  H   H1924     1.0  0.59707  0.22761  0.87144  1.0000
  H   H1925     1.0  0.35802  0.19278  0.98245  1.0000
  H   H1926     1.0  0.37330  0.20305  0.48295  1.0000
  S   S255      1.0  0.41608  0.19588  0.48415  1.0000
  H   H1927     1.0  0.65745  0.35899  0.29091  1.0000
  C   C1095     1.0  0.47857  0.25575  0.40099  1.0000
  C   C1096     1.0  0.41584  0.25297  0.31487  1.0000
  C   C1097     1.0  0.62820  0.29163  0.13060  1.0000
  C   C1098     1.0  0.42783  0.28886  0.22519  1.0000
  C   C1099     1.0  0.63653  0.34917  0.21856  1.0000
  Fe  Fe130     1.0  0.54009  0.30803  0.18391  1.0000
  S   S256      1.0  0.56904  0.30847  0.15328  1.0000
  S   S257      1.0  0.50884  0.31819  0.17410  1.0000
  Fe  Fe131     1.0  0.58139  0.31509  0.18386  1.0000
  S   S258      1.0  0.55140  0.31704  0.21249  1.0000
  Fe  Fe132     1.0  0.38424  0.29511  0.13364  1.0000
  S   S259      1.0  0.36784  0.27517  0.15532  1.0000
  S   S260      1.0  0.36650  0.31557  0.10798  1.0000
  Fe  Fe133     1.0  0.42250  0.27906  0.15616  1.0000
  S   S261      1.0  0.40831  0.25836  0.18014  1.0000
  S   S262      1.0  0.45516  0.27336  0.16116  1.0000
  Fe  Fe134     1.0  0.39730  0.25920  0.14340  1.0000
  C   C1100     1.0  0.47904  0.28693  0.08819  1.0000
  Fe  Fe135     1.0  0.38045  0.27617  0.18964  1.0000
  S   S263      1.0  0.36095  0.27487  0.23046  1.0000
  S   S264      1.0  0.41293  0.27895  0.11842  1.0000
  S   S265      1.0  0.39524  0.29706  0.16909  1.0000
  C   C1101     1.0  0.64687  0.29616  0.13468  1.0000
  N   N63       1.0  0.50578  0.25122  0.25831  1.0000
  H   H1928     1.0  0.33331  0.30923  0.21322  1.0000
  H   H1929     1.0  0.44823  0.25417  0.30047  1.0000
  C   C1102     1.0  0.43854  0.24666  0.31590  1.0000
  H   H1930     1.0  0.33481  0.37314  0.06254  1.0000
  H   H1931     1.0  0.33247  0.25219  0.12694  1.0000
  H   H1932     1.0  0.38901  0.25930  0.08825  1.0000
  C   C1103     1.0  0.49337  0.30563  0.17212  1.0000
  C   C1104     1.0  0.50009  0.28923  0.17593  1.0000
  C   C1105     1.0  0.48784  0.27955  0.17323  1.0000
  C   C1106     1.0  0.46887  0.28615  0.16641  1.0000
  C   C1107     1.0  0.46190  0.30251  0.16300  1.0000
  C   C1108     1.0  0.47414  0.31222  0.16587  1.0000
  H   H1933     1.0  0.51498  0.28405  0.18014  1.0000
  H   H1934     1.0  0.49337  0.26691  0.17555  1.0000
  H   H1935     1.0  0.44729  0.30772  0.15770  1.0000
  H   H1936     1.0  0.46885  0.32492  0.16285  1.0000
  H   H1937     1.0  0.33653  0.40072  0.12916  1.0000
  C   C1109     1.0  0.55655  0.25443  0.31210  1.0000
  H   H1938     1.0  0.62025  0.33499  0.25299  1.0000
  C   C1110     1.0  0.35679  0.25550  0.24402  1.0000
  Fe  Fe136     1.0  0.57298  0.24085  0.03600  1.0000
  H   H1939     1.0  0.64018  0.28625  0.17684  1.0000
  C   C1111     1.0  0.42213  0.26844  0.26856  1.0000
  H   H1940     1.0  0.37563  0.34636  0.12090  1.0000
  H   H1941     1.0  0.40356  0.25067  0.46176  1.0000
  H   H1942     1.0  0.54289  0.27432  0.11256  1.0000
  C   C1112     1.0  0.36403  0.36411  0.08822  1.0000
  H   H1943     1.0  0.51863  0.25750  0.29996  1.0000
  H   H1944     1.0  0.64950  0.35118  0.32616  1.0000
  H   H1945     1.0  0.51965  0.27263  0.13515  1.0000
  C   C1113     1.0  0.61443  0.33964  0.18899  1.0000
  C   C1114     1.0  0.41571  0.24091  0.27853  1.0000
  H   H1946     1.0  0.41166  0.26391  0.32296  1.0000
  H   H1947     1.0  0.45843  0.27034  0.10384  1.0000
  H   H1948     1.0  0.45696  0.25528  0.43785  1.0000
  H   H1949     1.0  0.58330  0.28804  0.11219  1.0000
  C   C1115     1.0  0.34515  0.32778  0.15176  1.0000
  C   C1116     1.0  0.34514  0.32624  0.12612  1.0000
  C   C1117     1.0  0.34627  0.24535  0.13456  1.0000
  H   H1950     1.0  0.39282  0.34782  0.08910  1.0000
  H   H1951     1.0  0.52670  0.24386  0.15925  1.0000
  H   H1952     1.0  0.35823  0.32227  0.16071  1.0000
  H   H1953     1.0  0.50109  0.26501  0.08600  1.0000
  H   H1954     1.0  0.43843  0.24224  0.47441  1.0000
  N   N64       1.0  0.51663  0.28111  0.09393  1.0000
  H   H1955     1.0  0.46055  0.25888  0.03824  1.0000
  C   C1118     1.0  0.53005  0.28020  0.06696  1.0000
  C   C1119     1.0  0.62809  0.34994  0.17618  1.0000
  H   H1956     1.0  0.53241  0.25360  0.20852  1.0000
  H   H1957     1.0  0.50851  0.32496  0.11596  1.0000
  H   H1958     1.0  0.62790  0.25663  0.37447  1.0000
  C   C1120     1.0  0.49767  0.27479  0.09694  1.0000
  H   H1959     1.0  0.64949  0.31534  0.20123  1.0000
  H   H1960     1.0  0.51553  0.30222  0.04257  1.0000
  H   H1961     1.0  0.37969  0.25240  0.30338  1.0000
  H   H1962     1.0  0.38863  0.36294  0.10794  1.0000
  H   H1963     1.0  0.47569  0.25944  0.24958  1.0000
  H   H1964     1.0  0.39924  0.28799  0.25202  1.0000
  H   H1965     1.0  0.53469  0.26768  0.06469  1.0000
  C   C1121     1.0  0.62265  0.33906  0.23148  1.0000
  H   H1966     1.0  0.54864  0.26178  0.32628  1.0000
  S   S266      1.0  0.59200  0.26184  0.15675  1.0000
  H   H1967     1.0  0.62705  0.29740  0.21690  1.0000
  H   H1968     1.0  0.50378  0.30618  0.08280  1.0000
  H   H1969     1.0  0.64862  0.30767  0.12068  1.0000
  H   H1970     1.0  0.42086  0.29663  0.20837  1.0000
  H   H1971     1.0  0.64174  0.38041  0.31461  1.0000
  C   C1122     1.0  0.56203  0.26149  0.28497  1.0000
  C   C1123     1.0  0.64245  0.29315  0.24920  1.0000
  H   H1972     1.0  0.33932  0.31998  0.24794  1.0000
  H   H1973     1.0  0.40757  0.27272  0.23353  1.0000
  H   H1974     1.0  0.50836  0.28426  0.04098  1.0000
  H   H1975     1.0  0.54435  0.28409  0.06531  1.0000
  H   H1976     1.0  0.34733  0.27646  0.30884  1.0000
  Fe  Fe137     1.0  0.57841  0.28337  0.17467  1.0000
  H   H1977     1.0  0.54592  0.25015  0.09941  1.0000
  C   C1124     1.0  0.36347  0.24404  0.22843  1.0000
  C   C1125     1.0  0.35805  0.28476  0.30016  1.0000
  C   C1126     1.0  0.52883  0.30489  0.10104  1.0000
  C   C1127     1.0  0.37922  0.27654  0.30501  1.0000
  C   C1128     1.0  0.47226  0.24872  0.43080  1.0000
  H   H1978     1.0  0.43945  0.25848  0.34685  1.0000
  H   H1979     1.0  0.46755  0.25474  0.38977  1.0000
  C   C1129     1.0  0.53283  0.24115  0.21967  1.0000
  C   C1130     1.0  0.38130  0.35478  0.10250  1.0000
  C   C1131     1.0  0.58460  0.27702  0.10635  1.0000
  C   C1132     1.0  0.44458  0.26206  0.03567  1.0000
  H   H1980     1.0  0.34905  0.39622  0.05629  1.0000
  H   H1981     1.0  0.35844  0.35545  0.08143  1.0000
  H   H1982     1.0  0.43741  0.26230  0.26004  1.0000
  H   H1983     1.0  0.54975  0.29367  0.01612  1.0000
  H   H1984     1.0  0.49014  0.25399  0.33855  1.0000
  C   C1133     1.0  0.52523  0.24006  0.25020  1.0000
  H   H1985     1.0  0.44897  0.24568  0.10317  1.0000
  C   C1134     1.0  0.65809  0.31349  0.38164  1.0000
  C   C1135     1.0  0.53664  0.28855  0.01631  1.0000
  C   C1136     1.0  0.55388  0.24108  0.41381  1.0000
  H   H1986     1.0  0.53451  0.32712  0.10444  1.0000
  H   H1987     1.0  0.54206  0.30334  0.08458  1.0000
  C   C1137     1.0  0.59101  0.24835  0.11624  1.0000
  C   C1138     1.0  0.52095  0.28951  0.04215  1.0000
  H   H1988     1.0  0.62196  0.25443  0.34428  1.0000
  H   H1989     1.0  0.57906  0.28840  0.06671  1.0000
  H   H1990     1.0  0.61454  0.30074  0.13522  1.0000
  S   S267      1.0  0.59287  0.28979  0.20302  1.0000
  C   C1139     1.0  0.58223  0.27720  0.08059  1.0000
  C   C1140     1.0  0.44285  0.25720  0.01078  1.0000
  H   H1991     1.0  0.57657  0.25738  0.24568  1.0000
  C   C1141     1.0  0.58897  0.26257  0.12427  1.0000
  Fe  Fe138     1.0  0.56211  0.29128  0.22962  1.0000
  C   C1142     1.0  0.58354  0.26298  0.07294  1.0000
  S   S268      1.0  0.55545  0.28213  0.27435  1.0000
  H   H1992     1.0  0.35263  0.29506  0.30994  1.0000
  H   H1993     1.0  0.63013  0.29080  0.10947  1.0000
  C   C1143     1.0  0.34760  0.25129  0.27093  1.0000
  H   H1994     1.0  0.38974  0.25744  0.04189  1.0000
  S   S269      1.0  0.57877  0.26359  0.04139  1.0000
  H   H1995     1.0  0.59615  0.24716  0.39787  1.0000
  C   C1144     1.0  0.51000  0.26785  0.25094  1.0000
  C   C1145     1.0  0.41262  0.27937  0.24481  1.0000
  H   H1996     1.0  0.63010  0.35435  0.15475  1.0000
  C   C1146     1.0  0.66070  0.35750  0.31104  1.0000
  H   H1997     1.0  0.38917  0.28544  0.29776  1.0000
  C   C1147     1.0  0.49355  0.28054  0.26343  1.0000
  H   H1998     1.0  0.35534  0.42765  0.05569  1.0000
  H   H1999     1.0  0.39602  0.24772  0.24881  1.0000
  H   H2000     1.0  0.47010  0.27162  0.06887  1.0000
  C   C1148     1.0  0.49911  0.29695  0.25268  1.0000
  H   H2001     1.0  0.51211  0.27229  0.22893  1.0000
  H   H2002     1.0  0.52454  0.26805  0.25604  1.0000
  H   H2003     1.0  0.45880  0.24110  0.34379  1.0000
  H   H2004     1.0  0.51902  0.32924  0.08047  1.0000
  H   H2005     1.0  0.52035  0.24801  0.11447  1.0000
  H   H2006     1.0  0.65872  0.31375  0.40233  1.0000
  H   H2007     1.0  0.66097  0.30090  0.38004  1.0000
  H   H2008     1.0  0.49457  0.25547  0.22187  1.0000
  H   H2009     1.0  0.53506  0.24645  0.38390  1.0000
  H   H2010     1.0  0.37035  0.37255  0.07037  1.0000
  H   H2011     1.0  0.47865  0.28124  0.25873  1.0000
  C   C1149     1.0  0.53325  0.25271  0.11609  1.0000
  H   H2012     1.0  0.42491  0.27662  0.27943  1.0000
  H   H2013     1.0  0.45022  0.28739  0.07894  1.0000
  C   C1150     1.0  0.57222  0.25199  0.26663  1.0000
  H   H2014     1.0  0.43324  0.23891  0.35941  1.0000
  H   H2015     1.0  0.43265  0.29643  0.23522  1.0000
  H   H2016     1.0  0.40710  0.24427  0.32947  1.0000
  H   H2017     1.0  0.48288  0.25087  0.44149  1.0000
  H   H2018     1.0  0.49200  0.27790  0.28548  1.0000
  H   H2019     1.0  0.48733  0.30586  0.26203  1.0000
  H   H2020     1.0  0.51382  0.29700  0.25733  1.0000
  H   H2021     1.0  0.50019  0.30053  0.23067  1.0000
  S   S270      1.0  0.65008  0.35483  0.23781  1.0000
  C   C1151     1.0  0.63926  0.35453  0.19080  1.0000
  H   H2022     1.0  0.35973  0.24908  0.12024  1.0000
  H   H2023     1.0  0.49218  0.26930  0.11830  1.0000
  C   C1152     1.0  0.51122  0.29779  0.09863  1.0000
  C   C1153     1.0  0.46351  0.27850  0.08476  1.0000
  C   C1154     1.0  0.58800  0.24854  0.09081  1.0000
  H   H2024     1.0  0.37807  0.27243  0.32701  1.0000
  H   H2025     1.0  0.49981  0.29822  0.11754  1.0000
  C   C1155     1.0  0.49829  0.24617  0.28798  1.0000
  H   H2026     1.0  0.44858  0.24429  0.01334  1.0000
  S   S271      1.0  0.60166  0.33361  0.16924  1.0000
  C   C1156     1.0  0.53983  0.24343  0.14228  1.0000
  H   H2027     1.0  0.47164  0.29397  0.10375  1.0000
  H   H2028     1.0  0.47905  0.26849  0.39798  1.0000
  C   C1157     1.0  0.61175  0.33421  0.21677  1.0000
  H   H2029     1.0  0.60119  0.32638  0.22693  1.0000
  S   S272      1.0  0.54878  0.28251  0.20320  1.0000
  N   N65       1.0  0.41035  0.25640  0.28769  1.0000
  H   H2030     1.0  0.44132  0.28073  0.21681  1.0000
  H   H2031     1.0  0.46861  0.26817  0.98889  1.0000
  H   H2032     1.0  0.64267  0.31935  0.37806  1.0000
  H   H2033     1.0  0.62585  0.27995  0.14365  1.0000
  H   H2034     1.0  0.53371  0.29913  0.12040  1.0000
  C   C1158     1.0  0.52812  0.27081  0.11511  1.0000
  C   C1159     1.0  0.38775  0.26217  0.29131  1.0000
  C   C1160     1.0  0.52224  0.32264  0.10040  1.0000
  C   C1161     1.0  0.64443  0.29744  0.16407  1.0000
  H   H2035     1.0  0.38285  0.26541  0.27194  1.0000
  H   H2036     1.0  0.35520  0.39952  0.08458  1.0000
  C   C1162     1.0  0.39640  0.24727  0.05548  1.0000
  C   C1163     1.0  0.65720  0.30295  0.20001  1.0000
  H   H2037     1.0  0.48300  0.29538  0.06913  1.0000
  C   C1164     1.0  0.34087  0.42747  0.05053  1.0000
  H   H2038     1.0  0.63086  0.30669  0.16832  1.0000
  H   H2039     1.0  0.63797  0.30555  0.25198  1.0000
  H   H2040     1.0  0.51413  0.24364  0.34719  1.0000
  H   H2041     1.0  0.56066  0.25181  0.40469  1.0000
  H   H2042     1.0  0.52356  0.25478  0.41298  1.0000
  H   H2043     1.0  0.43531  0.25568  0.05363  1.0000
  H   H2044     1.0  0.34580  0.24822  0.15395  1.0000
  H   H2045     1.0  0.54210  0.27603  0.01432  1.0000
  H   H2046     1.0  0.66009  0.28695  0.12915  1.0000
  H   H2047     1.0  0.63127  0.28625  0.26314  1.0000
  H   H2048     1.0  0.43900  0.27500  0.03423  1.0000
  H   H2049     1.0  0.42655  0.25943  0.01005  1.0000
  H   H2050     1.0  0.42237  0.24767  0.23476  1.0000
  H   H2051     1.0  0.64972  0.36244  0.18063  1.0000
  H   H2052     1.0  0.65792  0.32512  0.32973  1.0000
  C   C1165     1.0  0.34216  0.39891  0.07641  1.0000
  H   H2053     1.0  0.39792  0.24076  0.43950  1.0000
  H   H2054     1.0  0.33881  0.36350  0.12162  1.0000
  C   C1166     1.0  0.39595  0.24833  0.08172  1.0000
  H   H2055     1.0  0.35373  0.37749  0.11925  1.0000
  H   H2056     1.0  0.52978  0.29531  0.99881  1.0000
  H   H2057     1.0  0.35819  0.28915  0.27840  1.0000
  C   C1167     1.0  0.65739  0.37409  0.31636  1.0000
  C   C1168     1.0  0.64269  0.29265  0.22044  1.0000
  C   C1169     1.0  0.34658  0.37277  0.10715  1.0000
  H   H2058     1.0  0.37051  0.24721  0.20760  1.0000
  N   N66       1.0  0.66224  0.30113  0.17124  1.0000
  H   H2059     1.0  0.65951  0.37342  0.33681  1.0000
  H   H2060     1.0  0.65757  0.28788  0.25429  1.0000
  H   H2061     1.0  0.55168  0.24843  0.14617  1.0000
  S   S273      1.0  0.55774  0.24079  0.00306  1.0000
  H   H2062     1.0  0.65195  0.32566  0.15299  1.0000
  H   H2063     1.0  0.34228  0.26014  0.28295  1.0000
  H   H2064     1.0  0.34405  0.42402  0.03095  1.0000
  H   H2065     1.0  0.53761  0.24216  0.25798  1.0000
  C   C1170     1.0  0.53332  0.24419  0.40599  1.0000
  H   H2066     1.0  0.49377  0.24945  0.39280  1.0000
  C   C1171     1.0  0.48978  0.25101  0.24375  1.0000
  H   H2067     1.0  0.45855  0.24491  0.22707  1.0000
  H   H2068     1.0  0.48340  0.25357  0.29442  1.0000
  C   C1172     1.0  0.50293  0.24400  0.33519  1.0000
  C   C1173     1.0  0.51300  0.24623  0.30566  1.0000
  C   C1174     1.0  0.40604  0.23913  0.45595  1.0000
  H   H2069     1.0  0.64666  0.28009  0.21883  1.0000
  C   C1175     1.0  0.41149  0.24154  0.25081  1.0000
  C   C1176     1.0  0.44268  0.24631  0.34317  1.0000
  H   H2070     1.0  0.43402  0.24192  0.42882  1.0000
  H   H2071     1.0  0.64642  0.24540  0.35247  1.0000
  H   H2072     1.0  0.59189  0.24167  0.37019  1.0000
  H   H2073     1.0  0.55097  0.23934  0.43593  1.0000
  C   C1177     1.0  0.63003  0.24840  0.36100  1.0000
  C   C1178     1.0  0.45412  0.26694  0.98490  1.0000
  H   H2074     1.0  0.44456  0.27907  0.98290  1.0000
  H   H2075     1.0  0.58492  0.25654  0.86300  1.0000
  H   H2076     1.0  0.40057  0.24466  0.70248  1.0000
  H   H2077     1.0  0.63149  0.25835  0.84678  1.0000
  H   H2078     1.0  0.45453  0.30803  0.91469  1.0000
  H   H2079     1.0  0.43952  0.24296  0.97653  1.0000
  H   H2080     1.0  0.36449  0.24534  0.59459  1.0000
  C   C1179     1.0  0.47016  0.30101  0.91141  1.0000
  H   H2081     1.0  0.48865  0.28032  0.93036  1.0000
  H   H2082     1.0  0.38054  0.26417  0.62318  1.0000
  H   H2083     1.0  0.47348  0.29734  0.89198  1.0000
  H   H2084     1.0  0.39272  0.24438  0.62076  1.0000
  H   H2085     1.0  0.45385  0.24777  0.72944  1.0000
  H   H2086     1.0  0.46988  0.29089  0.95296  1.0000
  C   C1180     1.0  0.37766  0.25252  0.62274  1.0000
  C   C1181     1.0  0.47266  0.28651  0.93432  1.0000
  H   H2087     1.0  0.37001  0.26899  0.67170  1.0000
  H   H2088     1.0  0.44952  0.24982  0.76367  1.0000
  H   H2089     1.0  0.44438  0.25547  0.91556  1.0000
  H   H2090     1.0  0.39275  0.26941  0.57225  1.0000
  C   C1182     1.0  0.38690  0.25890  0.57208  1.0000
  C   C1183     1.0  0.34419  0.25753  0.65350  1.0000
  C   C1184     1.0  0.38216  0.25828  0.67326  1.0000
  N   N67       1.0  0.45798  0.26110  0.95926  1.0000
  S   S274      1.0  0.34433  0.24852  0.54846  1.0000
  H   H2091     1.0  0.34669  0.26995  0.64623  1.0000
  H   H2092     1.0  0.48085  0.30872  0.91034  1.0000
  H   H2093     1.0  0.42636  0.26147  0.96181  1.0000
  H   H2094     1.0  0.39551  0.26061  0.65721  1.0000
  H   H2095     1.0  0.41560  0.24267  0.77237  1.0000
  H   H2096     1.0  0.37552  0.25423  0.71672  1.0000
  C   C1185     1.0  0.38869  0.25552  0.69990  1.0000
  C   C1186     1.0  0.42485  0.23917  0.93621  1.0000
  H   H2097     1.0  0.39950  0.24846  0.57191  1.0000
  C   C1187     1.0  0.42377  0.24687  0.75169  1.0000
  H   H2098     1.0  0.49049  0.25646  0.95545  1.0000
  C   C1188     1.0  0.59430  0.25108  0.84623  1.0000
  C   C1189     1.0  0.37001  0.25556  0.59639  1.0000
  H   H2099     1.0  0.44249  0.28267  0.93689  1.0000
  H   H2100     1.0  0.57036  0.24012  0.84311  1.0000
  H   H2101     1.0  0.41093  0.24849  0.93654  1.0000
  H   H2102     1.0  0.65427  0.29175  0.71321  1.0000
  C   C1190     1.0  0.57980  0.24887  0.83063  1.0000
  H   H2103     1.0  0.39489  0.26578  0.70043  1.0000
  C   C1191     1.0  0.45804  0.27535  0.93616  1.0000
  H   H2104     1.0  0.46239  0.27162  0.91670  1.0000
  H   H2105     1.0  0.41848  0.25986  0.74561  1.0000
  C   C1192     1.0  0.44115  0.25308  0.95923  1.0000
  H   H2106     1.0  0.60741  0.25656  0.88611  1.0000
  H   H2107     1.0  0.60372  0.25947  0.83255  1.0000
  H   H2108     1.0  0.64048  0.24975  0.90202  1.0000
  H   H2109     1.0  0.42002  0.24102  0.73787  1.0000
  H   H2110     1.0  0.48091  0.24047  0.76751  1.0000
  C   C1193     1.0  0.44659  0.24319  0.75038  1.0000
  H   H2111     1.0  0.50589  0.24271  0.79299  1.0000
  C   C1194     1.0  0.61566  0.25249  0.93492  1.0000
  H   H2112     1.0  0.58842  0.24477  0.81217  1.0000
  N   N68       1.0  0.36401  0.24605  0.64836  1.0000
  H   H2113     1.0  0.63933  0.23804  0.73850  1.0000
  C   C1195     1.0  0.64943  0.24051  0.82471  1.0000
  H   H2114     1.0  0.48223  0.24755  0.93494  1.0000
  H   H2115     1.0  0.61001  0.26514  0.92637  1.0000
  H   H2116     1.0  0.38094  0.26129  0.55347  1.0000
  H   H2117     1.0  0.35766  0.26615  0.59511  1.0000
  C   C1196     1.0  0.37492  0.24361  0.67099  1.0000
  H   H2118     1.0  0.48811  0.23896  0.67429  1.0000
  C   C1197     1.0  0.62760  0.24379  0.91276  1.0000
  H   H2119     1.0  0.56963  0.26033  0.82467  1.0000
  H   H2120     1.0  0.63857  0.23891  0.81389  1.0000
  H   H2121     1.0  0.62556  0.25192  0.94885  1.0000
  H   H2122     1.0  0.36508  0.23962  0.69059  1.0000
  C   C1198     1.0  0.47840  0.25036  0.95513  1.0000
  H   H2123     1.0  0.33808  0.25625  0.67544  1.0000
  H   H2124     1.0  0.47015  0.23802  0.48414  1.0000
  C   C1199     1.0  0.44324  0.24624  0.93429  1.0000
  H   H2125     1.0  0.65126  0.24548  0.86137  1.0000
  H   H2126     1.0  0.60263  0.24685  0.94664  1.0000
  C   C1200     1.0  0.63885  0.24564  0.85145  1.0000
  C   C1201     1.0  0.61394  0.24390  0.89344  1.0000
  H   H2127     1.0  0.60097  0.23828  0.90583  1.0000
  H   H2128     1.0  0.65075  0.26433  0.80036  1.0000
  C   C1202     1.0  0.66119  0.25292  0.80585  1.0000
  H   H2129     1.0  0.63491  0.70663  0.73725  1.0000
  H   H2130     1.0  0.61811  0.73267  0.74353  1.0000
  N   N69       1.0  0.64813  0.69273  0.70697  1.0000
  H   H2131     1.0  0.60636  0.70566  0.72762  1.0000
  C   C1203     1.0  0.62856  0.68990  0.70323  1.0000
  H   H2132     1.0  0.64617  0.70468  0.65179  1.0000
  C   C1204     1.0  0.60974  0.70331  0.70722  1.0000
  H   H2133     1.0  0.63002  0.68789  0.68294  1.0000
  H   H2134     1.0  0.58750  0.68794  0.71836  1.0000
  H   H2135     1.0  0.64765  0.73328  0.64547  1.0000
  H   H2136     1.0  0.61194  0.71449  0.69242  1.0000
  H   H2137     1.0  0.64196  0.71805  0.69151  1.0000
  H   H2138     1.0  0.57776  0.70864  0.70636  1.0000
  H   H2139     1.0  0.63671  0.68586  0.74965  1.0000
  C   C1205     1.0  0.64482  0.69501  0.73524  1.0000
  H   H2140     1.0  0.59308  0.69686  0.68295  1.0000
  H   H2141     1.0  0.62484  0.67877  0.71732  1.0000
  C   C1206     1.0  0.59093  0.69883  0.70347  1.0000
  C   C1207     1.0  0.34213  0.72493  0.78328  1.0000
  H   H2142     1.0  0.65207  0.66224  0.69059  1.0000
  C   C1208     1.0  0.65391  0.70760  0.68807  1.0000
  H   H2143     1.0  0.33625  0.73194  0.70432  1.0000
  H   H2144     1.0  0.35324  0.72513  0.79503  1.0000
  H   H2145     1.0  0.33657  0.71358  0.79114  1.0000
  H   H2146     1.0  0.65005  0.71146  0.77105  1.0000
  H   H2147     1.0  0.34999  0.72557  0.76207  1.0000
  C   C1209     1.0  0.65865  0.69909  0.77277  1.0000
  H   H2148     1.0  0.64949  0.69099  0.78793  1.0000
  H   H2149     1.0  0.38690  0.73428  0.80360  1.0000
  H   H2150     1.0  0.65549  0.73023  0.72765  1.0000
  C   C1210     1.0  0.65859  0.70780  0.65784  1.0000
  H   H2151     1.0  0.66238  0.67671  0.66344  1.0000
  C   C1211     1.0  0.66149  0.72425  0.64118  1.0000
  C   C1212     1.0  0.66410  0.69428  0.74576  1.0000
  H   H2152     1.0  0.66474  0.72415  0.61955  1.0000
  C   C1213     1.0  0.66459  0.66900  0.68302  1.0000
  H   H2153     1.0  0.66436  0.66940  0.72301  1.0000
  C   C1214     1.0  0.66484  0.67843  0.70382  1.0000
  H   H2154     1.0  0.56690  0.97691  0.32248  1.0000
  Fe  Fe139     1.0  0.59538  0.90447  0.09704  1.0000
  S   S275      1.0  0.62928  0.89879  0.09021  1.0000
  S   S276      1.0  0.57724  0.91530  0.13192  1.0000
  Fe  Fe140     1.0  0.59357  0.89639  0.04463  1.0000
  S   S277      1.0  0.62732  0.88976  0.03378  1.0000
  S   S278      1.0  0.57052  0.89900  0.01884  1.0000
  Fe  Fe141     1.0  0.62596  0.87778  0.07713  1.0000
  S   S279      1.0  0.64495  0.85357  0.08798  1.0000
  Fe  Fe142     1.0  0.62809  0.91128  0.04773  1.0000
  C   C1215     1.0  0.56462  0.97799  0.12122  1.0000
  S   S280      1.0  0.59188  0.88238  0.08723  1.0000
  S   S281      1.0  0.59452  0.91901  0.05536  1.0000
  Fe  Fe143     1.0  0.59102  0.88791  0.27956  1.0000
  S   S282      1.0  0.62095  0.89568  0.26958  1.0000
  S   S283      1.0  0.58176  0.87761  0.25070  1.0000
  Fe  Fe144     1.0  0.58259  0.89076  0.33798  1.0000
  S   S284      1.0  0.61187  0.89841  0.33258  1.0000
  S   S285      1.0  0.56092  0.88958  0.37794  1.0000
  Fe  Fe145     1.0  0.60450  0.91375  0.29414  1.0000
  S   S286      1.0  0.61067  0.93829  0.28638  1.0000
  Fe  Fe146     1.0  0.62537  0.87962  0.30895  1.0000
  H   H2155     1.0  0.61050  0.83323  0.16208  1.0000
  S   S287      1.0  0.57396  0.90756  0.30076  1.0000
  S   S288      1.0  0.59669  0.87047  0.31760  1.0000
  C   C1216     1.0  0.38739  0.88434  0.41178  1.0000
  H   H2156     1.0  0.53107  0.85512  0.45171  1.0000
  C   C1217     1.0  0.40545  0.90682  0.15887  1.0000
  C   C1218     1.0  0.61988  0.85538  0.47385  1.0000
  C   C1219     1.0  0.58001  0.98242  0.31067  1.0000
  H   H2157     1.0  0.48080  0.87132  0.03569  1.0000
  H   H2158     1.0  0.56774  0.97455  0.41577  1.0000
  H   H2159     1.0  0.35261  0.93741  0.32590  1.0000
  H   H2160     1.0  0.66014  0.92054  0.17033  1.0000
  Fe  Fe147     1.0  0.38829  0.90276  0.06177  1.0000
  H   H2161     1.0  0.35922  0.82819  0.25619  1.0000
  C   C1220     1.0  0.66301  0.95483  0.23419  1.0000
  H   H2162     1.0  0.54871  0.92653  0.38747  1.0000
  H   H2163     1.0  0.35036  0.91817  0.32361  1.0000
  C   C1221     1.0  0.33333  0.92552  0.36035  1.0000
  H   H2164     1.0  0.56128  0.92244  0.35486  1.0000
  H   H2165     1.0  0.46309  0.89446  0.10854  1.0000
  H   H2166     1.0  0.47558  0.87942  0.98875  1.0000
  C   C1222     1.0  0.46007  0.91616  0.07903  1.0000
  H   H2167     1.0  0.45243  0.85375  0.39359  1.0000
  H   H2168     1.0  0.53015  0.96221  0.07231  1.0000
  C   C1223     1.0  0.34778  0.83874  0.24978  1.0000
  C   C1224     1.0  0.35007  0.93667  0.22987  1.0000
  H   H2169     1.0  0.58679  0.98602  0.32455  1.0000
  H   H2170     1.0  0.57389  0.98127  0.13258  1.0000
  Fe  Fe148     1.0  0.34998  0.86887  0.33091  1.0000
  C   C1225     1.0  0.65154  0.97209  0.04580  1.0000
  H   H2171     1.0  0.65513  0.83313  0.15979  1.0000
  Fe  Fe149     1.0  0.37999  0.87062  0.09426  1.0000
  C   C1226     1.0  0.38687  0.88978  0.38445  1.0000
  C   C1227     1.0  0.59733  0.95302  0.38995  1.0000
  H   H2172     1.0  0.34746  0.84676  0.03062  1.0000
  S   S289      1.0  0.40751  0.87838  0.06617  1.0000
  C   C1228     1.0  0.57141  0.89106  0.40408  1.0000
  C   C1229     1.0  0.55902  0.89771  0.42528  1.0000
  H   H2173     1.0  0.57538  0.96834  0.06027  1.0000
  H   H2174     1.0  0.44270  0.90584  0.16593  1.0000
  C   C1230     1.0  0.60051  0.88809  0.42375  1.0000
  C   C1231     1.0  0.59212  0.88600  0.40364  1.0000
  C   C1232     1.0  0.34070  0.83687  0.22588  1.0000
  H   H2175     1.0  0.39389  0.92026  0.12220  1.0000
  H   H2176     1.0  0.61651  0.88403  0.42333  1.0000
  H   H2177     1.0  0.60168  0.88035  0.38790  1.0000
  C   C1233     1.0  0.60527  0.94963  0.25571  1.0000
  C   C1234     1.0  0.61186  0.96404  0.24552  1.0000
  H   H2178     1.0  0.60527  0.86043  0.46726  1.0000
  C   C1235     1.0  0.59774  0.96814  0.20620  1.0000
  C   C1236     1.0  0.59053  0.95394  0.21674  1.0000
  C   C1237     1.0  0.59468  0.94449  0.24132  1.0000
  H   H2179     1.0  0.61967  0.96812  0.25694  1.0000
  H   H2180     1.0  0.33879  0.83315  0.17872  1.0000
  H   H2181     1.0  0.58210  0.95010  0.20573  1.0000
  H   H2182     1.0  0.58950  0.93334  0.24921  1.0000
  S   S290      1.0  0.42098  0.86214  0.48211  1.0000
  H   H2183     1.0  0.62705  0.83696  0.45086  1.0000
  H   H2184     1.0  0.53881  0.94118  0.07457  1.0000
  H   H2185     1.0  0.48593  0.84916  0.01268  1.0000
  C   C1238     1.0  0.47085  0.85688  0.01568  1.0000
  H   H2186     1.0  0.37211  0.82344  0.01803  1.0000
  H   H2187     1.0  0.36559  0.85939  0.01327  1.0000
  C   C1239     1.0  0.44006  0.89450  0.16344  1.0000
  H   H2188     1.0  0.36080  0.97009  0.09930  1.0000
  H   H2189     1.0  0.54210  0.93989  0.35749  1.0000
  H   H2190     1.0  0.64108  0.89930  0.41899  1.0000
  H   H2191     1.0  0.65533  0.92446  0.25763  1.0000
  H   H2192     1.0  0.64140  0.91693  0.36054  1.0000
  H   H2193     1.0  0.64731  0.94549  0.30487  1.0000
  H   H2194     1.0  0.36126  0.89118  0.18988  1.0000
  C   C1240     1.0  0.57934  0.90470  0.16463  1.0000
  C   C1241     1.0  0.58204  0.88817  0.17128  1.0000
  C   C1242     1.0  0.58254  0.88004  0.19785  1.0000
  C   C1243     1.0  0.58117  0.88831  0.21765  1.0000
  C   C1244     1.0  0.57910  0.90482  0.21085  1.0000
  C   C1245     1.0  0.57774  0.91302  0.18450  1.0000
  H   H2195     1.0  0.58311  0.88170  0.15612  1.0000
  H   H2196     1.0  0.58399  0.86728  0.20308  1.0000
  H   H2197     1.0  0.57796  0.91129  0.22604  1.0000
  H   H2198     1.0  0.57555  0.92583  0.17948  1.0000
  H   H2199     1.0  0.35407  0.95551  0.28062  1.0000
  H   H2200     1.0  0.54971  0.94950  0.10878  1.0000
  H   H2201     1.0  0.63604  0.85028  0.15131  1.0000
  H   H2202     1.0  0.33745  0.98060  0.25605  1.0000
  C   C1246     1.0  0.37724  0.83459  0.01641  1.0000
  H   H2203     1.0  0.63725  0.93623  0.07324  1.0000
  H   H2204     1.0  0.35841  0.92802  0.14514  1.0000
  H   H2205     1.0  0.56783  0.96315  0.44936  1.0000
  H   H2206     1.0  0.63919  0.96088  0.08596  1.0000
  H   H2207     1.0  0.51632  0.98338  0.47115  1.0000
  C   C1247     1.0  0.33536  0.87859  0.98737  1.0000
  C   C1248     1.0  0.53956  0.97604  0.16547  1.0000
  C   C1249     1.0  0.34100  0.95225  0.22007  1.0000
  C   C1250     1.0  0.37328  0.86183  0.41225  1.0000
  H   H2208     1.0  0.64713  0.89704  0.15898  1.0000
  H   H2209     1.0  0.45929  0.84925  0.02117  1.0000
  C   C1251     1.0  0.36919  0.87941  0.18766  1.0000
  H   H2210     1.0  0.59275  0.94127  0.43282  1.0000
  H   H2211     1.0  0.47290  0.93157  0.43792  1.0000
  H   H2212     1.0  0.62037  0.89761  0.16688  1.0000
  C   C1252     1.0  0.43231  0.90874  0.11879  1.0000
  C   C1253     1.0  0.36282  0.96301  0.08471  1.0000
  H   H2213     1.0  0.42731  0.86487  0.40207  1.0000
  S   S291      1.0  0.64613  0.97173  0.13094  1.0000
  H   H2214     1.0  0.39802  0.83730  0.17953  1.0000
  H   H2215     1.0  0.45313  0.92893  0.07750  1.0000
  C   C1254     1.0  0.43456  0.85643  0.12766  1.0000
  H   H2216     1.0  0.60199  0.98301  0.09552  1.0000
  H   H2217     1.0  0.45405  0.91136  0.06580  1.0000
  H   H2218     1.0  0.44809  0.84890  0.11792  1.0000
  C   C1255     1.0  0.55792  0.95226  0.08782  1.0000
  H   H2219     1.0  0.34517  0.84897  0.11553  1.0000
  C   C1256     1.0  0.57392  0.88992  0.99150  1.0000
  C   C1257     1.0  0.65761  0.95644  0.01230  1.0000
  H   H2220     1.0  0.46237  0.91180  0.12021  1.0000
  H   H2221     1.0  0.35439  0.83398  0.21057  1.0000
  C   C1258     1.0  0.34995  0.96719  0.06641  1.0000
  C   C1259     1.0  0.37212  0.86754  0.38512  1.0000
  H   H2222     1.0  0.63205  0.96509  0.30392  1.0000
  S   S292      1.0  0.38352  0.87747  0.23261  1.0000
  H   H2223     1.0  0.50133  0.91217  0.33767  1.0000
  H   H2224     1.0  0.33764  0.87746  0.00797  1.0000
  C   C1260     1.0  0.55479  0.93189  0.36640  1.0000
  C   C1261     1.0  0.38847  0.91338  0.14229  1.0000
  H   H2225     1.0  0.47062  0.85464  0.05768  1.0000
  Fe  Fe150     1.0  0.39375  0.87613  0.03339  1.0000
  H   H2226     1.0  0.37879  0.88574  0.35013  1.0000
  H   H2227     1.0  0.41001  0.88610  0.12737  1.0000
  H   H2228     1.0  0.52794  0.96940  0.17893  1.0000
  H   H2229     1.0  0.60472  0.95337  0.33793  1.0000
  S   S293      1.0  0.36184  0.89515  0.09239  1.0000
  C   C1262     1.0  0.63374  0.89669  0.17544  1.0000
  H   H2230     1.0  0.61404  0.98404  0.21252  1.0000
  H   H2231     1.0  0.52298  0.96195  0.47857  1.0000
  H   H2232     1.0  0.59030  0.97010  0.42982  1.0000
  C   C1263     1.0  0.59190  0.87982  0.98311  1.0000
  S   S294      1.0  0.36795  0.86604  0.06199  1.0000
  C   C1264     1.0  0.35552  0.96687  0.28435  1.0000
  H   H2233     1.0  0.34100  0.85286  0.16287  1.0000
  H   H2234     1.0  0.54416  0.90104  0.98386  1.0000
  H   H2235     1.0  0.44636  0.87326  0.22774  1.0000
  C   C1265     1.0  0.62692  0.82804  0.15856  1.0000
  H   H2236     1.0  0.36963  0.93703  0.03334  1.0000
  H   H2237     1.0  0.54349  0.86467  0.41920  1.0000
  H   H2238     1.0  0.44020  0.85292  0.42834  1.0000
  N   N70       1.0  0.64250  0.85043  0.20288  1.0000
  C   C1266     1.0  0.63280  0.85107  0.23163  1.0000
  C   C1267     1.0  0.63844  0.86671  0.18482  1.0000
  C   C1268     1.0  0.63260  0.83957  0.19471  1.0000
  H   H2239     1.0  0.34406  0.89921  0.43987  1.0000
  C   C1269     1.0  0.63583  0.83528  0.25263  1.0000
  C   C1270     1.0  0.63887  0.83846  0.16481  1.0000
  C   C1271     1.0  0.62678  0.83799  0.28094  1.0000
  H   H2240     1.0  0.55797  0.90586  0.46073  1.0000
  H   H2241     1.0  0.61621  0.85550  0.23330  1.0000
  H   H2242     1.0  0.63821  0.85973  0.23856  1.0000
  C   C1272     1.0  0.63370  0.84670  0.45263  1.0000
  H   H2243     1.0  0.62376  0.86868  0.17838  1.0000
  H   H2244     1.0  0.61581  0.84334  0.19929  1.0000
  H   H2245     1.0  0.63600  0.82722  0.20641  1.0000
  H   H2246     1.0  0.55119  0.97550  0.17695  1.0000
  H   H2247     1.0  0.57040  0.94572  0.41888  1.0000
  H   H2248     1.0  0.62817  0.82655  0.24945  1.0000
  H   H2249     1.0  0.66031  0.87333  0.25924  1.0000
  H   H2250     1.0  0.39009  0.83599  0.99917  1.0000
  H   H2251     1.0  0.60414  0.87707  0.99381  1.0000
  H   H2252     1.0  0.62682  0.86529  0.47413  1.0000
  H   H2253     1.0  0.61036  0.84314  0.28293  1.0000
  H   H2254     1.0  0.62871  0.82654  0.29569  1.0000
  H   H2255     1.0  0.62950  0.81586  0.17105  1.0000
  H   H2256     1.0  0.63452  0.84614  0.28574  1.0000
  H   H2257     1.0  0.35469  0.84942  0.24455  1.0000
  C   C1273     1.0  0.37989  0.86973  0.20719  1.0000
  H   H2258     1.0  0.41368  0.87612  0.15972  1.0000
  C   C1274     1.0  0.64846  0.90304  0.39774  1.0000
  H   H2259     1.0  0.38270  0.83372  0.03489  1.0000
  H   H2260     1.0  0.34777  0.91581  0.26089  1.0000
  H   H2261     1.0  0.45233  0.86919  0.13855  1.0000
  H   H2262     1.0  0.64951  0.97941  0.23535  1.0000
  H   H2263     1.0  0.46480  0.87291  0.19705  1.0000
  C   C1275     1.0  0.35989  0.84882  0.01313  1.0000
  H   H2264     1.0  0.38881  0.94685  0.09763  1.0000
  C   C1276     1.0  0.59285  0.98067  0.08298  1.0000
  H   H2265     1.0  0.55167  0.95487  0.04826  1.0000
  H   H2266     1.0  0.45508  0.88837  0.15448  1.0000
  C   C1277     1.0  0.58838  0.89557  0.44405  1.0000
  H   H2267     1.0  0.39862  0.84706  0.21910  1.0000
  C   C1278     1.0  0.45547  0.90695  0.10797  1.0000
  S   S295      1.0  0.65426  0.86350  0.31732  1.0000
  S   S296      1.0  0.64958  0.92693  0.02162  1.0000
  H   H2268     1.0  0.59127  0.97338  0.30094  1.0000
  H   H2269     1.0  0.63118  0.90702  0.18471  1.0000
  H   H2270     1.0  0.63194  0.82731  0.13716  1.0000
  H   H2271     1.0  0.56337  0.95120  0.37499  1.0000
  C   C1279     1.0  0.56603  0.96793  0.08086  1.0000
  H   H2272     1.0  0.48629  0.91554  0.40291  1.0000
  H   H2273     1.0  0.51232  0.89297  0.32935  1.0000
  H   H2274     1.0  0.61029  0.91875  0.98531  1.0000
  H   H2275     1.0  0.55293  0.97794  0.07883  1.0000
  H   H2276     1.0  0.52820  0.90485  0.33405  1.0000
  H   H2277     1.0  0.54271  0.84391  0.42607  1.0000
  C   C1280     1.0  0.59058  0.95440  0.11079  1.0000
  C   C1281     1.0  0.60869  0.97302  0.22041  1.0000
  H   H2278     1.0  0.36589  0.91995  0.34517  1.0000
  C   C1282     1.0  0.63685  0.88135  0.19651  1.0000
  H   H2279     1.0  0.60393  0.97461  0.06783  1.0000
  C   C1283     1.0  0.60153  0.95434  0.13303  1.0000
  H   H2280     1.0  0.39215  0.90060  0.37360  1.0000
  H   H2281     1.0  0.33483  0.83980  0.26681  1.0000
  C   C1284     1.0  0.64991  0.94416  0.03163  1.0000
  H   H2282     1.0  0.63098  0.96200  0.35239  1.0000
  C   C1285     1.0  0.61660  0.93887  0.13917  1.0000
  H   H2283     1.0  0.53678  0.96857  0.13143  1.0000
  H   H2284     1.0  0.60175  0.94952  0.09437  1.0000
  H   H2285     1.0  0.58105  0.94547  0.12033  1.0000
  H   H2286     1.0  0.45378  0.87191  0.04357  1.0000
  H   H2287     1.0  0.34376  0.96953  0.30197  1.0000
  C   C1286     1.0  0.43970  0.87212  0.12774  1.0000
  H   H2288     1.0  0.33720  0.86086  0.20406  1.0000
  S   S297      1.0  0.59267  0.98007  0.17565  1.0000
  H   H2289     1.0  0.45330  0.92817  0.42438  1.0000
  H   H2290     1.0  0.55612  0.95605  0.14894  1.0000
  H   H2291     1.0  0.65210  0.95030  0.25213  1.0000
  H   H2292     1.0  0.60981  0.96417  0.12763  1.0000
  H   H2293     1.0  0.59030  0.95543  0.15179  1.0000
  H   H2294     1.0  0.65047  0.88077  0.20423  1.0000
  H   H2295     1.0  0.64889  0.84175  0.45769  1.0000
  H   H2296     1.0  0.57074  0.94227  0.08488  1.0000
  C   C1287     1.0  0.37102  0.92440  0.15619  1.0000
  H   H2297     1.0  0.38130  0.86588  0.44661  1.0000
  Fe  Fe151     1.0  0.35899  0.87683  0.26965  1.0000
  H   H2298     1.0  0.34028  0.93583  0.10121  1.0000
  H   H2299     1.0  0.64659  0.94260  0.35358  1.0000
  H   H2300     1.0  0.66361  0.98000  0.00396  1.0000
  C   C1288     1.0  0.33759  0.83875  0.12589  1.0000
  H   H2301     1.0  0.62883  0.93758  0.12146  1.0000
  H   H2302     1.0  0.62341  0.93895  0.15603  1.0000
  H   H2303     1.0  0.60897  0.92855  0.14489  1.0000
  C   C1289     1.0  0.54916  0.96850  0.14128  1.0000
  C   C1290     1.0  0.39015  0.85452  0.20423  1.0000
  C   C1291     1.0  0.37931  0.88139  0.37112  1.0000
  N   N71       1.0  0.60542  0.93871  0.37755  1.0000
  C   C1292     1.0  0.62027  0.92723  0.39338  1.0000
  C   C1293     1.0  0.58863  0.93056  0.37807  1.0000
  C   C1294     1.0  0.61541  0.94408  0.34879  1.0000
  S   S298      1.0  0.59970  0.89949  0.46738  1.0000
  C   C1295     1.0  0.63292  0.91303  0.38099  1.0000
  C   C1296     1.0  0.57088  0.94123  0.36492  1.0000
  C   C1297     1.0  0.63458  0.95119  0.34412  1.0000
  H   H2304     1.0  0.36808  0.85097  0.42310  1.0000
  H   H2305     1.0  0.61222  0.92198  0.41359  1.0000
  H   H2306     1.0  0.63095  0.93350  0.39718  1.0000
  H   H2307     1.0  0.58231  0.92485  0.39891  1.0000
  H   H2308     1.0  0.59465  0.92059  0.36758  1.0000
  H   H2309     1.0  0.61921  0.93419  0.33811  1.0000
  H   H2310     1.0  0.45765  0.91718  0.45703  1.0000
  H   H2311     1.0  0.33449  0.91703  0.12065  1.0000
  H   H2312     1.0  0.35294  0.91375  0.41116  1.0000
  H   H2313     1.0  0.62301  0.90530  0.37988  1.0000
  H   H2314     1.0  0.65005  0.86756  0.16595  1.0000
  H   H2315     1.0  0.57623  0.94611  0.34340  1.0000
  H   H2316     1.0  0.62355  0.88223  0.21316  1.0000
  H   H2317     1.0  0.64713  0.91718  0.30802  1.0000
  C   C1298     1.0  0.57711  0.96545  0.42887  1.0000
  H   H2318     1.0  0.34698  0.90268  0.38140  1.0000
  H   H2319     1.0  0.34301  0.96137  0.03315  1.0000
  N   N72       1.0  0.48374  0.88246  0.41169  1.0000
  C   C1299     1.0  0.50147  0.87567  0.42559  1.0000
  C   C1300     1.0  0.47037  0.89593  0.42392  1.0000
  C   C1301     1.0  0.47140  0.86969  0.41738  1.0000
  C   C1302     1.0  0.49004  0.88785  0.38166  1.0000
  C   C1303     1.0  0.51056  0.89354  0.37092  1.0000
  C   C1304     1.0  0.51420  0.85955  0.41999  1.0000
  C   C1305     1.0  0.45088  0.87497  0.40794  1.0000
  C   C1306     1.0  0.48044  0.90967  0.42369  1.0000
  C   C1307     1.0  0.46510  0.92240  0.43653  1.0000
  C   C1308     1.0  0.51315  0.90136  0.34116  1.0000
  C   C1309     1.0  0.53408  0.85561  0.42988  1.0000
  C   C1310     1.0  0.44226  0.86070  0.40804  1.0000
  H   H2320     1.0  0.49607  0.87377  0.44757  1.0000
  H   H2321     1.0  0.51182  0.88416  0.42104  1.0000
  H   H2322     1.0  0.45743  0.90147  0.41358  1.0000
  H   H2323     1.0  0.46351  0.89127  0.44517  1.0000
  H   H2324     1.0  0.46809  0.86445  0.43931  1.0000
  H   H2325     1.0  0.48016  0.85974  0.40768  1.0000
  H   H2326     1.0  0.49122  0.87812  0.37139  1.0000
  H   H2327     1.0  0.47811  0.89749  0.37367  1.0000
  H   H2328     1.0  0.52321  0.88327  0.37317  1.0000
  H   H2329     1.0  0.51237  0.90208  0.38161  1.0000
  H   H2330     1.0  0.50575  0.84988  0.43087  1.0000
  H   H2331     1.0  0.51759  0.85950  0.39836  1.0000
  H   H2332     1.0  0.45242  0.88245  0.38740  1.0000
  H   H2333     1.0  0.43967  0.88188  0.42168  1.0000
  H   H2334     1.0  0.49285  0.90542  0.43509  1.0000
  S   S299      1.0  0.36118  0.85727  0.36968  1.0000
  S   S300      1.0  0.35179  0.96224  0.18848  1.0000
  H   H2335     1.0  0.61002  0.95807  0.39150  1.0000
  H   H2336     1.0  0.58849  0.96268  0.37685  1.0000
  C   C1311     1.0  0.35273  0.95799  0.04754  1.0000
  C   C1312     1.0  0.58412  0.95010  0.41854  1.0000
  C   C1313     1.0  0.34113  0.92805  0.25431  1.0000
  S   S301      1.0  0.38179  0.85219  0.13256  1.0000
  Fe  Fe152     1.0  0.40109  0.88569  0.47050  1.0000
  H   H2337     1.0  0.54292  0.90143  0.42598  1.0000
  H   H2338     1.0  0.37075  0.96538  0.28876  1.0000
  C   C1314     1.0  0.37862  0.94978  0.08385  1.0000
  C   C1315     1.0  0.38992  0.84905  0.18175  1.0000
  H   H2339     1.0  0.65611  0.89225  0.38979  1.0000
  H   H2340     1.0  0.47667  0.91507  0.07194  1.0000
  N   N73       1.0  0.42510  0.89804  0.14525  1.0000
  H   H2341     1.0  0.65701  0.95614  0.21598  1.0000
  H   H2342     1.0  0.65707  0.96084  0.31119  1.0000
  C   C1316     1.0  0.64325  0.95594  0.31419  1.0000
  H   H2343     1.0  0.36549  0.91835  0.17703  1.0000
  C   C1317     1.0  0.45127  0.88020  0.20729  1.0000
  H   H2344     1.0  0.45533  0.89114  0.20911  1.0000
  H   H2345     1.0  0.43038  0.87306  0.19125  1.0000
  H   H2346     1.0  0.42084  0.89101  0.20380  1.0000
  H   H2347     1.0  0.33443  0.88505  0.41955  1.0000
  H   H2348     1.0  0.36361  0.93102  0.21807  1.0000
  H   H2349     1.0  0.42710  0.92147  0.11995  1.0000
  C   C1318     1.0  0.38080  0.87023  0.42560  1.0000
  H   H2350     1.0  0.36170  0.88177  0.14934  1.0000
  C   C1319     1.0  0.43406  0.88437  0.19195  1.0000
  H   H2351     1.0  0.39877  0.89906  0.17753  1.0000
  C   C1320     1.0  0.54375  0.95276  0.06955  1.0000
  C   C1321     1.0  0.36782  0.94427  0.04761  1.0000
  C   C1322     1.0  0.36956  0.87413  0.16465  1.0000
  C   C1323     1.0  0.38020  0.85901  0.16150  1.0000
  S   S302      1.0  0.39570  0.89578  0.42815  1.0000
  H   H2352     1.0  0.66289  0.95524  0.99173  1.0000
  C   C1324     1.0  0.56753  0.90019  0.44502  1.0000
  H   H2353     1.0  0.42962  0.84991  0.14842  1.0000
  H   H2354     1.0  0.42534  0.90729  0.10297  1.0000
  H   H2355     1.0  0.35767  0.91817  0.45302  1.0000
  H   H2356     1.0  0.42240  0.85852  0.11628  1.0000
  C   C1325     1.0  0.46722  0.86990  0.99032  1.0000
  H   H2357     1.0  0.55565  0.87030  0.48284  1.0000
  C   C1326     1.0  0.38091  0.94022  0.06564  1.0000
  C   C1327     1.0  0.35171  0.92517  0.33741  1.0000
  C   C1328     1.0  0.64425  0.95967  0.06544  1.0000
  S   S303      1.0  0.40004  0.92322  0.06564  1.0000
  C   C1329     1.0  0.46888  0.86419  0.03957  1.0000
  S   S304      1.0  0.37687  0.90130  0.02651  1.0000
  S   S305      1.0  0.35236  0.85489  0.30012  1.0000
  H   H2358     1.0  0.40829  0.91699  0.16514  1.0000
  C   C1330     1.0  0.65809  0.97043  0.01926  1.0000
  Fe  Fe153     1.0  0.35210  0.89135  0.05763  1.0000
  H   H2359     1.0  0.37597  0.93529  0.15659  1.0000
  S   S306      1.0  0.35964  0.88983  0.30054  1.0000
  N   N74       1.0  0.57816  0.97006  0.09946  1.0000
  H   H2360     1.0  0.44482  0.87786  0.10655  1.0000
  H   H2361     1.0  0.63551  0.85512  0.43289  1.0000
  H   H2362     1.0  0.38240  0.90358  0.13974  1.0000
  C   C1331     1.0  0.42112  0.88312  0.14073  1.0000
  H   H2363     1.0  0.45086  0.87532  0.99517  1.0000
  C   C1332     1.0  0.35266  0.98001  0.25959  1.0000
  H   H2364     1.0  0.36432  0.97628  0.24266  1.0000
  C   C1333     1.0  0.64311  0.94577  0.05826  1.0000
  S   S307      1.0  0.41251  0.86356  0.00087  1.0000
  H   H2365     1.0  0.65210  0.83006  0.25183  1.0000
  H   H2366     1.0  0.66038  0.93226  0.21021  1.0000
  H   H2367     1.0  0.38668  0.98690  0.18347  1.0000
  H   H2368     1.0  0.34901  0.82844  0.13317  1.0000
  C   C1334     1.0  0.34088  0.91178  0.42921  1.0000
  N   N75       1.0  0.33341  0.86293  0.98313  1.0000
  C   C1335     1.0  0.66182  0.90877  0.30639  1.0000
  H   H2369     1.0  0.33487  0.93345  0.37243  1.0000
  H   H2370     1.0  0.35252  0.83957  0.98364  1.0000
  H   H2371     1.0  0.66188  0.87315  0.11093  1.0000
  C   C1336     1.0  0.34242  0.92179  0.44785  1.0000
  C   C1337     1.0  0.66451  0.97146  0.23549  1.0000
  H   H2372     1.0  0.65953  0.89757  0.30314  1.0000
  C   C1338     1.0  0.66488  0.84371  0.19943  1.0000
  C   C1339     1.0  0.35299  0.85139  0.98638  1.0000
  H   H2373     1.0  0.66006  0.90990  0.39683  1.0000
  H   H2374     1.0  0.66106  0.92285  0.10766  1.0000
  H   H2375     1.0  0.34024  0.93457  0.43796  1.0000
  H   H2376     1.0  0.33295  0.82660  0.23275  1.0000
  H   H2377     1.0  0.37713  0.78422  0.57691  1.0000
  H   H2378     1.0  0.59290  0.94254  0.55570  1.0000
  H   H2379     1.0  0.60011  0.83118  0.68936  1.0000
  H   H2380     1.0  0.44205  0.91645  0.92242  1.0000
  S   S308      1.0  0.57413  0.96973  0.69117  1.0000
  H   H2381     1.0  0.42239  0.91027  0.80971  1.0000
  C   C1340     1.0  0.34561  0.78100  0.83690  1.0000
  S   S309      1.0  0.60906  0.96270  0.74124  1.0000
  C   C1341     1.0  0.64114  0.97295  0.77255  1.0000
  Fe  Fe154     1.0  0.54910  0.90842  0.84832  1.0000
  S   S310      1.0  0.53518  0.89682  0.82655  1.0000
  S   S311      1.0  0.54562  0.93492  0.83961  1.0000
  Fe  Fe155     1.0  0.56291  0.87779  0.88608  1.0000
  S   S312      1.0  0.55001  0.86307  0.86775  1.0000
  S   S313      1.0  0.58174  0.86826  0.91849  1.0000
  Fe  Fe156     1.0  0.56273  0.87765  0.82806  1.0000
  S   S314      1.0  0.57734  0.86952  0.78925  1.0000
  Fe  Fe157     1.0  0.52325  0.88325  0.86718  1.0000
  S   S315      1.0  0.48987  0.88340  0.87686  1.0000
  S   S316      1.0  0.57802  0.89063  0.84621  1.0000
  S   S317      1.0  0.53484  0.89647  0.88911  1.0000
  Fe  Fe158     1.0  0.42782  0.83471  0.85539  1.0000
  S   S318      1.0  0.41829  0.86084  0.84048  1.0000
  S   S319      1.0  0.45945  0.82524  0.86293  1.0000
  S   S320      1.0  0.41600  0.82793  0.82499  1.0000
  S   S321      1.0  0.55198  0.89796  0.52274  1.0000
  Fe  Fe159     1.0  0.56109  0.93894  0.52603  1.0000
  S   S322      1.0  0.53492  0.92823  0.55139  1.0000
  S   S323      1.0  0.56033  0.96345  0.53139  1.0000
  Fe  Fe160     1.0  0.55731  0.90554  0.55734  1.0000
  S   S324      1.0  0.55781  0.89195  0.59972  1.0000
  Fe  Fe161     1.0  0.53233  0.92195  0.51433  1.0000
  H   H2382     1.0  0.33619  0.86591  0.90050  1.0000
  S   S325      1.0  0.58399  0.91655  0.53404  1.0000
  H   H2383     1.0  0.46248  0.95366  0.50885  1.0000
  C   C1342     1.0  0.40372  0.86782  0.97073  1.0000
  H   H2384     1.0  0.41249  0.92659  0.84580  1.0000
  Fe  Fe162     1.0  0.56294  0.77601  0.70919  1.0000
  S   S326      1.0  0.57415  0.79890  0.69824  1.0000
  C   C1343     1.0  0.39740  0.89434  0.78093  1.0000
  Fe  Fe163     1.0  0.51856  0.79270  0.70705  1.0000
  S   S327      1.0  0.52737  0.81647  0.69670  1.0000
  S   S328      1.0  0.41539  0.87063  0.54107  1.0000
  Fe  Fe164     1.0  0.55359  0.80615  0.66842  1.0000
  S   S329      1.0  0.55817  0.81879  0.62511  1.0000
  Fe  Fe165     1.0  0.54651  0.80698  0.72770  1.0000
  S   S330      1.0  0.54196  0.81680  0.76462  1.0000
  S   S331      1.0  0.54424  0.78263  0.67709  1.0000
  S   S332      1.0  0.53610  0.78373  0.74008  1.0000
  Fe  Fe166     1.0  0.39187  0.76828  0.71005  1.0000
  S   S333      1.0  0.42431  0.75539  0.70944  1.0000
  C   C1344     1.0  0.46951  0.78616  0.70576  1.0000
  C   C1345     1.0  0.45001  0.79320  0.70113  1.0000
  C   C1346     1.0  0.43643  0.78388  0.70109  1.0000
  C   C1347     1.0  0.44204  0.76735  0.70630  1.0000
  S   S334      1.0  0.41775  0.89892  0.48616  1.0000
  H   H2385     1.0  0.42067  0.77502  0.87441  1.0000
  H   H2386     1.0  0.44521  0.80594  0.69814  1.0000
  H   H2387     1.0  0.42150  0.78952  0.69745  1.0000
  H   H2388     1.0  0.56706  0.84022  0.52506  1.0000
  H   H2389     1.0  0.46731  0.96471  0.71389  1.0000
  C   C1348     1.0  0.55548  0.87199  0.60777  1.0000
  C   C1349     1.0  0.55848  0.86268  0.63286  1.0000
  C   C1350     1.0  0.55838  0.84638  0.63889  1.0000
  C   C1351     1.0  0.55533  0.83941  0.61974  1.0000
  C   C1352     1.0  0.55112  0.84890  0.59530  1.0000
  C   C1353     1.0  0.55114  0.86520  0.58935  1.0000
  H   H2390     1.0  0.56158  0.86797  0.64730  1.0000
  H   H2391     1.0  0.56149  0.83910  0.65788  1.0000
  H   H2392     1.0  0.54837  0.84356  0.58068  1.0000
  H   H2393     1.0  0.54812  0.87245  0.57039  1.0000
  C   C1354     1.0  0.49358  0.91143  0.50046  1.0000
  H   H2394     1.0  0.58506  0.87077  0.50149  1.0000
  H   H2395     1.0  0.46217  0.87328  0.92616  1.0000
  H   H2396     1.0  0.37764  0.98613  0.77025  1.0000
  H   H2397     1.0  0.49697  0.75813  0.77392  1.0000
  H   H2398     1.0  0.47316  0.89839  0.73986  1.0000
  C   C1355     1.0  0.56663  0.85559  0.78169  1.0000
  C   C1356     1.0  0.55227  0.84796  0.80085  1.0000
  C   C1357     1.0  0.54472  0.83627  0.79502  1.0000
  C   C1358     1.0  0.55123  0.83224  0.76991  1.0000
  C   C1359     1.0  0.56501  0.84029  0.75029  1.0000
  C   C1360     1.0  0.57284  0.85185  0.75627  1.0000
  H   H2399     1.0  0.54727  0.85082  0.82040  1.0000
  H   H2400     1.0  0.53390  0.83020  0.81023  1.0000
  H   H2401     1.0  0.56967  0.83758  0.73065  1.0000
  H   H2402     1.0  0.58380  0.85784  0.74127  1.0000
  C   C1361     1.0  0.48213  0.86675  0.87362  1.0000
  C   C1362     1.0  0.46142  0.86678  0.87856  1.0000
  C   C1363     1.0  0.45461  0.85361  0.87686  1.0000
  C   C1364     1.0  0.46838  0.84055  0.86912  1.0000
  C   C1365     1.0  0.48918  0.84040  0.86434  1.0000
  C   C1366     1.0  0.49607  0.85351  0.86665  1.0000
  H   H2403     1.0  0.45052  0.87691  0.88415  1.0000
  H   H2404     1.0  0.43864  0.85351  0.88188  1.0000
  H   H2405     1.0  0.49992  0.83035  0.85820  1.0000
  H   H2406     1.0  0.51210  0.85341  0.86272  1.0000
  H   H2407     1.0  0.43408  0.80931  0.64846  1.0000
  C   C1367     1.0  0.40250  0.90962  0.72678  1.0000
  H   H2408     1.0  0.41088  0.88604  0.71904  1.0000
  C   C1368     1.0  0.59189  0.95531  0.76950  1.0000
  C   C1369     1.0  0.57259  0.96424  0.77611  1.0000
  C   C1370     1.0  0.55872  0.95808  0.79829  1.0000
  C   C1371     1.0  0.56379  0.94269  0.81317  1.0000
  C   C1372     1.0  0.58322  0.93383  0.80688  1.0000
  C   C1373     1.0  0.59741  0.94029  0.78537  1.0000
  H   H2409     1.0  0.56829  0.97592  0.76417  1.0000
  H   H2410     1.0  0.54378  0.96504  0.80332  1.0000
  H   H2411     1.0  0.58738  0.92209  0.81869  1.0000
  H   H2412     1.0  0.61246  0.93347  0.78050  1.0000
  H   H2413     1.0  0.49068  0.76416  0.71297  1.0000
  H   H2414     1.0  0.53248  0.85092  0.92750  1.0000
  C   C1374     1.0  0.64525  0.73924  0.71676  1.0000
  C   C1375     1.0  0.57104  0.96413  0.55796  1.0000
  H   H2415     1.0  0.34398  0.82303  0.55294  1.0000
  C   C1376     1.0  0.55814  0.89330  0.97741  1.0000
  H   H2416     1.0  0.45293  0.82319  0.96288  1.0000
  H   H2417     1.0  0.38412  0.75627  0.59988  1.0000
  C   C1377     1.0  0.64977  0.76633  0.75052  1.0000
  H   H2418     1.0  0.36801  0.80201  0.51332  1.0000
  H   H2419     1.0  0.60854  0.77223  0.67814  1.0000
  S   S335      1.0  0.48458  0.79840  0.70966  1.0000
  H   H2420     1.0  0.46008  0.78832  0.63394  1.0000
  C   C1378     1.0  0.50975  0.98039  0.70015  1.0000
  C   C1379     1.0  0.33844  0.85145  0.94039  1.0000
  H   H2421     1.0  0.42388  0.90501  0.54573  1.0000
  C   C1380     1.0  0.63971  0.76160  0.68013  1.0000
  C   C1381     1.0  0.61866  0.76311  0.68913  1.0000
  C   C1382     1.0  0.60806  0.81386  0.72450  1.0000
  S   S336      1.0  0.38197  0.79026  0.72662  1.0000
  H   H2422     1.0  0.64566  0.76971  0.66234  1.0000
  H   H2423     1.0  0.58696  0.92679  0.74825  1.0000
  C   C1383     1.0  0.48471  0.80929  0.77428  1.0000
  H   H2424     1.0  0.60271  0.91522  0.72470  1.0000
  H   H2425     1.0  0.53729  0.97304  0.67328  1.0000
  N   N76       1.0  0.48587  0.89379  0.62291  1.0000
  C   C1384     1.0  0.46577  0.89859  0.64065  1.0000
  C   C1385     1.0  0.50212  0.90085  0.62765  1.0000
  C   C1386     1.0  0.48345  0.90054  0.59424  1.0000
  C   C1387     1.0  0.49216  0.87609  0.62651  1.0000
  C   C1388     1.0  0.49426  0.86678  0.65501  1.0000
  C   C1389     1.0  0.44794  0.89136  0.63923  1.0000
  C   C1390     1.0  0.50253  0.89706  0.57229  1.0000
  C   C1391     1.0  0.50037  0.90324  0.65626  1.0000
  C   C1392     1.0  0.51943  0.90787  0.65894  1.0000
  C   C1393     1.0  0.49609  0.84906  0.65725  1.0000
  H   H2426     1.0  0.41379  0.96608  0.76928  1.0000
  C   C1394     1.0  0.50216  0.88351  0.55964  1.0000
  H   H2427     1.0  0.46122  0.91172  0.63619  1.0000
  H   H2428     1.0  0.46682  0.89541  0.66203  1.0000
  H   H2429     1.0  0.51722  0.89348  0.62226  1.0000
  H   H2430     1.0  0.50291  0.91275  0.61424  1.0000
  H   H2431     1.0  0.47849  0.91369  0.59094  1.0000
  H   H2432     1.0  0.47112  0.89645  0.58970  1.0000
  H   H2433     1.0  0.48168  0.87126  0.61927  1.0000
  H   H2434     1.0  0.50730  0.87293  0.61392  1.0000
  H   H2435     1.0  0.48110  0.87054  0.67018  1.0000
  H   H2436     1.0  0.50818  0.86857  0.65954  1.0000
  H   H2437     1.0  0.44434  0.89473  0.61899  1.0000
  H   H2438     1.0  0.45143  0.87824  0.64527  1.0000
  H   H2439     1.0  0.51688  0.89465  0.57943  1.0000
  H   H2440     1.0  0.50298  0.90787  0.55603  1.0000
  H   H2441     1.0  0.48742  0.91296  0.66063  1.0000
  H   H2442     1.0  0.49800  0.89237  0.67169  1.0000
  H   H2443     1.0  0.51749  0.90990  0.67935  1.0000
  H   H2444     1.0  0.53280  0.89829  0.65561  1.0000
  H   H2445     1.0  0.52218  0.91900  0.64424  1.0000
  H   H2446     1.0  0.48222  0.84679  0.65335  1.0000
  H   H2447     1.0  0.50951  0.84449  0.64292  1.0000
  H   H2448     1.0  0.49772  0.84253  0.67776  1.0000
  C   C1395     1.0  0.38953  0.74618  0.79192  1.0000
  H   H2449     1.0  0.51556  0.88222  0.54332  1.0000
  H   H2450     1.0  0.50258  0.87199  0.57410  1.0000
  H   H2451     1.0  0.48838  0.88614  0.55102  1.0000
  N   N77       1.0  0.47414  0.84006  0.76262  1.0000
  C   C1396     1.0  0.46497  0.85364  0.77652  1.0000
  C   C1397     1.0  0.47695  0.82508  0.78410  1.0000
  C   C1398     1.0  0.49441  0.84192  0.74458  1.0000
  C   C1399     1.0  0.49806  0.85903  0.73095  1.0000
  C   C1400     1.0  0.47707  0.85512  0.79650  1.0000
  C   C1401     1.0  0.51896  0.85864  0.71269  1.0000
  C   C1402     1.0  0.47177  0.87166  0.80208  1.0000
  H   H2452     1.0  0.44946  0.85239  0.78811  1.0000
  H   H2453     1.0  0.46263  0.86507  0.76189  1.0000
  H   H2454     1.0  0.46254  0.82400  0.79895  1.0000
  H   H2455     1.0  0.48801  0.82559  0.79576  1.0000
  H   H2456     1.0  0.50669  0.83651  0.75600  1.0000
  H   H2457     1.0  0.49742  0.83513  0.72869  1.0000
  H   H2458     1.0  0.49765  0.86577  0.74600  1.0000
  H   H2459     1.0  0.48660  0.86591  0.71899  1.0000
  H   H2460     1.0  0.47329  0.84671  0.81562  1.0000
  H   H2461     1.0  0.49366  0.85218  0.78937  1.0000
  H   H2462     1.0  0.44938  0.86373  0.72928  1.0000
  H   H2463     1.0  0.52087  0.87083  0.70178  1.0000
  H   H2464     1.0  0.53093  0.85356  0.72473  1.0000
  H   H2465     1.0  0.52102  0.85135  0.69779  1.0000
  H   H2466     1.0  0.48026  0.87221  0.81694  1.0000
  H   H2467     1.0  0.47610  0.88019  0.78327  1.0000
  H   H2468     1.0  0.45534  0.87473  0.81013  1.0000
  H   H2469     1.0  0.49766  0.78466  0.78880  1.0000
  H   H2470     1.0  0.50416  0.79410  0.62472  1.0000
  H   H2471     1.0  0.61385  0.82274  0.81047  1.0000
  H   H2472     1.0  0.36783  0.85365  0.62613  1.0000
  H   H2473     1.0  0.51133  0.81333  0.61708  1.0000
  N   N78       1.0  0.55983  0.91848  0.72351  1.0000
  C   C1403     1.0  0.57301  0.90835  0.74290  1.0000
  C   C1404     1.0  0.54309  0.91027  0.72350  1.0000
  C   C1405     1.0  0.57295  0.92059  0.69579  1.0000
  C   C1406     1.0  0.55109  0.93470  0.72949  1.0000
  C   C1407     1.0  0.53871  0.93530  0.75799  1.0000
  C   C1408     1.0  0.56198  0.93008  0.67253  1.0000
  C   C1409     1.0  0.53558  0.89858  0.74969  1.0000
  C   C1410     1.0  0.51616  0.89390  0.74861  1.0000
  C   C1411     1.0  0.52934  0.95243  0.76022  1.0000
  C   C1412     1.0  0.57561  0.92885  0.64531  1.0000
  H   H2474     1.0  0.57877  0.89635  0.73822  1.0000
  H   H2475     1.0  0.56419  0.90632  0.76371  1.0000
  H   H2476     1.0  0.52974  0.91918  0.71760  1.0000
  H   H2477     1.0  0.54800  0.90294  0.70801  1.0000
  H   H2478     1.0  0.58081  0.90877  0.69140  1.0000
  H   H2479     1.0  0.61126  0.81162  0.68327  1.0000
  H   H2480     1.0  0.54092  0.94167  0.71552  1.0000
  H   H2481     1.0  0.54846  0.93014  0.77311  1.0000
  H   H2482     1.0  0.52601  0.92895  0.76273  1.0000
  H   H2483     1.0  0.55792  0.94283  0.67323  1.0000
  H   H2484     1.0  0.54801  0.92589  0.67345  1.0000
  H   H2485     1.0  0.54722  0.88757  0.75246  1.0000
  H   H2486     1.0  0.53252  0.90358  0.76766  1.0000
  H   H2487     1.0  0.51190  0.88486  0.76689  1.0000
  H   H2488     1.0  0.50373  0.90444  0.74767  1.0000
  H   H2489     1.0  0.51838  0.88880  0.73083  1.0000
  H   H2490     1.0  0.54093  0.96006  0.75294  1.0000
  H   H2491     1.0  0.52249  0.95292  0.78138  1.0000
  H   H2492     1.0  0.57963  0.91638  0.64286  1.0000
  H   H2493     1.0  0.58964  0.93337  0.64304  1.0000
  N   N79       1.0  0.44908  0.82357  0.61221  1.0000
  C   C1413     1.0  0.44424  0.83091  0.58472  1.0000
  C   C1414     1.0  0.43763  0.81029  0.62638  1.0000
  C   C1415     1.0  0.44793  0.79333  0.62217  1.0000
  C   C1416     1.0  0.41989  0.84478  0.63068  1.0000
  C   C1417     1.0  0.45014  0.81998  0.56444  1.0000
  C   C1418     1.0  0.44803  0.82952  0.53633  1.0000
  C   C1419     1.0  0.43275  0.78218  0.63154  1.0000
  C   C1420     1.0  0.41364  0.85487  0.65176  1.0000
  H   H2494     1.0  0.42769  0.83530  0.58602  1.0000
  H   H2495     1.0  0.45141  0.84153  0.57552  1.0000
  H   H2496     1.0  0.42261  0.81315  0.62065  1.0000
  H   H2497     1.0  0.45485  0.79309  0.60103  1.0000
  H   H2498     1.0  0.40995  0.83596  0.63665  1.0000
  H   H2499     1.0  0.41709  0.85281  0.61140  1.0000
  H   H2500     1.0  0.46598  0.81351  0.56298  1.0000
  H   H2501     1.0  0.43982  0.81136  0.57028  1.0000
  H   H2502     1.0  0.45138  0.82140  0.52239  1.0000
  H   H2503     1.0  0.43242  0.83635  0.53630  1.0000
  H   H2504     1.0  0.45874  0.83788  0.52887  1.0000
  H   H2505     1.0  0.42109  0.78597  0.61892  1.0000
  H   H2506     1.0  0.42520  0.78202  0.65273  1.0000
  H   H2507     1.0  0.42333  0.86387  0.64695  1.0000
  H   H2508     1.0  0.41465  0.84726  0.67192  1.0000
  C   C1421     1.0  0.61184  0.82050  0.69426  1.0000
  H   H2509     1.0  0.62690  0.82397  0.68728  1.0000
  H   H2510     1.0  0.43391  0.92043  0.76029  1.0000
  C   C1422     1.0  0.49255  0.79584  0.79616  1.0000
  H   H2511     1.0  0.50568  0.79848  0.80150  1.0000
  C   C1423     1.0  0.44242  0.83642  0.62819  1.0000
  H   H2512     1.0  0.56327  0.94154  0.72578  1.0000
  H   H2513     1.0  0.52442  0.95222  0.66281  1.0000
  N   N80       1.0  0.44724  0.92231  0.80457  1.0000
  C   C1424     1.0  0.45934  0.83844  0.74735  1.0000
  C   C1425     1.0  0.45500  0.85215  0.72332  1.0000
  H   H2514     1.0  0.49720  0.81035  0.75655  1.0000
  H   H2515     1.0  0.46890  0.85263  0.70787  1.0000
  H   H2516     1.0  0.44069  0.76992  0.63001  1.0000
  C   C1426     1.0  0.43370  0.91077  0.82099  1.0000
  H   H2517     1.0  0.49105  0.95770  0.51226  1.0000
  S   S337      1.0  0.46963  0.86901  0.49640  1.0000
  H   H2518     1.0  0.51732  0.95729  0.74822  1.0000
  C   C1427     1.0  0.39603  0.91863  0.74642  1.0000
  C   C1428     1.0  0.40639  0.89304  0.73417  1.0000
  C   C1429     1.0  0.38284  0.88459  0.93950  1.0000
  H   H2519     1.0  0.44466  0.83698  0.76127  1.0000
  H   H2520     1.0  0.45175  0.84580  0.61950  1.0000
  H   H2521     1.0  0.39768  0.86111  0.65217  1.0000
  H   H2522     1.0  0.40396  0.91542  0.70588  1.0000
  H   H2523     1.0  0.48045  0.79417  0.81433  1.0000
  H   H2524     1.0  0.47754  0.80842  0.59898  1.0000
  Fe  Fe167     1.0  0.57687  0.91079  0.49874  1.0000
  C   C1430     1.0  0.63058  0.81222  0.77643  1.0000
  H   H2525     1.0  0.55145  0.98608  0.56496  1.0000
  H   H2526     1.0  0.58503  0.92715  0.69436  1.0000
  H   H2527     1.0  0.61602  0.90858  0.76575  1.0000
  H   H2528     1.0  0.45246  0.92869  0.83888  1.0000
  N   N81       1.0  0.47356  0.97182  0.54072  1.0000
  H   H2529     1.0  0.46484  0.82765  0.73882  1.0000
  H   H2530     1.0  0.47225  0.80577  0.76889  1.0000
  C   C1431     1.0  0.47172  0.81836  0.60949  1.0000
  H   H2531     1.0  0.47945  0.82814  0.59665  1.0000
  H   H2532     1.0  0.44484  0.83142  0.64906  1.0000
  C   C1432     1.0  0.59159  0.91477  0.74386  1.0000
  H   H2533     1.0  0.60791  0.89176  0.76174  1.0000
  Fe  Fe168     1.0  0.40388  0.85395  0.81312  1.0000
  S   S338      1.0  0.40952  0.86463  0.76929  1.0000
  C   C1433     1.0  0.40399  0.88538  0.76114  1.0000
  H   H2534     1.0  0.65067  0.96697  0.69480  1.0000
  H   H2535     1.0  0.39429  0.93783  0.61387  1.0000
  C   C1434     1.0  0.51494  0.95926  0.67673  1.0000
  H   H2536     1.0  0.44760  0.97979  0.52151  1.0000
  C   C1435     1.0  0.65308  0.74944  0.69350  1.0000
  H   H2537     1.0  0.33635  0.82541  0.63638  1.0000
  H   H2538     1.0  0.56755  0.93616  0.62915  1.0000
  H   H2539     1.0  0.47089  0.80483  0.65106  1.0000
  C   C1436     1.0  0.52218  0.97106  0.68260  1.0000
  S   S339      1.0  0.39188  0.93942  0.73712  1.0000
  C   C1437     1.0  0.43932  0.84944  0.71006  1.0000
  H   H2540     1.0  0.42462  0.84906  0.72426  1.0000
  H   H2541     1.0  0.60877  0.96975  0.83418  1.0000
  C   C1438     1.0  0.60264  0.90393  0.76558  1.0000
  C   C1439     1.0  0.52359  0.92941  0.92917  1.0000
  C   C1440     1.0  0.45815  0.87587  0.94640  1.0000
  H   H2542     1.0  0.48492  0.84285  0.92928  1.0000
  S   S340      1.0  0.43773  0.93097  0.67830  1.0000
  C   C1441     1.0  0.40078  0.93058  0.59919  1.0000
  H   H2543     1.0  0.43688  0.85938  0.69268  1.0000
  H   H2544     1.0  0.44457  0.83817  0.70291  1.0000
  C   C1442     1.0  0.47964  0.81316  0.63605  1.0000
  H   H2545     1.0  0.40773  0.85089  0.91833  1.0000
  H   H2546     1.0  0.64288  0.96693  0.75604  1.0000
  C   C1443     1.0  0.64790  0.96012  0.79593  1.0000
  C   C1444     1.0  0.66266  0.97411  0.68515  1.0000
  H   H2547     1.0  0.62082  0.78975  0.72029  1.0000
  H   H2548     1.0  0.47830  0.82357  0.64456  1.0000
  H   H2549     1.0  0.44185  0.89992  0.77499  1.0000
  H   H2550     1.0  0.56002  0.92127  0.94153  1.0000
  H   H2551     1.0  0.59251  0.90334  0.78556  1.0000
  C   C1445     1.0  0.35245  0.78731  0.85394  1.0000
  C   C1446     1.0  0.50195  0.80521  0.63179  1.0000
  H   H2552     1.0  0.58765  0.90611  0.91956  1.0000
  H   H2553     1.0  0.46617  0.77459  0.79446  1.0000
  H   H2554     1.0  0.47270  0.89682  0.93117  1.0000
  H   H2555     1.0  0.60930  0.93602  0.91341  1.0000
  S   S341      1.0  0.39999  0.83211  0.88709  1.0000
  C   C1447     1.0  0.33212  0.80722  0.60405  1.0000
  H   H2556     1.0  0.61005  0.82307  0.73374  1.0000
  H   H2557     1.0  0.60046  0.80972  0.77615  1.0000
  H   H2558     1.0  0.65765  0.98340  0.66817  1.0000
  C   C1448     1.0  0.60944  0.92747  0.96603  1.0000
  H   H2559     1.0  0.62498  0.92716  0.95385  1.0000
  C   C1449     1.0  0.54355  0.93149  0.90969  1.0000
  C   C1450     1.0  0.36993  0.78114  0.59829  1.0000
  H   H2560     1.0  0.54810  0.92166  0.89906  1.0000
  S   S342      1.0  0.37387  0.85363  0.84132  1.0000
  H   H2561     1.0  0.50721  0.80216  0.65103  1.0000
  C   C1451     1.0  0.56010  0.93172  0.92455  1.0000
  H   H2562     1.0  0.55479  0.94231  0.93373  1.0000
  C   C1452     1.0  0.38280  0.76572  0.61072  1.0000
  H   H2563     1.0  0.59219  0.81235  0.73127  1.0000
  H   H2564     1.0  0.44957  0.89851  0.51109  1.0000
  C   C1453     1.0  0.62277  0.79796  0.73179  1.0000
  C   C1454     1.0  0.55209  0.86046  0.50013  1.0000
  H   H2565     1.0  0.49626  0.86376  0.92913  1.0000
  H   H2566     1.0  0.48620  0.94436  0.61514  1.0000
  H   H2567     1.0  0.39821  0.76768  0.60949  1.0000
  H   H2568     1.0  0.54054  0.94273  0.89479  1.0000
  Fe  Fe169     1.0  0.38691  0.82788  0.85517  1.0000
  S   S343      1.0  0.50211  0.92785  0.50277  1.0000
  H   H2569     1.0  0.33391  0.91097  0.96044  1.0000
  C   C1455     1.0  0.57147  0.85009  0.50839  1.0000
  C   C1456     1.0  0.49928  0.94963  0.60268  1.0000
  H   H2570     1.0  0.63732  0.81656  0.75515  1.0000
  C   C1457     1.0  0.58725  0.95241  0.56554  1.0000
  H   H2571     1.0  0.44161  0.94518  0.75276  1.0000
  H   H2572     1.0  0.34656  0.81162  0.59812  1.0000
  H   H2573     1.0  0.60183  0.82322  0.60228  1.0000
  C   C1458     1.0  0.42769  0.78941  0.77356  1.0000
  H   H2574     1.0  0.35525  0.84932  0.93565  1.0000
  H   H2575     1.0  0.58087  0.92298  0.96523  1.0000
  H   H2576     1.0  0.39211  0.98401  0.73756  1.0000
  C   C1459     1.0  0.47888  0.93176  0.80873  1.0000
  C   C1460     1.0  0.39327  0.91099  0.77354  1.0000
  S   S344      1.0  0.37890  0.77878  0.67293  1.0000
  H   H2577     1.0  0.62189  0.91596  0.89492  1.0000
  C   C1461     1.0  0.49522  0.95693  0.68809  1.0000
  H   H2578     1.0  0.47086  0.90514  0.78730  1.0000
  H   H2579     1.0  0.57312  0.86411  0.53479  1.0000
  C   C1462     1.0  0.45780  0.89387  0.94204  1.0000
  H   H2580     1.0  0.60511  0.80849  0.58285  1.0000
  N   N82       1.0  0.58123  0.93172  0.90793  1.0000
  H   H2581     1.0  0.60907  0.89078  0.87596  1.0000
  H   H2582     1.0  0.43851  0.79299  0.81853  1.0000
  C   C1463     1.0  0.48987  0.97821  0.71124  1.0000
  C   C1464     1.0  0.44241  0.94953  0.77025  1.0000
  H   H2583     1.0  0.39530  0.88845  0.80184  1.0000
  S   S345      1.0  0.48672  0.94190  0.68096  1.0000
  C   C1465     1.0  0.34772  0.78795  0.80961  1.0000
  C   C1466     1.0  0.62082  0.82657  0.78906  1.0000
  H   H2584     1.0  0.57974  0.79180  0.75379  1.0000
  H   H2585     1.0  0.37594  0.97009  0.75651  1.0000
  C   C1467     1.0  0.43189  0.95322  0.52837  1.0000
  C   C1468     1.0  0.61246  0.81715  0.58690  1.0000
  H   H2586     1.0  0.64655  0.96529  0.81341  1.0000
  H   H2587     1.0  0.58717  0.94712  0.92938  1.0000
  H   H2588     1.0  0.39573  0.79992  0.77165  1.0000
  H   H2589     1.0  0.48420  0.97340  0.59030  1.0000
  C   C1469     1.0  0.44221  0.90363  0.92519  1.0000
  H   H2590     1.0  0.42176  0.95358  0.54818  1.0000
  C   C1470     1.0  0.41744  0.91207  0.56063  1.0000
  C   C1471     1.0  0.38814  0.92550  0.58734  1.0000
  H   H2591     1.0  0.43043  0.94490  0.81316  1.0000
  H   H2592     1.0  0.36332  0.97668  0.71383  1.0000
  H   H2593     1.0  0.43198  0.94195  0.52301  1.0000
  H   H2594     1.0  0.63823  0.80053  0.72284  1.0000
  C   C1472     1.0  0.46185  0.76030  0.70989  1.0000
  H   H2595     1.0  0.37603  0.76164  0.63213  1.0000
  H   H2596     1.0  0.62610  0.81057  0.59512  1.0000
  C   C1473     1.0  0.33843  0.79875  0.56101  1.0000
  S   S346      1.0  0.40106  0.95982  0.65846  1.0000
  H   H2597     1.0  0.57577  0.94007  0.86743  1.0000
  H   H2598     1.0  0.40391  0.78420  0.82479  1.0000
  C   C1474     1.0  0.42177  0.92671  0.59118  1.0000
  C   C1475     1.0  0.34806  0.77908  0.60124  1.0000
  C   C1476     1.0  0.51035  0.97234  0.51367  1.0000
  H   H2599     1.0  0.44476  0.75210  0.80778  1.0000
  H   H2600     1.0  0.61228  0.91921  0.86464  1.0000
  C   C1477     1.0  0.49354  0.86580  0.94972  1.0000
  H   H2601     1.0  0.45184  0.98495  0.58439  1.0000
  H   H2602     1.0  0.51204  0.92949  0.91787  1.0000
  H   H2603     1.0  0.47770  0.83935  0.98098  1.0000
  H   H2604     1.0  0.42684  0.90130  0.93527  1.0000
  H   H2605     1.0  0.51818  0.96222  0.52709  1.0000
  C   C1478     1.0  0.53125  0.85555  0.94554  1.0000
  H   H2606     1.0  0.33721  0.87544  0.94136  1.0000
  C   C1479     1.0  0.57987  0.94459  0.88280  1.0000
  H   H2607     1.0  0.56738  0.95469  0.88706  1.0000
  H   H2608     1.0  0.44613  0.90063  0.90517  1.0000
  Fe  Fe170     1.0  0.41133  0.94728  0.69719  1.0000
  C   C1480     1.0  0.43004  0.91738  0.57201  1.0000
  C   C1481     1.0  0.45352  0.96977  0.53704  1.0000
  C   C1482     1.0  0.65395  0.98606  0.76389  1.0000
  H   H2609     1.0  0.34021  0.79563  0.64315  1.0000
  H   H2610     1.0  0.44237  0.87399  0.95455  1.0000
  H   H2611     1.0  0.36610  0.80816  0.55731  1.0000
  H   H2612     1.0  0.58007  0.91334  0.88860  1.0000
  Fe  Fe171     1.0  0.45483  0.94975  0.67491  1.0000
  C   C1483     1.0  0.48878  0.96987  0.51535  1.0000
  H   H2613     1.0  0.54374  0.85321  0.49417  1.0000
  H   H2614     1.0  0.51807  0.93922  0.94007  1.0000
  H   H2615     1.0  0.40080  0.82781  0.75465  1.0000
  C   C1484     1.0  0.42142  0.91432  0.84831  1.0000
  C   C1485     1.0  0.56397  0.97697  0.57077  1.0000
  C   C1486     1.0  0.45999  0.90816  0.73708  1.0000
  C   C1487     1.0  0.39646  0.91635  0.56786  1.0000
  H   H2616     1.0  0.61156  0.83364  0.49987  1.0000
  H   H2617     1.0  0.46622  0.77497  0.76065  1.0000
  S   S347      1.0  0.58447  0.75304  0.72201  1.0000
  H   H2618     1.0  0.36812  0.82258  0.51046  1.0000
  C   C1488     1.0  0.41327  0.81751  0.75188  1.0000
  S   S348      1.0  0.60348  0.96854  0.62053  1.0000
  C   C1489     1.0  0.57318  0.97814  0.59093  1.0000
  H   H2619     1.0  0.38809  0.91792  0.78879  1.0000
  H   H2620     1.0  0.60981  0.94501  0.59012  1.0000
  C   C1490     1.0  0.61505  0.80170  0.77922  1.0000
  H   H2621     1.0  0.41410  0.81483  0.73221  1.0000
  C   C1491     1.0  0.59860  0.95243  0.86949  1.0000
  Fe  Fe172     1.0  0.38965  0.85792  0.87050  1.0000
  H   H2622     1.0  0.46784  0.91059  0.83154  1.0000
  H   H2623     1.0  0.43158  0.91274  0.86240  1.0000
  C   C1492     1.0  0.46557  0.89841  0.50586  1.0000
  C   C1493     1.0  0.43414  0.93838  0.79671  1.0000
  H   H2624     1.0  0.37023  0.79032  0.60864  1.0000
  H   H2625     1.0  0.40587  0.80701  0.79370  1.0000
  H   H2626     1.0  0.66381  0.95415  0.78996  1.0000
  H   H2627     1.0  0.51025  0.87478  0.48602  1.0000
  H   H2628     1.0  0.33525  0.96855  0.73773  1.0000
  H   H2629     1.0  0.42116  0.84618  0.95946  1.0000
  H   H2630     1.0  0.45831  0.95032  0.76837  1.0000
  C   C1494     1.0  0.61844  0.82928  0.56132  1.0000
  H   H2631     1.0  0.63000  0.82285  0.54722  1.0000
  H   H2632     1.0  0.60037  0.95991  0.88231  1.0000
  H   H2633     1.0  0.61275  0.94362  0.86647  1.0000
  S   S349      1.0  0.37659  0.87580  0.89672  1.0000
  C   C1495     1.0  0.45337  0.95419  0.52919  1.0000
  C   C1496     1.0  0.38511  0.83334  0.57602  1.0000
  H   H2634     1.0  0.59392  0.82881  0.54378  1.0000
  H   H2635     1.0  0.58766  0.84254  0.56450  1.0000
  C   C1497     1.0  0.44730  0.91106  0.76404  1.0000
  H   H2636     1.0  0.57905  0.79424  0.78691  1.0000
  C   C1498     1.0  0.38861  0.87324  0.92366  1.0000
  H   H2637     1.0  0.59610  0.95612  0.82790  1.0000
  H   H2638     1.0  0.44625  0.91456  0.56536  1.0000
  H   H2639     1.0  0.61207  0.79532  0.80059  1.0000
  N   N83       1.0  0.62123  0.79001  0.76115  1.0000
  H   H2640     1.0  0.43195  0.78726  0.75295  1.0000
  C   C1499     1.0  0.59978  0.83806  0.54867  1.0000
  C   C1500     1.0  0.61702  0.84398  0.50177  1.0000
  C   C1501     1.0  0.40923  0.80322  0.77442  1.0000
  C   C1502     1.0  0.58927  0.91560  0.90115  1.0000
  S   S350      1.0  0.43830  0.93420  0.60295  1.0000
  Fe  Fe173     1.0  0.42935  0.94506  0.63933  1.0000
  C   C1503     1.0  0.41050  0.85695  0.95395  1.0000
  H   H2641     1.0  0.50622  0.95371  0.61586  1.0000
  H   H2642     1.0  0.41920  0.93703  0.79426  1.0000
  C   C1504     1.0  0.58378  0.78581  0.77340  1.0000
  C   C1505     1.0  0.35877  0.81324  0.51854  1.0000
  H   H2643     1.0  0.62545  0.83758  0.56686  1.0000
  S   S351      1.0  0.33826  0.77964  0.78943  1.0000
  H   H2644     1.0  0.57426  0.76434  0.77260  1.0000
  S   S352      1.0  0.42932  0.96511  0.69687  1.0000
  H   H2645     1.0  0.59987  0.86101  0.57292  1.0000
  Fe  Fe174     1.0  0.59294  0.97917  0.70967  1.0000
  Fe  Fe175     1.0  0.39594  0.89357  0.52515  1.0000
  H   H2646     1.0  0.44762  0.77265  0.83428  1.0000
  H   H2647     1.0  0.63816  0.95106  0.80192  1.0000
  H   H2648     1.0  0.39349  0.77615  0.79176  1.0000
  H   H2649     1.0  0.58822  0.87801  0.55109  1.0000
  H   H2650     1.0  0.46870  0.82079  0.93096  1.0000
  C   C1506     1.0  0.46780  0.82466  0.94966  1.0000
  H   H2651     1.0  0.52548  0.91790  0.94381  1.0000
  C   C1507     1.0  0.58991  0.96671  0.59772  1.0000
  C   C1508     1.0  0.60284  0.87020  0.55444  1.0000
  H   H2652     1.0  0.60724  0.88610  0.57644  1.0000
  S   S353      1.0  0.37748  0.88242  0.50829  1.0000
  C   C1509     1.0  0.37823  0.84624  0.58848  1.0000
  C   C1510     1.0  0.47565  0.76969  0.70939  1.0000
  H   H2653     1.0  0.48897  0.92658  0.79205  1.0000
  C   C1511     1.0  0.60667  0.77861  0.76979  1.0000
  N   N84       1.0  0.60341  0.85120  0.52433  1.0000
  H   H2654     1.0  0.63452  0.89313  0.87336  1.0000
  H   H2655     1.0  0.39588  0.90390  0.84879  1.0000
  C   C1512     1.0  0.61578  0.88023  0.55973  1.0000
  H   H2656     1.0  0.46231  0.92174  0.51272  1.0000
  H   H2657     1.0  0.62994  0.87266  0.56544  1.0000
  H   H2658     1.0  0.37488  0.75465  0.79379  1.0000
  C   C1513     1.0  0.48255  0.96652  0.70508  1.0000
  S   S354      1.0  0.44844  0.96285  0.63485  1.0000
  H   H2659     1.0  0.61965  0.88955  0.54171  1.0000
  S   S355      1.0  0.36922  0.80809  0.86699  1.0000
  C   C1514     1.0  0.36326  0.80794  0.81674  1.0000
  H   H2660     1.0  0.37210  0.89532  0.93396  1.0000
  C   C1515     1.0  0.59578  0.92315  0.95150  1.0000
  H   H2661     1.0  0.39364  0.80799  0.58194  1.0000
  C   C1516     1.0  0.61351  0.86296  0.52962  1.0000
  H   H2662     1.0  0.62949  0.85764  0.53133  1.0000
  C   C1517     1.0  0.59372  0.93521  0.92462  1.0000
  N   N85       1.0  0.33329  0.79362  0.59126  1.0000
  H   H2663     1.0  0.60910  0.77050  0.78925  1.0000
  H   H2664     1.0  0.55483  0.77838  0.78840  1.0000
  C   C1518     1.0  0.61138  0.91255  0.88573  1.0000
  C   C1519     1.0  0.49981  0.88502  0.49186  1.0000
  C   C1520     1.0  0.40684  0.90288  0.86157  1.0000
  H   H2665     1.0  0.60899  0.83446  0.77832  1.0000
  H   H2666     1.0  0.34919  0.76953  0.59068  1.0000
  C   C1521     1.0  0.59607  0.96324  0.84229  1.0000
  H   H2667     1.0  0.54212  0.86549  0.51706  1.0000
  C   C1522     1.0  0.36125  0.80080  0.84406  1.0000
  H   H2668     1.0  0.50676  0.96743  0.56748  1.0000
  H   H2669     1.0  0.61453  0.87322  0.51226  1.0000
  C   C1523     1.0  0.40832  0.76821  0.78709  1.0000
  C   C1524     1.0  0.46112  0.92291  0.82208  1.0000
  C   C1525     1.0  0.37553  0.82818  0.63215  1.0000
  H   H2670     1.0  0.37624  0.85821  0.57654  1.0000
  C   C1526     1.0  0.37338  0.84365  0.61654  1.0000
  C   C1527     1.0  0.57829  0.87671  0.94659  1.0000
  H   H2671     1.0  0.39532  0.74552  0.77057  1.0000
  H   H2672     1.0  0.64173  0.77534  0.78689  1.0000
  H   H2673     1.0  0.44436  0.75575  0.77307  1.0000
  H   H2674     1.0  0.41115  0.76845  0.76524  1.0000
  H   H2675     1.0  0.45219  0.84782  0.97973  1.0000
  C   C1528     1.0  0.58330  0.85984  0.51728  1.0000
  H   H2676     1.0  0.45945  0.94366  0.54367  1.0000
  H   H2677     1.0  0.34537  0.81688  0.50892  1.0000
  H   H2678     1.0  0.36964  0.81857  0.80905  1.0000
  H   H2679     1.0  0.62502  0.97786  0.77935  1.0000
  H   H2680     1.0  0.63240  0.83903  0.50630  1.0000
  S   S356      1.0  0.36933  0.82517  0.66726  1.0000
  Fe  Fe176     1.0  0.36742  0.80026  0.69074  1.0000
  S   S357      1.0  0.38055  0.91087  0.55198  1.0000
  H   H2681     1.0  0.58050  0.84505  0.49104  1.0000
  H   H2682     1.0  0.50880  0.84224  0.96913  1.0000
  H   H2683     1.0  0.48251  0.74597  0.80124  1.0000
  C   C1529     1.0  0.40486  0.75134  0.80256  1.0000
  H   H2684     1.0  0.44277  0.89853  0.82517  1.0000
  C   C1530     1.0  0.47972  0.95934  0.56448  1.0000
  C   C1531     1.0  0.45960  0.91576  0.78066  1.0000
  C   C1532     1.0  0.49291  0.96360  0.58045  1.0000
  H   H2685     1.0  0.46638  0.74752  0.71365  1.0000
  H   H2686     1.0  0.60964  0.77086  0.75521  1.0000
  Fe  Fe177     1.0  0.35014  0.77065  0.69685  1.0000
  H   H2687     1.0  0.45059  0.90475  0.72611  1.0000
  C   C1533     1.0  0.61887  0.89499  0.88522  1.0000
  H   H2688     1.0  0.44202  0.97013  0.55591  1.0000
  C   C1534     1.0  0.59685  0.95385  0.58501  1.0000
  S   S358      1.0  0.39030  0.83615  0.54109  1.0000
  H   H2689     1.0  0.44032  0.79407  0.77610  1.0000
  C   C1535     1.0  0.46472  0.76745  0.78110  1.0000
  C   C1536     1.0  0.47282  0.91156  0.50674  1.0000
  H   H2690     1.0  0.64303  0.80525  0.78687  1.0000
  H   H2691     1.0  0.45790  0.84880  0.93172  1.0000
  H   H2692     1.0  0.63243  0.83351  0.78782  1.0000
  H   H2693     1.0  0.54818  0.88975  0.94412  1.0000
  H   H2694     1.0  0.43630  0.78975  0.86677  1.0000
  C   C1537     1.0  0.42868  0.89712  0.65820  1.0000
  C   C1538     1.0  0.57115  0.77287  0.78578  1.0000
  H   H2695     1.0  0.46612  0.95618  0.57942  1.0000
  H   H2696     1.0  0.46534  0.91910  0.72480  1.0000
  H   H2697     1.0  0.43144  0.89455  0.67882  1.0000
  H   H2698     1.0  0.42342  0.91008  0.65161  1.0000
  H   H2699     1.0  0.49672  0.91817  0.83892  1.0000
  Fe  Fe178     1.0  0.43576  0.87495  0.50086  1.0000
  H   H2700     1.0  0.57440  0.76641  0.80576  1.0000
  C   C1539     1.0  0.47003  0.84200  0.94274  1.0000
  C   C1540     1.0  0.47897  0.88518  0.49830  1.0000
  S   S359      1.0  0.36434  0.75778  0.73246  1.0000
  Fe  Fe179     1.0  0.39884  0.85985  0.52121  1.0000
  C   C1541     1.0  0.38290  0.81537  0.61957  1.0000
  H   H2701     1.0  0.41646  0.89106  0.65829  1.0000
  C   C1542     1.0  0.61079  0.75244  0.71164  1.0000
  N   N86       1.0  0.42505  0.77399  0.79324  1.0000
  C   C1543     1.0  0.64179  0.78032  0.76516  1.0000
  H   H2702     1.0  0.37189  0.92880  0.59305  1.0000
  H   H2703     1.0  0.35781  0.80712  0.77848  1.0000
  H   H2704     1.0  0.42765  0.82073  0.75190  1.0000
  H   H2705     1.0  0.43108  0.97164  0.78422  1.0000
  H   H2706     1.0  0.46896  0.92417  0.76684  1.0000
  C   C1544     1.0  0.44424  0.76165  0.78935  1.0000
  C   C1545     1.0  0.41888  0.77611  0.82174  1.0000
  C   C1546     1.0  0.43402  0.78206  0.83206  1.0000
  H   H2707     1.0  0.41150  0.79532  0.85897  1.0000
  Fe  Fe180     1.0  0.35374  0.78079  0.74633  1.0000
  C   C1547     1.0  0.40289  0.85960  0.93058  1.0000
  H   H2708     1.0  0.48290  0.93729  0.84479  1.0000
  C   C1548     1.0  0.35658  0.80145  0.79946  1.0000
  C   C1549     1.0  0.39018  0.88182  0.96317  1.0000
  C   C1550     1.0  0.42988  0.96632  0.76800  1.0000
  C   C1551     1.0  0.56038  0.88691  0.95489  1.0000
  Fe  Fe181     1.0  0.42113  0.97657  0.65684  1.0000
  C   C1552     1.0  0.42502  0.78571  0.85975  1.0000
  H   H2709     1.0  0.61891  0.88774  0.90585  1.0000
  H   H2710     1.0  0.47319  0.94453  0.80142  1.0000
  S   S360      1.0  0.55680  0.93436  0.48809  1.0000
  H   H2711     1.0  0.51059  0.94026  0.59418  1.0000
  H   H2712     1.0  0.41653  0.76469  0.83574  1.0000
  H   H2713     1.0  0.60788  0.86523  0.95469  1.0000
  H   H2714     1.0  0.50532  0.93592  0.81900  1.0000
  C   C1553     1.0  0.38771  0.81793  0.59158  1.0000
  C   C1554     1.0  0.49169  0.93070  0.82910  1.0000
  H   H2715     1.0  0.38528  0.80352  0.63134  1.0000
  C   C1555     1.0  0.52275  0.97283  0.48527  1.0000
  H   H2716     1.0  0.48774  0.94804  0.55821  1.0000
  H   H2717     1.0  0.36416  0.97875  0.62990  1.0000
  H   H2718     1.0  0.34901  0.88240  0.97376  1.0000
  C   C1556     1.0  0.35227  0.81127  0.54889  1.0000
  H   H2719     1.0  0.35072  0.78179  0.87502  1.0000
  H   H2720     1.0  0.33832  0.84498  0.90359  1.0000
  H   H2721     1.0  0.34537  0.78824  0.55189  1.0000
  H   H2722     1.0  0.51058  0.85872  0.98198  1.0000
  H   H2723     1.0  0.39822  0.90562  0.88106  1.0000
  H   H2724     1.0  0.41527  0.89045  0.86542  1.0000
  H   H2725     1.0  0.41895  0.74230  0.80060  1.0000
  C   C1557     1.0  0.48262  0.75355  0.78084  1.0000
  C   C1558     1.0  0.62416  0.74068  0.72570  1.0000
  S   S361      1.0  0.33789  0.79306  0.71234  1.0000
  H   H2726     1.0  0.64077  0.75684  0.75970  1.0000
  H   H2727     1.0  0.48024  0.98543  0.72482  1.0000
  C   C1559     1.0  0.59398  0.87314  0.96090  1.0000
  N   N87       1.0  0.47208  0.86471  0.96396  1.0000
  C   C1560     1.0  0.50713  0.89819  0.49285  1.0000
  H   H2728     1.0  0.63525  0.98663  0.72215  1.0000
  H   H2729     1.0  0.39876  0.75116  0.82412  1.0000
  H   H2730     1.0  0.48288  0.97792  0.49774  1.0000
  H   H2731     1.0  0.46856  0.98549  0.64872  1.0000
  H   H2732     1.0  0.33864  0.77068  0.84496  1.0000
  H   H2733     1.0  0.65343  0.78794  0.75813  1.0000
  H   H2734     1.0  0.42572  0.96319  0.51312  1.0000
  H   H2735     1.0  0.60246  0.91101  0.94818  1.0000
  H   H2736     1.0  0.48011  0.81699  0.95973  1.0000
  C   C1561     1.0  0.51050  0.85480  0.96375  1.0000
  Fe  Fe182     1.0  0.58946  0.98296  0.65216  1.0000
  H   H2737     1.0  0.34246  0.77409  0.62268  1.0000
  H   H2738     1.0  0.34786  0.97874  0.67799  1.0000
  H   H2739     1.0  0.48211  0.74631  0.76689  1.0000
  H   H2740     1.0  0.52319  0.89811  0.48769  1.0000
  H   H2741     1.0  0.49618  0.87801  0.94672  1.0000
  H   H2742     1.0  0.54331  0.84821  0.95638  1.0000
  H   H2743     1.0  0.53388  0.86791  0.93919  1.0000
  H   H2744     1.0  0.45376  0.89780  0.96126  1.0000
  H   H2745     1.0  0.38521  0.89044  0.97563  1.0000
  C   C1562     1.0  0.46790  0.84824  0.96830  1.0000
  C   C1563     1.0  0.37750  0.98272  0.75155  1.0000
  H   H2746     1.0  0.60326  0.93943  0.97049  1.0000
  H   H2747     1.0  0.58169  0.97203  0.84410  1.0000
  H   H2748     1.0  0.43546  0.97390  0.74846  1.0000
  H   H2749     1.0  0.53854  0.97355  0.48487  1.0000
  H   H2750     1.0  0.36550  0.85549  0.97024  1.0000
  H   H2751     1.0  0.51047  0.98351  0.51903  1.0000
  H   H2752     1.0  0.64895  0.77037  0.72903  1.0000
  H   H2753     1.0  0.33379  0.84032  0.95271  1.0000
  H   H2754     1.0  0.71791  0.99565  0.03216  1.0000
  S   S362      1.0  0.66892  0.00260  0.10734  1.0000
  C   C1564     1.0  0.73389  0.99192  0.10945  1.0000
  H   H2755     1.0  0.74608  0.00096  0.04892  1.0000
  H   H2756     1.0  0.72526  0.00753  0.13746  1.0000
  H   H2757     1.0  0.71661  0.99781  0.07833  1.0000
  H   H2758     1.0  0.71410  0.01520  0.10816  1.0000
  C   C1565     1.0  0.71853  0.00430  0.12311  1.0000
  H   H2759     1.0  0.79224  0.99109  0.01893  1.0000
  H   H2760     1.0  0.70481  0.99948  0.13442  1.0000
  H   H2761     1.0  0.77333  0.00776  0.00727  1.0000
  H   H2762     1.0  0.74755  0.99705  0.09918  1.0000
  C   C1566     1.0  0.77929  0.99488  0.00845  1.0000
  H   H2763     1.0  0.78485  0.99289  0.98776  1.0000
  C   C1567     1.0  0.75396  0.98831  0.05175  1.0000
  H   H2764     1.0  0.75070  0.98906  0.01099  1.0000
  H   H2765     1.0  0.69379  0.98802  0.01286  1.0000
  C   C1568     1.0  0.80789  0.19267  0.66141  1.0000
  H   H2766     1.0  0.71610  0.18246  0.58397  1.0000
  H   H2767     1.0  0.70980  0.10989  0.74993  1.0000
  H   H2768     1.0  0.78817  0.17761  0.63914  1.0000
  H   H2769     1.0  0.67089  0.18661  0.53140  1.0000
  H   H2770     1.0  0.69368  0.11850  0.62304  1.0000
  C   C1569     1.0  0.69307  0.16493  0.79891  1.0000
  H   H2771     1.0  0.95472  0.21187  0.85826  1.0000
  H   H2772     1.0  0.69267  0.02903  0.72089  1.0000
  H   H2773     1.0  0.68182  0.99937  0.72731  1.0000
  C   C1570     1.0  0.81941  0.16833  0.69307  1.0000
  H   H2774     1.0  0.77978  0.16497  0.69992  1.0000
  C   C1571     1.0  0.78384  0.18089  0.73659  1.0000
  H   H2775     1.0  0.81818  0.22041  0.62726  1.0000
  C   C1572     1.0  0.67596  0.17822  0.58390  1.0000
  H   H2776     1.0  0.68518  0.16832  0.74279  1.0000
  S   S363      1.0  0.70262  0.11963  0.67532  1.0000
  H   H2777     1.0  0.78076  0.20035  0.70232  1.0000
  C   C1573     1.0  0.71541  0.17343  0.60308  1.0000
  C   C1574     1.0  0.69398  0.15031  0.78766  1.0000
  H   H2778     1.0  0.68491  0.11049  0.74485  1.0000
  H   H2779     1.0  0.69632  0.14639  0.62751  1.0000
  Fe  Fe183     1.0  0.74672  0.22428  0.66860  1.0000
  H   H2780     1.0  0.70705  0.15219  0.83308  1.0000
  H   H2781     1.0  0.80121  0.23010  0.73779  1.0000
  Fe  Fe184     1.0  0.72645  0.19530  0.69354  1.0000
  S   S364      1.0  0.69596  0.20835  0.68565  1.0000
  S   S365      1.0  0.73326  0.16951  0.71441  1.0000
  Fe  Fe185     1.0  0.71283  0.21875  0.64526  1.0000
  S   S366      1.0  0.70395  0.21917  0.60658  1.0000
  Fe  Fe186     1.0  0.70339  0.22803  0.69855  1.0000
  N   N88       1.0  0.67842  0.16908  0.61163  1.0000
  S   S367      1.0  0.74320  0.20436  0.65221  1.0000
  S   S368      1.0  0.73240  0.21405  0.71053  1.0000
  H   H2782     1.0  0.70866  0.17288  0.82224  1.0000
  H   H2783     1.0  0.77744  0.15335  0.63902  1.0000
  H   H2784     1.0  0.72463  0.15895  0.80283  1.0000
  C   C1575     1.0  0.78924  0.16767  0.65690  1.0000
  H   H2785     1.0  0.72564  0.18720  0.62393  1.0000
  C   C1576     1.0  0.70906  0.13301  0.68976  1.0000
  C   C1577     1.0  0.69818  0.14860  0.68789  1.0000
  C   C1578     1.0  0.70569  0.16010  0.69462  1.0000
  C   C1579     1.0  0.72355  0.15576  0.70472  1.0000
  C   C1580     1.0  0.73384  0.13998  0.70782  1.0000
  C   C1581     1.0  0.72695  0.12879  0.69966  1.0000
  H   H2786     1.0  0.67949  0.98828  0.69485  1.0000
  H   H2787     1.0  0.69754  0.17222  0.69231  1.0000
  H   H2788     1.0  0.74757  0.13650  0.71574  1.0000
  H   H2789     1.0  0.73562  0.11684  0.70078  1.0000
  H   H2790     1.0  0.84699  0.13981  0.70023  1.0000
  C   C1582     1.0  0.70940  0.16198  0.81528  1.0000
  H   H2791     1.0  0.73113  0.16600  0.63647  1.0000
  H   H2792     1.0  0.69455  0.09614  0.77207  1.0000
  C   C1583     1.0  0.73035  0.17555  0.61813  1.0000
  H   H2793     1.0  0.77070  0.18365  0.68172  1.0000
  C   C1584     1.0  0.81539  0.15158  0.70849  1.0000
  H   H2794     1.0  0.69731  0.13956  0.80331  1.0000
  C   C1585     1.0  0.69351  0.17561  0.61986  1.0000
  H   H2795     1.0  0.97330  0.23325  0.75879  1.0000
  C   C1586     1.0  0.68060  0.13733  0.76211  1.0000
  H   H2796     1.0  0.81451  0.18655  0.64449  1.0000
  H   H2797     1.0  0.74564  0.17498  0.60519  1.0000
  H   H2798     1.0  0.69421  0.17031  0.64119  1.0000
  H   H2799     1.0  0.81094  0.14568  0.69535  1.0000
  H   H2800     1.0  0.93398  0.22523  0.82436  1.0000
  C   C1587     1.0  0.79278  0.19017  0.70871  1.0000
  H   H2801     1.0  0.84215  0.21864  0.63603  1.0000
  H   H2802     1.0  0.83121  0.12900  0.72794  1.0000
  H   H2803     1.0  0.83897  0.14600  0.73191  1.0000
  H   H2804     1.0  0.76133  0.20086  0.74863  1.0000
  H   H2805     1.0  0.69056  0.17650  0.56945  1.0000
  H   H2806     1.0  0.83746  0.19355  0.66892  1.0000
  H   H2807     1.0  0.69468  0.21745  0.76698  1.0000
  H   H2808     1.0  0.77786  0.22524  0.71327  1.0000
  H   H2809     1.0  0.69572  0.17519  0.78203  1.0000
  H   H2810     1.0  0.70766  0.14974  0.77127  1.0000
  C   C1588     1.0  0.82405  0.20182  0.66221  1.0000
  C   C1589     1.0  0.77407  0.15757  0.65794  1.0000
  C   C1590     1.0  0.78457  0.17434  0.68258  1.0000
  H   H2811     1.0  0.72080  0.16156  0.59821  1.0000
  H   H2812     1.0  0.77487  0.14709  0.67484  1.0000
  H   H2813     1.0  0.82790  0.17243  0.70447  1.0000
  H   H2814     1.0  0.68875  0.18857  0.61865  1.0000
  H   H2815     1.0  0.78543  0.19838  0.75794  1.0000
  H   H2816     1.0  0.69719  0.15025  0.59254  1.0000
  C   C1591     1.0  0.77417  0.19204  0.75586  1.0000
  H   H2817     1.0  0.80461  0.19537  0.71225  1.0000
  C   C1592     1.0  0.83435  0.14100  0.71765  1.0000
  H   H2818     1.0  0.79604  0.17214  0.74539  1.0000
  H   H2819     1.0  0.68540  0.21815  0.56469  1.0000
  H   H2820     1.0  0.76830  0.18509  0.77589  1.0000
  C   C1593     1.0  0.69415  0.10848  0.76017  1.0000
  H   H2821     1.0  0.80312  0.15198  0.72634  1.0000
  H   H2822     1.0  0.79456  0.20160  0.65546  1.0000
  H   H2823     1.0  0.74227  0.23000  0.74855  1.0000
  H   H2824     1.0  0.96042  0.22387  0.80999  1.0000
  H   H2825     1.0  0.83036  0.16642  0.67430  1.0000
  H   H2826     1.0  0.81783  0.21011  0.67589  1.0000
  C   C1594     1.0  0.95251  0.22498  0.85145  1.0000
  C   C1595     1.0  0.68686  0.15166  0.61194  1.0000
  C   C1596     1.0  0.83118  0.21182  0.63463  1.0000
  H   H2827     1.0  0.68430  0.15186  0.68046  1.0000
  H   H2828     1.0  0.93275  0.22571  0.73885  1.0000
  H   H2829     1.0  0.80468  0.16037  0.65389  1.0000
  N   N89       1.0  0.80127  0.18096  0.68681  1.0000
  C   C1597     1.0  0.94770  0.22984  0.82339  1.0000
  C   C1598     1.0  0.67340  0.22152  0.58080  1.0000
  H   H2830     1.0  0.77198  0.17480  0.73565  1.0000
  C   C1599     1.0  0.67824  0.22312  0.60409  1.0000
  H   H2831     1.0  0.94161  0.23197  0.77693  1.0000
  H   H2832     1.0  0.75848  0.16469  0.66038  1.0000
  H   H2833     1.0  0.68884  0.12593  0.58938  1.0000
  C   C1600     1.0  0.68186  0.12448  0.61099  1.0000
  H   H2834     1.0  0.69600  0.11859  0.79155  1.0000
  H   H2835     1.0  0.70216  0.01216  0.74520  1.0000
  H   H2836     1.0  0.69378  0.13920  0.74547  1.0000
  H   H2837     1.0  0.93986  0.23036  0.86585  1.0000
  H   H2838     1.0  0.69025  0.03079  0.75475  1.0000
  C   C1601     1.0  0.68510  0.12016  0.77855  1.0000
  C   C1602     1.0  0.78890  0.23258  0.70283  1.0000
  H   H2839     1.0  0.83868  0.20416  0.62006  1.0000
  C   C1603     1.0  0.68987  0.02268  0.74217  1.0000
  H   H2840     1.0  0.96660  0.22877  0.85139  1.0000
  C   C1604     1.0  0.67886  0.21762  0.76833  1.0000
  S   S369      1.0  0.77558  0.23455  0.65618  1.0000
  S   S370      1.0  0.67872  0.08448  0.72682  1.0000
  H   H2841     1.0  0.67744  0.19772  0.80176  1.0000
  Fe  Fe187     1.0  0.67608  0.10765  0.69666  1.0000
  H   H2842     1.0  0.67216  0.19113  0.58333  1.0000
  N   N90       1.0  0.67555  0.15038  0.77736  1.0000
  H   H2843     1.0  0.67811  0.16819  0.81169  1.0000
  H   H2844     1.0  0.90715  0.23563  0.75010  1.0000
  C   C1605     1.0  0.67152  0.14055  0.61781  1.0000
  C   C1606     1.0  0.66930  0.01766  0.75005  1.0000
  C   C1607     1.0  0.80210  0.23543  0.71673  1.0000
  H   H2845     1.0  0.98380  0.23700  0.78417  1.0000
  H   H2846     1.0  0.67052  0.11679  0.61552  1.0000
  C   C1608     1.0  0.66917  0.20637  0.78779  1.0000
  H   H2847     1.0  0.66666  0.19338  0.87439  1.0000
  H   H2848     1.0  0.66776  0.01088  0.77103  1.0000
  C   C1609     1.0  0.67124  0.16601  0.75781  1.0000
  H   H2849     1.0  0.67079  0.11680  0.79110  1.0000
  C   C1610     1.0  0.92207  0.23727  0.73717  1.0000
  H   H2850     1.0  0.66795  0.13759  0.75256  1.0000
  H   H2851     1.0  0.66679  0.17596  0.76844  1.0000
  C   C1611     1.0  0.66810  0.22904  0.75057  1.0000
  C   C1612     1.0  0.66725  0.00784  0.73081  1.0000
  H   H2852     1.0  0.66960  0.12705  0.82656  1.0000
  H   H2853     1.0  0.75511  0.23623  0.76853  1.0000
  H   H2854     1.0  0.66741  0.14519  0.83663  1.0000
  H   H2855     1.0  0.66574  0.16221  0.56713  1.0000
  H   H2856     1.0  0.66629  0.01618  0.71113  1.0000
  H   H2857     1.0  0.66620  0.22914  0.64260  1.0000
  Fe  Fe188     1.0  0.80357  0.37616  0.31981  1.0000
  S   S371      1.0  0.82161  0.35157  0.33021  1.0000
  S   S372      1.0  0.76977  0.38232  0.32377  1.0000
  Fe  Fe189     1.0  0.84065  0.39086  0.29925  1.0000
  S   S373      1.0  0.86180  0.36765  0.30702  1.0000
  S   S374      1.0  0.85281  0.41311  0.28052  1.0000
  Fe  Fe190     1.0  0.84143  0.35861  0.29002  1.0000
  S   S375      1.0  0.85334  0.34163  0.26213  1.0000
  Fe  Fe191     1.0  0.84018  0.36303  0.34634  1.0000
  S   S376      1.0  0.85415  0.35239  0.38318  1.0000
  S   S377      1.0  0.82217  0.38236  0.27864  1.0000
  S   S378      1.0  0.82027  0.38706  0.33949  1.0000
  Fe  Fe192     1.0  0.86538  0.37135  0.10751  1.0000
  S   S379      1.0  0.83162  0.37694  0.11896  1.0000
  S   S380      1.0  0.88588  0.36273  0.13745  1.0000
  Fe  Fe193     1.0  0.86547  0.37837  0.04764  1.0000
  S   S381      1.0  0.83171  0.38425  0.05446  1.0000
  S   S382      1.0  0.88355  0.38212  0.00540  1.0000
  Fe  Fe194     1.0  0.83399  0.39748  0.08385  1.0000
  S   S383      1.0  0.81324  0.42101  0.08464  1.0000
  Fe  Fe195     1.0  0.83268  0.36319  0.08852  1.0000
  S   S384      1.0  0.81306  0.34565  0.09346  1.0000
  S   S385      1.0  0.86783  0.39319  0.07477  1.0000
  S   S386      1.0  0.86645  0.35597  0.07932  1.0000
  H   H2858     1.0  0.74949  0.47362  0.06691  1.0000
  H   H2859     1.0  0.68602  0.34985  0.33095  1.0000
  S   S387      1.0  0.77734  0.46786  0.26411  1.0000
  Fe  Fe196     1.0  0.80930  0.47583  0.16635  1.0000
  H   H2860     1.0  0.67736  0.45444  0.19577  1.0000
  S   S388      1.0  0.83840  0.46236  0.14682  1.0000
  H   H2861     1.0  0.77680  0.37879  0.19453  1.0000
  H   H2862     1.0  0.71658  0.44360  0.31481  1.0000
  C   C1613     1.0  0.68107  0.28876  0.16636  1.0000
  H   H2863     1.0  0.68885  0.31604  0.36672  1.0000
  S   S389      1.0  0.78523  0.46254  0.19182  1.0000
  Fe  Fe197     1.0  0.71046  0.37532  0.17231  1.0000
  C   C1614     1.0  0.68494  0.33989  0.14053  1.0000
  S   S390      1.0  0.72067  0.37279  0.12980  1.0000
  Fe  Fe198     1.0  0.71925  0.36398  0.22799  1.0000
  S   S391      1.0  0.68940  0.37703  0.24584  1.0000
  S   S392      1.0  0.74118  0.34800  0.25290  1.0000
  H   H2864     1.0  0.81755  0.48059  0.25884  1.0000
  H   H2865     1.0  0.79999  0.46875  0.36198  1.0000
  Fe  Fe199     1.0  0.69606  0.39705  0.21085  1.0000
  S   S393      1.0  0.68964  0.42189  0.21837  1.0000
  S   S394      1.0  0.70604  0.35342  0.20378  1.0000
  S   S395      1.0  0.72701  0.38449  0.19473  1.0000
  H   H2866     1.0  0.91175  0.41471  0.37426  1.0000
  H   H2867     1.0  0.81756  0.36161  0.18843  1.0000
  C   C1615     1.0  0.81799  0.41127  0.99247  1.0000
  H   H2868     1.0  0.94608  0.38725  0.01177  1.0000
  H   H2869     1.0  0.68462  0.42336  0.16276  1.0000
  H   H2870     1.0  0.74100  0.30863  0.33872  1.0000
  C   C1616     1.0  0.82250  0.41780  0.18727  1.0000
  H   H2871     1.0  0.80412  0.38383  0.21254  1.0000
  H   H2872     1.0  0.70538  0.30957  0.27487  1.0000
  H   H2873     1.0  0.89621  0.41833  0.20748  1.0000
  H   H2874     1.0  0.92536  0.37078  0.33459  1.0000
  H   H2875     1.0  0.71239  0.26303  0.17563  1.0000
  H   H2876     1.0  0.86888  0.39235  0.22723  1.0000
  H   H2877     1.0  0.76868  0.43537  0.26922  1.0000
  H   H2878     1.0  0.76750  0.43740  0.23503  1.0000
  H   H2879     1.0  0.74465  0.41376  0.27738  1.0000
  H   H2880     1.0  0.77493  0.36149  0.21961  1.0000
  C   C1617     1.0  0.73360  0.47357  0.07772  1.0000
  H   H2881     1.0  0.69651  0.31645  0.16058  1.0000
  H   H2882     1.0  0.72614  0.42938  0.35846  1.0000
  H   H2883     1.0  0.68068  0.30551  0.29156  1.0000
  H   H2884     1.0  0.87026  0.33048  0.14387  1.0000
  C   C1618     1.0  0.84042  0.33708  0.16742  1.0000
  C   C1619     1.0  0.72525  0.46190  0.17695  1.0000
  C   C1620     1.0  0.70422  0.46448  0.18019  1.0000
  C   C1621     1.0  0.69369  0.45210  0.19289  1.0000
  C   C1622     1.0  0.70405  0.43672  0.20136  1.0000
  C   C1623     1.0  0.72519  0.43394  0.19800  1.0000
  C   C1624     1.0  0.73579  0.44658  0.18611  1.0000
  H   H2885     1.0  0.83942  0.39988  0.21354  1.0000
  H   H2886     1.0  0.71839  0.32644  0.28981  1.0000
  H   H2887     1.0  0.73324  0.42214  0.20502  1.0000
  H   H2888     1.0  0.75205  0.44447  0.18365  1.0000
  S   S396      1.0  0.73754  0.47793  0.15943  1.0000
  N   N91       1.0  0.80280  0.34209  0.19195  1.0000
  N   N92       1.0  0.68717  0.33127  0.31055  1.0000
  H   H2889     1.0  0.90287  0.34327  0.47132  1.0000
  H   H2890     1.0  0.77353  0.35121  0.17999  1.0000
  C   C1625     1.0  0.82092  0.43293  0.10049  1.0000
  C   C1626     1.0  0.80686  0.44554  0.10945  1.0000
  C   C1627     1.0  0.81231  0.45462  0.12352  1.0000
  C   C1628     1.0  0.83209  0.45160  0.12768  1.0000
  C   C1629     1.0  0.84646  0.43948  0.11762  1.0000
  C   C1630     1.0  0.84074  0.42989  0.10459  1.0000
  H   H2891     1.0  0.79165  0.44825  0.10586  1.0000
  H   H2892     1.0  0.80116  0.46401  0.13100  1.0000
  H   H2893     1.0  0.86189  0.43735  0.12022  1.0000
  H   H2894     1.0  0.85175  0.42035  0.09740  1.0000
  C   C1631     1.0  0.74626  0.36419  0.12240  1.0000
  C   C1632     1.0  0.75229  0.35259  0.10712  1.0000
  C   C1633     1.0  0.77286  0.34654  0.09908  1.0000
  C   C1634     1.0  0.78744  0.35267  0.10517  1.0000
  C   C1635     1.0  0.78142  0.36424  0.12053  1.0000
  C   C1636     1.0  0.76081  0.36960  0.12995  1.0000
  H   H2895     1.0  0.74102  0.34825  0.10158  1.0000
  H   H2896     1.0  0.77748  0.33745  0.08750  1.0000
  H   H2897     1.0  0.79260  0.36909  0.12505  1.0000
  H   H2898     1.0  0.75616  0.37841  0.14202  1.0000
  C   C1637     1.0  0.85264  0.36473  0.40507  1.0000
  C   C1638     1.0  0.86773  0.36166  0.42016  1.0000
  C   C1639     1.0  0.86686  0.37145  0.43761  1.0000
  C   C1640     1.0  0.85075  0.38422  0.44027  1.0000
  C   C1641     1.0  0.83550  0.38707  0.42559  1.0000
  C   C1642     1.0  0.83649  0.37743  0.40795  1.0000
  H   H2899     1.0  0.88023  0.35179  0.41810  1.0000
  H   H2900     1.0  0.87869  0.36920  0.44884  1.0000
  H   H2901     1.0  0.82293  0.39689  0.42769  1.0000
  H   H2902     1.0  0.82461  0.37972  0.39680  1.0000
  C   C1643     1.0  0.86190  0.34848  0.22760  1.0000
  C   C1644     1.0  0.85155  0.36206  0.21257  1.0000
  C   C1645     1.0  0.85820  0.36631  0.18455  1.0000
  C   C1646     1.0  0.87571  0.35734  0.17188  1.0000
  C   C1647     1.0  0.88614  0.34402  0.18713  1.0000
  C   C1648     1.0  0.87899  0.33939  0.21466  1.0000
  H   H2903     1.0  0.83835  0.36911  0.22249  1.0000
  H   H2904     1.0  0.85007  0.37664  0.17288  1.0000
  H   H2905     1.0  0.89966  0.33705  0.17752  1.0000
  H   H2906     1.0  0.88695  0.32882  0.22609  1.0000
  C   C1649     1.0  0.83192  0.42855  0.27695  1.0000
  C   C1650     1.0  0.81451  0.42920  0.29714  1.0000
  C   C1651     1.0  0.79781  0.44155  0.29364  1.0000
  C   C1652     1.0  0.79823  0.45274  0.26944  1.0000
  C   C1653     1.0  0.81541  0.45176  0.24912  1.0000
  C   C1654     1.0  0.83239  0.44000  0.25319  1.0000
  H   H2907     1.0  0.81394  0.42033  0.31555  1.0000
  H   H2908     1.0  0.78444  0.44214  0.30932  1.0000
  H   H2909     1.0  0.81572  0.46003  0.23016  1.0000
  H   H2910     1.0  0.84559  0.43949  0.23748  1.0000
  C   C1655     1.0  0.76177  0.37260  0.30444  1.0000
  C   C1656     1.0  0.74310  0.37863  0.29663  1.0000
  C   C1657     1.0  0.73688  0.37143  0.28014  1.0000
  C   C1658     1.0  0.74891  0.35764  0.27264  1.0000
  C   C1659     1.0  0.76718  0.35120  0.28147  1.0000
  C   C1660     1.0  0.77386  0.35889  0.29672  1.0000
  H   H2911     1.0  0.73356  0.38890  0.30333  1.0000
  H   H2912     1.0  0.72262  0.37637  0.27375  1.0000
  H   H2913     1.0  0.77626  0.34030  0.27644  1.0000
  H   H2914     1.0  0.78820  0.35404  0.30293  1.0000
  Fe  Fe200     1.0  0.78224  0.47816  0.22004  1.0000
  H   H2915     1.0  0.81399  0.34193  0.15010  1.0000
  H   H2916     1.0  0.82203  0.33787  0.22076  1.0000
  H   H2917     1.0  0.98688  0.34705  0.02863  1.0000
  C   C1661     1.0  0.85411  0.48192  0.22751  1.0000
  C   C1662     1.0  0.78200  0.41440  0.25381  1.0000
  H   H2918     1.0  0.79718  0.41759  0.24880  1.0000
  H   H2919     1.0  0.78069  0.40593  0.27348  1.0000
  H   H2920     1.0  0.78052  0.40864  0.23835  1.0000
  H   H2921     1.0  0.97826  0.46702  0.13540  1.0000
  C   C1663     1.0  0.80266  0.35957  0.18737  1.0000
  C   C1664     1.0  0.94016  0.39885  0.99943  1.0000
  C   C1665     1.0  0.78588  0.36873  0.20658  1.0000
  H   H2922     1.0  0.75008  0.41585  0.35881  1.0000
  H   H2923     1.0  0.74022  0.42391  0.24546  1.0000
  H   H2924     1.0  0.75807  0.42071  0.31019  1.0000
  H   H2925     1.0  0.83208  0.41620  0.98616  1.0000
  C   C1666     1.0  0.74188  0.42675  0.34718  1.0000
  C   C1667     1.0  0.74200  0.42405  0.31975  1.0000
  N   N93       1.0  0.74172  0.42858  0.11374  1.0000
  C   C1668     1.0  0.74542  0.41447  0.10125  1.0000
  C   C1669     1.0  0.72227  0.42869  0.13419  1.0000
  C   C1670     1.0  0.74061  0.44348  0.09190  1.0000
  C   C1671     1.0  0.75870  0.42790  0.12727  1.0000
  C   C1672     1.0  0.76344  0.41298  0.14936  1.0000
  C   C1673     1.0  0.76680  0.41046  0.08397  1.0000
  C   C1674     1.0  0.73258  0.45938  0.10139  1.0000
  C   C1675     1.0  0.70309  0.42998  0.12318  1.0000
  C   C1676     1.0  0.73127  0.43920  0.30232  1.0000
  C   C1677     1.0  0.78206  0.41343  0.15945  1.0000
  C   C1678     1.0  0.76740  0.39900  0.06666  1.0000
  C   C1679     1.0  0.68286  0.33071  0.28414  1.0000
  H   H2926     1.0  0.73425  0.41627  0.08835  1.0000
  H   H2927     1.0  0.74264  0.40365  0.11684  1.0000
  H   H2928     1.0  0.72314  0.41760  0.14994  1.0000
  H   H2929     1.0  0.71975  0.43837  0.14499  1.0000
  H   H2930     1.0  0.73117  0.44314  0.07794  1.0000
  H   H2931     1.0  0.75585  0.44428  0.07916  1.0000
  H   H2932     1.0  0.77285  0.42904  0.11220  1.0000
  H   H2933     1.0  0.75556  0.43820  0.13679  1.0000
  H   H2934     1.0  0.76648  0.40192  0.14204  1.0000
  H   H2935     1.0  0.75065  0.41240  0.16665  1.0000
  H   H2936     1.0  0.77185  0.42118  0.07043  1.0000
  H   H2937     1.0  0.77799  0.40474  0.09703  1.0000
  H   H2938     1.0  0.74161  0.46063  0.11502  1.0000
  H   H2939     1.0  0.71656  0.46029  0.11201  1.0000
  H   H2940     1.0  0.70169  0.43986  0.10552  1.0000
  H   H2941     1.0  0.70355  0.41876  0.11732  1.0000
  H   H2942     1.0  0.71163  0.31110  0.31734  1.0000
  C   C1680     1.0  0.87552  0.35759  0.98931  1.0000
  H   H2943     1.0  0.94936  0.40162  0.28922  1.0000
  H   H2944     1.0  0.78049  0.42488  0.16517  1.0000
  H   H2945     1.0  0.78403  0.40380  0.17727  1.0000
  H   H2946     1.0  0.79585  0.41184  0.14368  1.0000
  H   H2947     1.0  0.78336  0.39470  0.05778  1.0000
  H   H2948     1.0  0.76075  0.38861  0.07873  1.0000
  H   H2949     1.0  0.75895  0.40506  0.05034  1.0000
  H   H2950     1.0  0.81897  0.29678  0.25956  1.0000
  H   H2951     1.0  0.92337  0.40133  0.00505  1.0000
  C   C1681     1.0  0.80614  0.48228  0.32115  1.0000
  H   H2952     1.0  0.89931  0.44663  0.19475  1.0000
  C   C1682     1.0  0.86066  0.41085  0.17945  1.0000
  C   C1683     1.0  0.70421  0.41742  0.29128  1.0000
  H   H2953     1.0  0.80837  0.41710  0.20242  1.0000
  N   N94       1.0  0.88007  0.40736  0.18957  1.0000
  C   C1684     1.0  0.89751  0.40707  0.16590  1.0000
  H   H2954     1.0  0.84011  0.41990  0.21386  1.0000
  H   H2955     1.0  0.71336  0.40913  0.27839  1.0000
  C   C1685     1.0  0.75789  0.32580  0.18182  1.0000
  C   C1686     1.0  0.72915  0.45376  0.25626  1.0000
  H   H2956     1.0  0.82298  0.31053  0.21221  1.0000
  H   H2957     1.0  0.91180  0.40724  0.17160  1.0000
  C   C1687     1.0  0.78177  0.34017  0.19141  1.0000
  H   H2958     1.0  0.91680  0.40512  0.11334  1.0000
  C   C1688     1.0  0.90153  0.39303  0.15186  1.0000
  H   H2959     1.0  0.74057  0.44834  0.29946  1.0000
  H   H2960     1.0  0.86041  0.40159  0.16906  1.0000
  H   H2961     1.0  0.75047  0.32109  0.30715  1.0000
  C   C1689     1.0  0.67970  0.27149  0.18130  1.0000
  H   H2962     1.0  0.88831  0.39328  0.14352  1.0000
  H   H2963     1.0  0.90485  0.38143  0.16578  1.0000
  H   H2964     1.0  0.84561  0.33204  0.18665  1.0000
  H   H2965     1.0  0.93355  0.39331  0.13571  1.0000
  C   C1690     1.0  0.90112  0.38563  0.22054  1.0000
  H   H2966     1.0  0.82200  0.43037  0.17663  1.0000
  H   H2967     1.0  0.70374  0.43704  0.25766  1.0000
  C   C1691     1.0  0.79440  0.37522  0.22466  1.0000
  C   C1692     1.0  0.84081  0.41181  0.20079  1.0000
  H   H2968     1.0  0.69562  0.44250  0.28926  1.0000
  H   H2969     1.0  0.78677  0.32888  0.15732  1.0000
  C   C1693     1.0  0.88136  0.39169  0.20941  1.0000
  Fe  Fe201     1.0  0.67634  0.36789  0.21915  1.0000
  C   C1694     1.0  0.87523  0.43739  0.18788  1.0000
  H   H2970     1.0  0.84199  0.34963  0.16072  1.0000
  C   C1695     1.0  0.91961  0.39396  0.12853  1.0000
  H   H2971     1.0  0.70078  0.26025  0.15045  1.0000
  H   H2972     1.0  0.89503  0.41800  0.15011  1.0000
  H   H2973     1.0  0.90272  0.36042  0.22414  1.0000
  H   H2974     1.0  0.99457  0.47892  0.11005  1.0000
  H   H2975     1.0  0.73491  0.41371  0.32304  1.0000
  H   H2976     1.0  0.69767  0.24772  0.18347  1.0000
  H   H2977     1.0  0.71184  0.33040  0.34767  1.0000
  H   H2978     1.0  0.79627  0.33899  0.23492  1.0000
  H   H2979     1.0  0.81216  0.34682  0.44005  1.0000
  C   C1696     1.0  0.68891  0.31423  0.27652  1.0000
  H   H2980     1.0  0.81500  0.47133  0.31446  1.0000
  C   C1697     1.0  0.72013  0.33064  0.32686  1.0000
  H   H2981     1.0  0.96189  0.34522  0.00441  1.0000
  H   H2982     1.0  0.69303  0.35503  0.29590  1.0000
  H   H2983     1.0  0.68828  0.30334  0.24455  1.0000
  H   H2984     1.0  0.87748  0.35040  0.00881  1.0000
  H   H2985     1.0  0.68620  0.28897  0.14458  1.0000
  H   H2986     1.0  0.69065  0.33915  0.26746  1.0000
  H   H2987     1.0  0.86492  0.48668  0.20956  1.0000
  H   H2988     1.0  0.70961  0.46827  0.28444  1.0000
  H   H2989     1.0  0.69595  0.47621  0.17309  1.0000
  C   C1698     1.0  0.82242  0.39477  0.98637  1.0000
  C   C1699     1.0  0.70933  0.32425  0.31057  1.0000
  S   S397      1.0  0.67977  0.38936  0.18580  1.0000
  C   C1700     1.0  0.69885  0.25998  0.17208  1.0000
  H   H2990     1.0  0.75703  0.31616  0.17267  1.0000
  H   H2991     1.0  0.80518  0.31483  0.26989  1.0000
  C   C1701     1.0  0.81093  0.31616  0.22686  1.0000
  H   H2992     1.0  0.74923  0.32645  0.33815  1.0000
  C   C1702     1.0  0.99068  0.46693  0.11750  1.0000
  H   H2993     1.0  0.67235  0.31557  0.13224  1.0000
  H   H2994     1.0  0.88825  0.36788  0.25323  1.0000
  H   H2995     1.0  0.90345  0.41436  0.42262  1.0000
  C   C1703     1.0  0.71633  0.48353  0.24580  1.0000
  H   H2996     1.0  0.98195  0.36490  0.00379  1.0000
  H   H2997     1.0  0.82311  0.41055  0.17279  1.0000
  H   H2998     1.0  0.78174  0.38131  0.23810  1.0000
  C   C1704     1.0  0.78506  0.36654  0.99729  1.0000
  H   H2999     1.0  0.79655  0.31242  0.22830  1.0000
  C   C1705     1.0  0.71184  0.46766  0.26317  1.0000
  C   C1706     1.0  0.81825  0.33571  0.16973  1.0000
  H   H3000     1.0  0.87711  0.46123  0.18825  1.0000
  H   H3001     1.0  0.83363  0.48289  0.27842  1.0000
  C   C1707     1.0  0.88254  0.44890  0.19863  1.0000
  H   H3002     1.0  0.74363  0.45749  0.25461  1.0000
  C   C1708     1.0  0.90189  0.36868  0.23708  1.0000
  H   H3003     1.0  0.91544  0.41446  0.33125  1.0000
  H   H3004     1.0  0.75035  0.32335  0.20325  1.0000
  H   H3005     1.0  0.78095  0.47053  0.34309  1.0000
  C   C1709     1.0  0.67396  0.32216  0.36164  1.0000
  H   H3006     1.0  0.89117  0.39774  0.42931  1.0000
  C   C1710     1.0  0.90331  0.40369  0.41555  1.0000
  H   H3007     1.0  0.88188  0.43900  0.16624  1.0000
  H   H3008     1.0  0.69380  0.29156  0.17233  1.0000
  H   H3009     1.0  0.87904  0.38241  0.20065  1.0000
  H   H3010     1.0  0.90338  0.41074  0.29194  1.0000
  C   C1711     1.0  0.78003  0.32667  0.17905  1.0000
  H   H3011     1.0  0.69166  0.33763  0.12018  1.0000
  C   C1712     1.0  0.85473  0.32828  0.14667  1.0000
  C   C1713     1.0  0.81912  0.35910  0.00913  1.0000
  H   H3012     1.0  0.86279  0.47425  0.24278  1.0000
  C   C1714     1.0  0.80337  0.38703  0.99644  1.0000
  H   H3013     1.0  0.74961  0.43670  0.34499  1.0000
  C   C1715     1.0  0.88082  0.42000  0.20330  1.0000
  C   C1716     1.0  0.77445  0.36355  0.02721  1.0000
  C   C1717     1.0  0.82279  0.34148  0.00721  1.0000
  C   C1718     1.0  0.83435  0.33060  0.02835  1.0000
  H   H3014     1.0  0.79701  0.34433  0.47342  1.0000
  C   C1719     1.0  0.75286  0.36121  0.03048  1.0000
  H   H3015     1.0  0.80328  0.36540  0.23740  1.0000
  H   H3016     1.0  0.80068  0.36555  0.16664  1.0000
  H   H3017     1.0  0.83428  0.36223  0.00433  1.0000
  H   H3018     1.0  0.81328  0.35992  0.03047  1.0000
  C   C1720     1.0  0.79143  0.47693  0.34697  1.0000
  H   H3019     1.0  0.72424  0.47326  0.06370  1.0000
  H   H3020     1.0  0.78570  0.35589  0.98958  1.0000
  H   H3021     1.0  0.79892  0.38662  0.01825  1.0000
  H   H3022     1.0  0.92193  0.38381  0.11883  1.0000
  H   H3023     1.0  0.69183  0.32358  0.23348  1.0000
  H   H3024     1.0  0.87074  0.41874  0.22339  1.0000
  H   H3025     1.0  0.77367  0.37364  0.03623  1.0000
  H   H3026     1.0  0.78267  0.35269  0.03882  1.0000
  C   C1721     1.0  0.80816  0.33441  0.21896  1.0000
  H   H3027     1.0  0.98525  0.46406  0.10157  1.0000
  H   H3028     1.0  0.83831  0.31831  0.02504  1.0000
  H   H3029     1.0  0.84854  0.33457  0.02728  1.0000
  H   H3030     1.0  0.82487  0.33045  0.04865  1.0000
  H   H3031     1.0  0.83155  0.31320  0.25370  1.0000
  H   H3032     1.0  0.70807  0.41366  0.31130  1.0000
  H   H3033     1.0  0.84327  0.34023  0.45743  1.0000
  H   H3034     1.0  0.90191  0.39325  0.23373  1.0000
  H   H3035     1.0  0.75286  0.35077  0.02267  1.0000
  H   H3036     1.0  0.74560  0.35913  0.05201  1.0000
  H   H3037     1.0  0.74372  0.37193  0.01979  1.0000
  N   N95       1.0  0.89618  0.39708  0.34821  1.0000
  C   C1722     1.0  0.87816  0.41005  0.34315  1.0000
  C   C1723     1.0  0.89290  0.38208  0.34310  1.0000
  C   C1724     1.0  0.89892  0.39389  0.37671  1.0000
  C   C1725     1.0  0.89949  0.40855  0.38698  1.0000
  C   C1726     1.0  0.85774  0.40754  0.36212  1.0000
  C   C1727     1.0  0.91065  0.36767  0.34584  1.0000
  C   C1728     1.0  0.84118  0.42213  0.35694  1.0000
  C   C1729     1.0  0.90755  0.35416  0.33537  1.0000
  H   H3038     1.0  0.87564  0.41154  0.32260  1.0000
  H   H3039     1.0  0.88100  0.42171  0.34381  1.0000
  H   H3040     1.0  0.92881  0.39474  0.33604  1.0000
  H   H3041     1.0  0.88896  0.38435  0.32308  1.0000
  H   H3042     1.0  0.87955  0.37804  0.35746  1.0000
  H   H3043     1.0  0.88688  0.38788  0.39065  1.0000
  H   H3044     1.0  0.88491  0.41710  0.38719  1.0000
  H   H3045     1.0  0.85280  0.39738  0.35884  1.0000
  H   H3046     1.0  0.85879  0.40531  0.38339  1.0000
  H   H3047     1.0  0.91807  0.39094  0.29606  1.0000
  H   H3048     1.0  0.81841  0.32300  0.17147  1.0000
  H   H3049     1.0  0.84455  0.43238  0.36218  1.0000
  H   H3050     1.0  0.83986  0.42526  0.33560  1.0000
  H   H3051     1.0  0.82647  0.41960  0.36948  1.0000
  H   H3052     1.0  0.92018  0.34390  0.33825  1.0000
  H   H3053     1.0  0.89322  0.35022  0.34642  1.0000
  H   H3054     1.0  0.69746  0.46616  0.25941  1.0000
  H   H3055     1.0  0.85513  0.31532  0.15345  1.0000
  C   C1730     1.0  0.70747  0.43449  0.27793  1.0000
  H   H3056     1.0  0.77243  0.33843  0.21195  1.0000
  C   C1731     1.0  0.97992  0.39932  0.48263  1.0000
  H   H3057     1.0  0.74969  0.33714  0.17133  1.0000
  C   C1732     1.0  0.81702  0.30990  0.25418  1.0000
  H   H3058     1.0  0.85965  0.42206  0.16402  1.0000
  H   H3059     1.0  0.87665  0.44771  0.22047  1.0000
  H   H3060     1.0  0.90721  0.35798  0.31369  1.0000
  C   C1733     1.0  0.91481  0.40236  0.32974  1.0000
  C   C1734     1.0  0.93548  0.40931  0.28280  1.0000
  C   C1735     1.0  0.74416  0.42557  0.26355  1.0000
  C   C1736     1.0  0.76578  0.42934  0.25511  1.0000
  H   H3061     1.0  0.80842  0.33740  0.01011  1.0000
  C   C1737     1.0  0.68371  0.31521  0.24960  1.0000
  C   C1738     1.0  0.91670  0.40294  0.29958  1.0000
  H   H3062     1.0  0.91169  0.36304  0.36724  1.0000
  H   H3063     1.0  0.91814  0.39556  0.41651  1.0000
  H   H3064     1.0  0.91475  0.38556  0.20434  1.0000
  H   H3065     1.0  0.93460  0.42160  0.28475  1.0000
  H   H3066     1.0  0.91327  0.38534  0.37938  1.0000
  H   H3067     1.0  0.72904  0.45280  0.23571  1.0000
  C   C1739     1.0  0.74150  0.32105  0.32775  1.0000
  H   H3068     1.0  0.78782  0.31500  0.18891  1.0000
  S   S398      1.0  0.84903  0.39699  0.46151  1.0000
  H   H3069     1.0  0.93657  0.40948  0.26140  1.0000
  H   H3070     1.0  0.84983  0.33250  0.12712  1.0000
  H   H3071     1.0  0.67597  0.32741  0.18067  1.0000
  N   N96       1.0  0.72817  0.43794  0.27557  1.0000
  H   H3072     1.0  0.67130  0.30101  0.20774  1.0000
  H   H3073     1.0  0.85856  0.44091  0.18995  1.0000
  H   H3074     1.0  0.94592  0.40826  0.00390  1.0000
  H   H3075     1.0  0.91547  0.36487  0.24634  1.0000
  N   N97       1.0  0.80572  0.37071  0.99132  1.0000
  C   C1740     1.0  0.68157  0.32446  0.16063  1.0000
  H   H3076     1.0  0.98283  0.40923  0.46619  1.0000
  H   H3077     1.0  0.72157  0.34311  0.31726  1.0000
  H   H3078     1.0  0.69545  0.34530  0.14656  1.0000
  H   H3079     1.0  0.67045  0.34853  0.13993  1.0000
  H   H3080     1.0  0.67053  0.43269  0.13656  1.0000
  Fe  Fe202     1.0  0.76397  0.48261  0.17201  1.0000
  S   S399      1.0  0.94255  0.40468  0.47011  1.0000
  C   C1741     1.0  0.81197  0.34033  0.46118  1.0000
  H   H3081     1.0  0.71911  0.48333  0.22422  1.0000
  C   C1742     1.0  0.67385  0.32165  0.33263  1.0000
  H   H3082     1.0  0.84580  0.47464  0.22157  1.0000
  H   H3083     1.0  0.67219  0.42386  0.30862  1.0000
  C   C1743     1.0  0.82890  0.34382  0.47113  1.0000
  H   H3084     1.0  0.83496  0.38752  0.99623  1.0000
  H   H3085     1.0  0.83200  0.33983  0.98737  1.0000
  H   H3086     1.0  0.98474  0.33089  0.99752  1.0000
  H   H3087     1.0  0.81415  0.32745  0.46194  1.0000
  H   H3088     1.0  0.67831  0.30891  0.33172  1.0000
  H   H3089     1.0  0.97156  0.43727  0.47972  1.0000
  C   C1744     1.0  0.68267  0.34847  0.31233  1.0000
  H   H3090     1.0  0.68199  0.44448  0.14940  1.0000
  H   H3091     1.0  0.82633  0.35681  0.46922  1.0000
  C   C1745     1.0  0.97813  0.34376  0.99462  1.0000
  C   C1746     1.0  0.68393  0.43279  0.14432  1.0000
  H   H3092     1.0  0.67827  0.27032  0.20308  1.0000
  C   C1747     1.0  0.98917  0.35217  0.00676  1.0000
  C   C1748     1.0  0.68209  0.41616  0.29516  1.0000
  H   H3093     1.0  0.86623  0.34391  0.47723  1.0000
  H   H3094     1.0  0.81248  0.41074  0.01426  1.0000
  H   H3095     1.0  0.67713  0.41965  0.27567  1.0000
  H   H3096     1.0  0.78646  0.48576  0.29358  1.0000
  H   H3097     1.0  0.68035  0.40372  0.30432  1.0000
  H   H3098     1.0  0.79077  0.39541  0.98772  1.0000
  H   H3099     1.0  0.99092  0.44762  0.47947  1.0000
  H   H3100     1.0  0.72775  0.48472  0.08518  1.0000
  H   H3101     1.0  0.77471  0.37620  0.98631  1.0000
  H   H3102     1.0  0.66719  0.31928  0.25042  1.0000
  C   C1749     1.0  0.66635  0.31681  0.15332  1.0000
  H   H3103     1.0  0.72977  0.48616  0.25033  1.0000
  H   H3104     1.0  0.67052  0.33446  0.36466  1.0000
  C   C1750     1.0  0.87700  0.37359  0.98302  1.0000
  H   H3105     1.0  0.66680  0.26762  0.17773  1.0000
  H   H3106     1.0  0.66644  0.33469  0.28396  1.0000
  H   H3107     1.0  0.66807  0.38104  0.30146  1.0000
  H   H3108     1.0  0.78251  0.48727  0.35546  1.0000
  Fe  Fe203     1.0  0.89599  0.45506  0.71695  1.0000
  S   S400      1.0  0.89392  0.45695  0.75893  1.0000
  S   S401      1.0  0.89538  0.41515  0.66526  1.0000
  S   S402      1.0  0.92007  0.43993  0.69265  1.0000
  Fe  Fe204     1.0  0.87589  0.40630  0.53426  1.0000
  S   S403      1.0  0.90645  0.39131  0.53663  1.0000
  S   S404      1.0  0.86037  0.42302  0.56184  1.0000
  Fe  Fe205     1.0  0.89339  0.37211  0.53090  1.0000
  S   S405      1.0  0.90273  0.34750  0.55432  1.0000
  S   S406      1.0  0.86202  0.38655  0.53219  1.0000
  Fe  Fe206     1.0  0.85345  0.30095  0.67937  1.0000
  H   H3109     1.0  0.85828  0.40904  0.82940  1.0000
  S   S407      1.0  0.83771  0.32074  0.65108  1.0000
  Fe  Fe207     1.0  0.86154  0.29159  0.73562  1.0000
  H   H3110     1.0  0.95656  0.33351  0.64708  1.0000
  S   S408      1.0  0.85806  0.29807  0.77537  1.0000
  H   H3111     1.0  0.91475  0.30342  0.77299  1.0000
  C   C1751     1.0  0.93972  0.38535  0.96289  1.0000
  Fe  Fe208     1.0  0.87652  0.47362  0.67024  1.0000
  S   S409      1.0  0.87829  0.30386  0.69676  1.0000
  S   S410      1.0  0.83512  0.29106  0.71882  1.0000
  Fe  Fe209     1.0  0.90156  0.35484  0.82301  1.0000
  S   S411      1.0  0.88498  0.37418  0.84512  1.0000
  S   S412      1.0  0.89548  0.35457  0.78308  1.0000
  Fe  Fe210     1.0  0.93071  0.34071  0.86096  1.0000
  S   S413      1.0  0.91685  0.35879  0.88575  1.0000
  S   S414      1.0  0.95643  0.32225  0.87476  1.0000
  Fe  Fe211     1.0  0.88730  0.35490  0.88219  1.0000
  S   S415      1.0  0.86435  0.35190  0.92083  1.0000
  Fe  Fe212     1.0  0.91607  0.37624  0.84694  1.0000
  S   S416      1.0  0.92580  0.39874  0.84490  1.0000
  S   S417      1.0  0.90113  0.33524  0.85995  1.0000
  S   S418      1.0  0.93267  0.35853  0.82210  1.0000
  H   H3112     1.0  0.99714  0.45884  0.78065  1.0000
  H   H3113     1.0  0.94752  0.33603  0.95936  1.0000
  H   H3114     1.0  0.94120  0.41060  0.95821  1.0000
  H   H3115     1.0  0.80208  0.39469  0.94391  1.0000
  C   C1752     1.0  0.74328  0.25521  0.73785  1.0000
  C   C1753     1.0  0.88214  0.33770  0.50947  1.0000
  H   H3116     1.0  0.76742  0.26713  0.62732  1.0000
  C   C1754     1.0  0.93395  0.34124  0.95026  1.0000
  H   H3117     1.0  0.81426  0.33567  0.51266  1.0000
  C   C1755     1.0  0.95821  0.38092  0.50870  1.0000
  C   C1756     1.0  0.86835  0.31396  0.77704  1.0000
  C   C1757     1.0  0.87831  0.32313  0.75407  1.0000
  C   C1758     1.0  0.88642  0.33567  0.75611  1.0000
  C   C1759     1.0  0.88503  0.33886  0.78120  1.0000
  C   C1760     1.0  0.87524  0.32962  0.80420  1.0000
  C   C1761     1.0  0.86673  0.31732  0.80207  1.0000
  H   H3118     1.0  0.87985  0.32054  0.73481  1.0000
  H   H3119     1.0  0.89392  0.34279  0.73823  1.0000
  H   H3120     1.0  0.87396  0.33208  0.82360  1.0000
  H   H3121     1.0  0.85904  0.31027  0.81992  1.0000
  C   C1762     1.0  0.88431  0.34004  0.58065  1.0000
  C   C1763     1.0  0.86427  0.34818  0.58442  1.0000
  C   C1764     1.0  0.84981  0.34201  0.60574  1.0000
  C   C1765     1.0  0.85551  0.32787  0.62364  1.0000
  C   C1766     1.0  0.87552  0.31971  0.61989  1.0000
  C   C1767     1.0  0.88984  0.32568  0.59818  1.0000
  H   H3122     1.0  0.85986  0.35917  0.57095  1.0000
  H   H3123     1.0  0.83430  0.34831  0.60861  1.0000
  H   H3124     1.0  0.87999  0.30874  0.63362  1.0000
  H   H3125     1.0  0.90528  0.31925  0.59521  1.0000
  H   H3126     1.0  0.92204  0.30697  0.80099  1.0000
  C   C1768     1.0  0.88518  0.41721  0.63701  1.0000
  C   C1769     1.0  0.89116  0.40516  0.62259  1.0000
  C   C1770     1.0  0.88365  0.40679  0.59948  1.0000
  C   C1771     1.0  0.86979  0.42039  0.59101  1.0000
  C   C1772     1.0  0.86340  0.43224  0.60590  1.0000
  C   C1773     1.0  0.87125  0.43075  0.62868  1.0000
  H   H3127     1.0  0.90189  0.39469  0.62908  1.0000
  H   H3128     1.0  0.88839  0.39747  0.58844  1.0000
  H   H3129     1.0  0.85263  0.44277  0.59950  1.0000
  C   C1774     1.0  0.90457  0.44047  0.78083  1.0000
  C   C1775     1.0  0.90846  0.44286  0.80402  1.0000
  C   C1776     1.0  0.91570  0.42994  0.82303  1.0000
  C   C1777     1.0  0.91831  0.41452  0.81947  1.0000
  C   C1778     1.0  0.91462  0.41203  0.79613  1.0000
  C   C1779     1.0  0.90809  0.42510  0.77647  1.0000
  H   H3130     1.0  0.90582  0.45475  0.80733  1.0000
  H   H3131     1.0  0.91884  0.43191  0.84082  1.0000
  H   H3132     1.0  0.91682  0.40009  0.79327  1.0000
  H   H3133     1.0  0.90514  0.42331  0.75844  1.0000
  C   C1780     1.0  0.87025  0.35993  0.94439  1.0000
  C   C1781     1.0  0.87189  0.35081  0.97008  1.0000
  C   C1782     1.0  0.82983  0.33452  0.50028  1.0000
  H   H3134     1.0  0.75772  0.25337  0.72350  1.0000
  S   S419      1.0  0.89871  0.46016  0.64123  1.0000
  H   H3135     1.0  0.94223  0.32058  0.61104  1.0000
  C   C1783     1.0  0.97583  0.34592  0.87304  1.0000
  H   H3136     1.0  0.98070  0.32544  0.75489  1.0000
  H   H3137     1.0  0.93351  0.40976  0.55839  1.0000
  H   H3138     1.0  0.80601  0.25367  0.64108  1.0000
  C   C1784     1.0  0.81651  0.24508  0.70360  1.0000
  H   H3139     1.0  0.98577  0.40913  0.87558  1.0000
  C   C1785     1.0  0.97467  0.43845  0.51921  1.0000
  H   H3140     1.0  0.97064  0.35177  0.85456  1.0000
  C   C1786     1.0  0.99773  0.37015  0.72276  1.0000
  H   H3141     1.0  0.82857  0.25925  0.66592  1.0000
  H   H3142     1.0  0.92132  0.33531  0.96251  1.0000
  H   H3143     1.0  0.88107  0.40940  0.86800  1.0000
  C   C1787     1.0  0.87463  0.38278  0.95769  1.0000
  H   H3144     1.0  0.99277  0.33374  0.62714  1.0000
  H   H3145     1.0  0.83686  0.38578  0.59101  1.0000
  H   H3146     1.0  0.83914  0.45229  0.83019  1.0000
  N   N98       1.0  0.97405  0.45284  0.74645  1.0000
  H   H3147     1.0  0.95055  0.31545  0.57854  1.0000
  H   H3148     1.0  0.92006  0.24152  0.71607  1.0000
  C   C1788     1.0  0.87170  0.37591  0.93826  1.0000
  H   H3149     1.0  0.84858  0.38881  0.72594  1.0000
  H   H3150     1.0  0.83123  0.37159  0.95837  1.0000
  H   H3151     1.0  0.97070  0.41983  0.75213  1.0000
  C   C1789     1.0  0.94794  0.32510  0.58942  1.0000
  C   C1790     1.0  0.96733  0.33138  0.58517  1.0000
  C   C1791     1.0  0.83484  0.46272  0.78996  1.0000
  H   H3152     1.0  0.97026  0.27024  0.66326  1.0000
  H   H3153     1.0  0.94470  0.30075  0.73467  1.0000
  C   C1792     1.0  0.81748  0.25190  0.67635  1.0000
  H   H3154     1.0  0.91297  0.41403  0.94332  1.0000
  S   S420      1.0  0.87700  0.26697  0.73077  1.0000
  H   H3155     1.0  0.98493  0.30789  0.58894  1.0000
  H   H3156     1.0  0.96962  0.36363  0.54111  1.0000
  C   C1793     1.0  0.95037  0.29429  0.71882  1.0000
  H   H3157     1.0  0.95785  0.48586  0.73648  1.0000
  C   C1794     1.0  0.94367  0.28111  0.68789  1.0000
  C   C1795     1.0  0.97081  0.33129  0.88716  1.0000
  H   H3158     1.0  0.94453  0.37637  0.51225  1.0000
  H   H3159     1.0  0.70370  0.26760  0.68513  1.0000
  H   H3160     1.0  0.83416  0.40258  0.60569  1.0000
  H   H3161     1.0  0.92357  0.38571  0.97303  1.0000
  H   H3162     1.0  0.91229  0.26920  0.79355  1.0000
  H   H3163     1.0  0.93711  0.33893  0.92985  1.0000
  H   H3164     1.0  0.96403  0.40134  0.79525  1.0000
  S   S421      1.0  0.86914  0.27739  0.66955  1.0000
  C   C1796     1.0  0.99194  0.46888  0.76476  1.0000
  H   H3165     1.0  0.83182  0.38507  0.91077  1.0000
  H   H3166     1.0  0.66577  0.27788  0.69186  1.0000
  H   H3167     1.0  0.81218  0.39523  0.60594  1.0000
  C   C1797     1.0  0.98799  0.35284  0.88244  1.0000
  H   H3168     1.0  0.84170  0.46163  0.76900  1.0000
  H   H3169     1.0  0.87530  0.39523  0.95304  1.0000
  H   H3170     1.0  0.96074  0.47306  0.54967  1.0000
  H   H3171     1.0  0.85237  0.48069  0.78615  1.0000
  C   C1798     1.0  0.94557  0.38107  0.58929  1.0000
  H   H3172     1.0  0.84692  0.35886  0.52744  1.0000
  H   H3173     1.0  0.95658  0.36990  0.59392  1.0000
  H   H3174     1.0  0.98827  0.47276  0.72352  1.0000
  Fe  Fe213     1.0  0.91272  0.39803  0.49190  1.0000
  C   C1799     1.0  0.66793  0.28816  0.69837  1.0000
  H   H3175     1.0  0.96925  0.46069  0.70574  1.0000
  H   H3176     1.0  0.97769  0.44043  0.78661  1.0000
  H   H3177     1.0  0.94425  0.32206  0.67743  1.0000
  C   C1800     1.0  0.95357  0.46152  0.75808  1.0000
  H   H3178     1.0  0.82779  0.39618  0.96444  1.0000
  C   C1801     1.0  0.97764  0.32377  0.91099  1.0000
  C   C1802     1.0  0.99433  0.39194  0.49876  1.0000
  H   H3179     1.0  0.82148  0.38689  0.65054  1.0000
  N   N99       1.0  0.95143  0.42552  0.56203  1.0000
  C   C1803     1.0  0.94193  0.41095  0.57297  1.0000
  C   C1804     1.0  0.93534  0.44037  0.55765  1.0000
  H   H3180     1.0  0.91407  0.36342  0.94081  1.0000
  C   C1805     1.0  0.96458  0.42686  0.57981  1.0000
  C   C1806     1.0  0.95388  0.42809  0.60881  1.0000
  H   H3181     1.0  0.79289  0.41770  0.86124  1.0000
  H   H3182     1.0  0.84004  0.30595  0.53797  1.0000
  C   C1807     1.0  0.91448  0.44069  0.57695  1.0000
  C   C1808     1.0  0.90136  0.45729  0.57260  1.0000
  C   C1809     1.0  0.96918  0.42705  0.62582  1.0000
  H   H3183     1.0  0.86049  0.39870  0.87665  1.0000
  H   H3184     1.0  0.94505  0.25067  0.73121  1.0000
  C   C1810     1.0  0.97281  0.44942  0.72048  1.0000
  H   H3185     1.0  0.93047  0.41197  0.59152  1.0000
  H   H3186     1.0  0.94110  0.45091  0.55803  1.0000
  H   H3187     1.0  0.93172  0.44268  0.53737  1.0000
  C   C1811     1.0  0.80464  0.24872  0.66232  1.0000
  C   C1812     1.0  0.97260  0.37353  0.52476  1.0000
  H   H3188     1.0  0.97777  0.41683  0.58038  1.0000
  H   H3189     1.0  0.97152  0.43755  0.57127  1.0000
  H   H3190     1.0  0.94519  0.41849  0.61873  1.0000
  H   H3191     1.0  0.94348  0.43972  0.60882  1.0000
  H   H3192     1.0  0.99381  0.47021  0.58104  1.0000
  H   H3193     1.0  0.99520  0.42635  0.48902  1.0000
  C   C1813     1.0  0.99416  0.34564  0.90677  1.0000
  H   H3194     1.0  0.97922  0.34891  0.97288  1.0000
  H   H3195     1.0  0.90636  0.43253  0.57291  1.0000
  H   H3196     1.0  0.91579  0.43702  0.59824  1.0000
  C   C1814     1.0  0.93034  0.24947  0.74498  1.0000
  H   H3197     1.0  0.90869  0.46597  0.57661  1.0000
  H   H3198     1.0  0.89865  0.46109  0.55180  1.0000
  H   H3199     1.0  0.97797  0.43673  0.61715  1.0000
  H   H3200     1.0  0.96899  0.26489  0.77503  1.0000
  C   C1815     1.0  0.99292  0.27381  0.88160  1.0000
  H   H3201     1.0  0.93379  0.38229  0.60751  1.0000
  H   H3202     1.0  0.85867  0.40319  0.69756  1.0000
  C   C1816     1.0  0.82833  0.39169  0.60766  1.0000
  H   H3203     1.0  0.79570  0.38413  0.53449  1.0000
  Fe  Fe214     1.0  0.92213  0.46242  0.66165  1.0000
  C   C1817     1.0  0.96158  0.39413  0.48809  1.0000
  H   H3204     1.0  0.88650  0.45723  0.58652  1.0000
  H   H3205     1.0  0.96053  0.26390  0.74692  1.0000
  C   C1818     1.0  0.85191  0.43002  0.78238  1.0000
  H   H3206     1.0  0.83974  0.43503  0.77052  1.0000
  H   H3207     1.0  0.79267  0.40186  0.84604  1.0000
  H   H3208     1.0  0.97740  0.41369  0.53693  1.0000
  C   C1819     1.0  0.86086  0.41274  0.77895  1.0000
  C   C1820     1.0  0.86484  0.41176  0.74962  1.0000
  H   H3209     1.0  0.96368  0.39663  0.96495  1.0000
  S   S422      1.0  0.98768  0.29259  0.72891  1.0000
  C   C1821     1.0  0.83835  0.35634  0.51434  1.0000
  H   H3210     1.0  0.86429  0.43669  0.77178  1.0000
  H   H3211     1.0  0.97976  0.41545  0.62707  1.0000
  C   C1822     1.0  0.72497  0.26056  0.72378  1.0000
  H   H3212     1.0  0.96113  0.46283  0.58383  1.0000
  H   H3213     1.0  0.83442  0.32180  0.49925  1.0000
  H   H3214     1.0  0.96380  0.44986  0.51878  1.0000
  H   H3215     1.0  0.87552  0.40845  0.78571  1.0000
  H   H3216     1.0  0.85084  0.40439  0.79061  1.0000
  H   H3217     1.0  0.87699  0.41829  0.73762  1.0000
  H   H3218     1.0  0.86972  0.39917  0.74802  1.0000
  H   H3219     1.0  0.85093  0.41676  0.74121  1.0000
  N   N100      1.0  0.85734  0.36527  0.66413  1.0000
  C   C1823     1.0  0.84097  0.35592  0.67916  1.0000
  C   C1824     1.0  0.85283  0.37464  0.63712  1.0000
  C   C1825     1.0  0.87685  0.35349  0.65926  1.0000
  C   C1826     1.0  0.86026  0.37605  0.68004  1.0000
  C   C1827     1.0  0.84154  0.38859  0.68811  1.0000
  C   C1828     1.0  0.84380  0.34542  0.70702  1.0000
  C   C1829     1.0  0.89552  0.36056  0.64216  1.0000
  C   C1830     1.0  0.84554  0.39725  0.70710  1.0000
  C   C1831     1.0  0.82598  0.33701  0.72040  1.0000
  C   C1832     1.0  0.91314  0.34742  0.63473  1.0000
  H   H3220     1.0  0.83950  0.34806  0.66678  1.0000
  H   H3221     1.0  0.82594  0.36373  0.68241  1.0000
  H   H3222     1.0  0.86026  0.38514  0.63022  1.0000
  H   H3223     1.0  0.85948  0.36748  0.62154  1.0000
  H   H3224     1.0  0.87466  0.34450  0.64948  1.0000
  H   H3225     1.0  0.88144  0.34677  0.67842  1.0000
  H   H3226     1.0  0.86603  0.36900  0.69832  1.0000
  H   H3227     1.0  0.87222  0.38290  0.66843  1.0000
  H   H3228     1.0  0.82813  0.38320  0.69847  1.0000
  H   H3229     1.0  0.97138  0.32068  0.67083  1.0000
  H   H3230     1.0  0.85744  0.33601  0.70521  1.0000
  H   H3231     1.0  0.84502  0.35258  0.72064  1.0000
  H   H3232     1.0  0.90064  0.36709  0.65370  1.0000
  H   H3233     1.0  0.89231  0.36874  0.62323  1.0000
  H   H3234     1.0  0.83048  0.48069  0.81329  1.0000
  H   H3235     1.0  0.83210  0.40645  0.71209  1.0000
  C   C1833     1.0  0.96620  0.47274  0.56787  1.0000
  H   H3236     1.0  0.82875  0.32922  0.73988  1.0000
  H   H3237     1.0  0.81176  0.34576  0.72413  1.0000
  H   H3238     1.0  0.82424  0.32949  0.70764  1.0000
  H   H3239     1.0  0.90923  0.34134  0.62141  1.0000
  H   H3240     1.0  0.92670  0.35257  0.62391  1.0000
  H   H3241     1.0  0.91672  0.33859  0.65293  1.0000
  N   N101      1.0  0.94224  0.38510  0.93363  1.0000
  C   C1834     1.0  0.96096  0.39120  0.91701  1.0000
  H   H3242     1.0  0.74351  0.26424  0.74874  1.0000
  C   C1835     1.0  0.94500  0.36799  0.93189  1.0000
  C   C1836     1.0  0.92361  0.39421  0.92302  1.0000
  C   C1837     1.0  0.91842  0.41217  0.92256  1.0000
  C   C1838     1.0  0.96355  0.39376  0.88619  1.0000
  H   H3243     1.0  0.84304  0.36392  0.49435  1.0000
  H   H3244     1.0  0.98592  0.34431  0.71086  1.0000
  H   H3245     1.0  0.96813  0.41480  0.81263  1.0000
  C   C1839     1.0  0.90148  0.42058  0.90723  1.0000
  C   C1840     1.0  0.98418  0.39782  0.87187  1.0000
  H   H3246     1.0  0.98894  0.40571  0.78979  1.0000
  H   H3247     1.0  0.97470  0.38307  0.92330  1.0000
  H   H3248     1.0  0.96143  0.40288  0.92026  1.0000
  H   H3249     1.0  0.96340  0.34168  0.59477  1.0000
  H   H3250     1.0  0.96880  0.39270  0.56317  1.0000
  H   H3251     1.0  0.95954  0.36118  0.93763  1.0000
  H   H3252     1.0  0.94623  0.36696  0.91104  1.0000
  H   H3253     1.0  0.92446  0.39238  0.90269  1.0000
  H   H3254     1.0  0.91023  0.38945  0.93535  1.0000
  H   H3255     1.0  0.93163  0.41794  0.91292  1.0000
  C   C1841     1.0  0.86511  0.33574  0.49721  1.0000
  H   H3256     1.0  0.96208  0.38319  0.88010  1.0000
  H   H3257     1.0  0.95193  0.40380  0.87867  1.0000
  C   C1842     1.0  0.98884  0.33114  0.92116  1.0000
  H   H3258     1.0  0.97235  0.33545  0.56331  1.0000
  H   H3259     1.0  0.86882  0.32366  0.49290  1.0000
  H   H3260     1.0  0.90638  0.32243  0.48764  1.0000
  H   H3261     1.0  0.82331  0.37025  0.63624  1.0000
  C   C1843     1.0  0.84568  0.44942  0.81017  1.0000
  H   H3262     1.0  0.89821  0.43346  0.90692  1.0000
  H   H3263     1.0  0.90600  0.41900  0.88628  1.0000
  H   H3264     1.0  0.88750  0.41580  0.91699  1.0000
  H   H3265     1.0  0.98595  0.39910  0.84997  1.0000
  H   H3266     1.0  0.98963  0.34930  0.75049  1.0000
  H   H3267     1.0  0.91495  0.48014  0.76326  1.0000
  H   H3268     1.0  0.83806  0.39763  0.67007  1.0000
  C   C1844     1.0  0.94631  0.47831  0.74179  1.0000
  H   H3269     1.0  0.72271  0.25015  0.71757  1.0000
  C   C1845     1.0  0.84258  0.32941  0.54174  1.0000
  C   C1846     1.0  0.85003  0.31122  0.54513  1.0000
  S   S423      1.0  0.68063  0.24245  0.72531  1.0000
  C   C1847     1.0  0.84984  0.30326  0.57459  1.0000
  H   H3270     1.0  0.85100  0.33375  0.55284  1.0000
  H   H3271     1.0  0.82669  0.33113  0.55292  1.0000
  H   H3272     1.0  0.94803  0.28687  0.78128  1.0000
  C   C1848     1.0  0.93391  0.28317  0.79383  1.0000
  C   C1849     1.0  0.83639  0.47907  0.79244  1.0000
  H   H3273     1.0  0.86052  0.30753  0.58233  1.0000
  H   H3274     1.0  0.83444  0.30580  0.58693  1.0000
  H   H3275     1.0  0.85462  0.29022  0.57677  1.0000
  S   S424      1.0  0.71782  0.23962  0.65752  1.0000
  S   S425      1.0  0.95250  0.46706  0.63784  1.0000
  H   H3276     1.0  0.92663  0.27640  0.76184  1.0000
  N   N102      1.0  0.84432  0.43264  0.81064  1.0000
  H   H3277     1.0  0.81608  0.35834  0.95869  1.0000
  N   N103      1.0  0.72580  0.27451  0.70022  1.0000
  C   C1850     1.0  0.74236  0.26961  0.67767  1.0000
  C   C1851     1.0  0.96467  0.42397  0.53502  1.0000
  H   H3278     1.0  0.78528  0.42216  0.82924  1.0000
  C   C1852     1.0  0.72847  0.28895  0.70798  1.0000
  C   C1853     1.0  0.75053  0.29104  0.70522  1.0000
  C   C1854     1.0  0.74317  0.28168  0.65034  1.0000
  C   C1855     1.0  0.96232  0.25724  0.76735  1.0000
  C   C1856     1.0  0.83031  0.38051  0.63471  1.0000
  Fe  Fe215     1.0  0.89271  0.27932  0.69087  1.0000
  C   C1857     1.0  0.75098  0.30438  0.71816  1.0000
  C   C1858     1.0  0.76389  0.27908  0.63196  1.0000
  H   H3279     1.0  0.80648  0.36285  0.51004  1.0000
  H   H3280     1.0  0.95083  0.42921  0.77515  1.0000
  H   H3281     1.0  0.75744  0.26689  0.68304  1.0000
  H   H3282     1.0  0.81969  0.40990  0.80892  1.0000
  C   C1859     1.0  0.97846  0.28145  0.68968  1.0000
  H   H3283     1.0  0.93621  0.33485  0.58150  1.0000
  H   H3284     1.0  0.70597  0.28782  0.67275  1.0000
  H   H3285     1.0  0.72113  0.30001  0.69557  1.0000
  H   H3286     1.0  0.72039  0.28917  0.72897  1.0000
  H   H3287     1.0  0.75783  0.29417  0.68383  1.0000
  H   H3288     1.0  0.76016  0.28019  0.71446  1.0000
  H   H3289     1.0  0.73188  0.28027  0.63989  1.0000
  H   H3290     1.0  0.73957  0.29409  0.65292  1.0000
  C   C1860     1.0  0.93660  0.29007  0.70761  1.0000
  H   H3291     1.0  0.99341  0.47024  0.63242  1.0000
  H   H3292     1.0  0.95993  0.44334  0.72343  1.0000
  H   H3293     1.0  0.96360  0.39507  0.59703  1.0000
  H   H3294     1.0  0.66906  0.24876  0.78717  1.0000
  H   H3295     1.0  0.78950  0.37967  0.94221  1.0000
  H   H3296     1.0  0.83630  0.42385  0.86697  1.0000
  H   H3297     1.0  0.76687  0.30583  0.71530  1.0000
  H   H3298     1.0  0.74215  0.31577  0.70881  1.0000
  H   H3299     1.0  0.74473  0.30154  0.73998  1.0000
  H   H3300     1.0  0.98220  0.44425  0.66865  1.0000
  H   H3301     1.0  0.76389  0.28804  0.61285  1.0000
  H   H3302     1.0  0.77587  0.28027  0.64143  1.0000
  H   H3303     1.0  0.86100  0.41216  0.89650  1.0000
  H   H3304     1.0  0.99456  0.27775  0.68310  1.0000
  H   H3305     1.0  0.92050  0.29333  0.71483  1.0000
  N   N104      1.0  0.95372  0.34864  0.72792  1.0000
  C   C1861     1.0  0.95031  0.34087  0.75733  1.0000
  C   C1862     1.0  0.93647  0.36240  0.72294  1.0000
  C   C1863     1.0  0.95297  0.33656  0.71289  1.0000
  C   C1864     1.0  0.97379  0.35404  0.71760  1.0000
  C   C1865     1.0  0.98211  0.35975  0.73743  1.0000
  C   C1866     1.0  0.96485  0.32498  0.76537  1.0000
  C   C1867     1.0  0.95370  0.34257  0.68235  1.0000
  C   C1868     1.0  0.93397  0.37623  0.73687  1.0000
  C   C1869     1.0  0.91530  0.38875  0.73125  1.0000
  S   S426      1.0  0.92685  0.27399  0.67558  1.0000
  C   C1870     1.0  0.96408  0.32045  0.79556  1.0000
  C   C1871     1.0  0.95670  0.32881  0.66867  1.0000
  H   H3306     1.0  0.93473  0.33829  0.76420  1.0000
  H   H3307     1.0  0.95086  0.34895  0.76974  1.0000
  H   H3308     1.0  0.93812  0.36803  0.70129  1.0000
  H   H3309     1.0  0.92190  0.35805  0.72882  1.0000
  H   H3310     1.0  0.93902  0.33142  0.72162  1.0000
  H   H3311     1.0  0.96590  0.32641  0.71516  1.0000
  H   H3312     1.0  0.71181  0.26311  0.73990  1.0000
  H   H3313     1.0  0.97301  0.36366  0.69928  1.0000
  H   H3314     1.0  0.87025  0.38301  0.91862  1.0000
  H   H3315     1.0  0.97032  0.36656  0.75061  1.0000
  H   H3316     1.0  0.96020  0.31532  0.76001  1.0000
  H   H3317     1.0  0.81575  0.43639  0.83835  1.0000
  H   H3318     1.0  0.96624  0.34912  0.67270  1.0000
  H   H3319     1.0  0.93921  0.35048  0.67854  1.0000
  H   H3320     1.0  0.93213  0.37213  0.75888  1.0000
  H   H3321     1.0  0.94713  0.38224  0.72893  1.0000
  H   H3322     1.0  0.90160  0.38335  0.73806  1.0000
  H   H3323     1.0  0.91334  0.39825  0.74220  1.0000
  H   H3324     1.0  0.91691  0.39417  0.70953  1.0000
  C   C1872     1.0  0.81528  0.37019  0.96257  1.0000
  C   C1873     1.0  0.96278  0.47905  0.65040  1.0000
  H   H3325     1.0  0.81795  0.38762  0.50947  1.0000
  H   H3326     1.0  0.96904  0.32950  0.80215  1.0000
  H   H3327     1.0  0.94848  0.31943  0.80665  1.0000
  H   H3328     1.0  0.97427  0.30887  0.80072  1.0000
  Fe  Fe216     1.0  0.89481  0.43868  0.67420  1.0000
  H   H3329     1.0  0.86645  0.44007  0.63982  1.0000
  H   H3330     1.0  0.98755  0.29719  0.85749  1.0000
  S   S427      1.0  0.87027  0.45189  0.70160  1.0000
  H   H3331     1.0  0.93846  0.38031  0.57313  1.0000
  C   C1874     1.0  0.95660  0.39503  0.58033  1.0000
  H   H3332     1.0  0.99217  0.34725  0.59554  1.0000
  C   C1875     1.0  0.97952  0.43776  0.76660  1.0000
  C   C1876     1.0  0.85784  0.42165  0.82887  1.0000
  H   H3333     1.0  0.93618  0.27852  0.81472  1.0000
  H   H3334     1.0  0.88307  0.32921  0.52890  1.0000
  H   H3335     1.0  0.81854  0.46241  0.79365  1.0000
  C   C1877     1.0  0.92793  0.27072  0.78283  1.0000
  H   H3336     1.0  0.81330  0.43806  0.80531  1.0000
  H   H3337     1.0  0.98715  0.43897  0.52842  1.0000
  Fe  Fe217     1.0  0.85185  0.26742  0.71018  1.0000
  H   H3338     1.0  0.92937  0.25238  0.82705  1.0000
  C   C1878     1.0  0.81563  0.36270  0.52461  1.0000
  C   C1879     1.0  0.81776  0.41412  0.82750  1.0000
  C   C1880     1.0  0.96466  0.27713  0.67857  1.0000
  C   C1881     1.0  0.97133  0.28967  0.71042  1.0000
  S   S428      1.0  0.83374  0.24742  0.72158  1.0000
  C   C1882     1.0  0.81688  0.38193  0.91303  1.0000
  C   C1883     1.0  0.97249  0.41079  0.79342  1.0000
  H   H3339     1.0  0.97371  0.31248  0.92199  1.0000
  H   H3340     1.0  0.82736  0.40556  0.84083  1.0000
  C   C1884     1.0  0.68658  0.28358  0.71114  1.0000
  C   C1885     1.0  0.91745  0.29806  0.79360  1.0000
  H   H3341     1.0  0.99215  0.36394  0.87108  1.0000
  H   H3342     1.0  0.81937  0.36989  0.90898  1.0000
  H   H3343     1.0  0.94167  0.45469  0.75998  1.0000
  C   C1886     1.0  0.70591  0.27813  0.69098  1.0000
  C   C1887     1.0  0.96728  0.42462  0.77046  1.0000
  N   N105      1.0  0.84396  0.33898  0.51336  1.0000
  H   H3344     1.0  0.95296  0.46234  0.77893  1.0000
  C   C1888     1.0  0.98377  0.31832  0.59734  1.0000
  H   H3345     1.0  0.66946  0.29823  0.68084  1.0000
  Fe  Fe218     1.0  0.87176  0.39372  0.48759  1.0000
  H   H3346     1.0  0.95580  0.42151  0.52210  1.0000
  H   H3347     1.0  0.96111  0.42828  0.64635  1.0000
  C   C1889     1.0  0.85255  0.42369  0.85823  1.0000
  H   H3348     1.0  0.91460  0.33631  0.50013  1.0000
  C   C1890     1.0  0.99019  0.46260  0.74083  1.0000
  H   H3349     1.0  0.74073  0.25824  0.67413  1.0000
  H   H3350     1.0  0.86180  0.45069  0.80571  1.0000
  H   H3351     1.0  0.68789  0.29402  0.71790  1.0000
  H   H3352     1.0  0.99641  0.38820  0.87882  1.0000
  H   H3353     1.0  0.86571  0.30821  0.53404  1.0000
  H   H3354     1.0  0.98518  0.27751  0.90071  1.0000
  C   C1891     1.0  0.99236  0.43979  0.70625  1.0000
  C   C1892     1.0  0.79579  0.41403  0.84188  1.0000
  C   C1893     1.0  0.94694  0.39871  0.96964  1.0000
  C   C1894     1.0  0.80445  0.38241  0.94119  1.0000
  C   C1895     1.0  0.82243  0.43104  0.82053  1.0000
  H   H3355     1.0  0.99446  0.40558  0.96008  1.0000
  H   H3356     1.0  0.90314  0.29513  0.80685  1.0000
  H   H3357     1.0  0.87951  0.34990  0.51270  1.0000
  H   H3358     1.0  0.81975  0.38003  0.54432  1.0000
  H   H3359     1.0  0.87072  0.33844  0.97494  1.0000
  N   N106      1.0  0.94203  0.25476  0.78450  1.0000
  H   H3360     1.0  0.91963  0.26091  0.74141  1.0000
  H   H3361     1.0  0.80972  0.35532  0.54411  1.0000
  H   H3362     1.0  0.97773  0.31459  0.61918  1.0000
  H   H3363     1.0  0.99580  0.43244  0.76153  1.0000
  C   C1896     1.0  0.81214  0.37965  0.52841  1.0000
  H   H3364     1.0  0.80877  0.39054  0.89795  1.0000
  C   C1897     1.0  0.99043  0.37929  0.52026  1.0000
  S   S429      1.0  0.90039  0.47772  0.68766  1.0000
  H   H3365     1.0  0.85640  0.43488  0.85928  1.0000
  H   H3366     1.0  0.68353  0.27401  0.72898  1.0000
  H   H3367     1.0  0.87374  0.42328  0.82074  1.0000
  C   C1898     1.0  0.86457  0.41014  0.87585  1.0000
  H   H3368     1.0  0.92405  0.36047  0.97030  1.0000
  H   H3369     1.0  0.72784  0.24090  0.77384  1.0000
  H   H3370     1.0  0.94816  0.37415  0.97361  1.0000
  C   C1899     1.0  0.92794  0.35902  0.94932  1.0000
  C   C1900     1.0  0.99736  0.24627  0.74383  1.0000
  H   H3371     1.0  0.97732  0.47571  0.77343  1.0000
  C   C1901     1.0  0.98926  0.47032  0.56230  1.0000
  C   C1902     1.0  0.98824  0.43405  0.68364  1.0000
  S   S430      1.0  0.90214  0.37755  0.48605  1.0000
  H   H3372     1.0  0.98181  0.26995  0.87398  1.0000
  H   H3373     1.0  0.99167  0.48234  0.52116  1.0000
  C   C1903     1.0  0.90272  0.33472  0.49090  1.0000
  C   C1904     1.0  0.74196  0.23963  0.75846  1.0000
  H   H3374     1.0  0.80646  0.41938  0.98144  1.0000
  C   C1905     1.0  0.79030  0.23903  0.67541  1.0000
  H   H3375     1.0  0.99359  0.32551  0.93997  1.0000
  H   H3376     1.0  0.97719  0.42598  0.69160  1.0000
  H   H3377     1.0  0.94251  0.47733  0.72319  1.0000
  C   C1906     1.0  0.98373  0.47800  0.64502  1.0000
  H   H3378     1.0  0.99134  0.34521  0.81010  1.0000
  H   H3379     1.0  0.99609  0.37676  0.96083  1.0000
  S   S431      1.0  0.88311  0.41488  0.48965  1.0000
  H   H3380     1.0  0.99341  0.25091  0.72372  1.0000
  H   H3381     1.0  0.99023  0.38182  0.71238  1.0000
  H   H3382     1.0  0.95559  0.25278  0.81831  1.0000
  C   C1907     1.0  0.99224  0.48656  0.65672  1.0000
  H   H3383     1.0  0.67271  0.25485  0.81531  1.0000
  H   H3384     1.0  0.91745  0.24316  0.78727  1.0000
  H   H3385     1.0  0.99533  0.45847  0.55737  1.0000
  C   C1908     1.0  0.98360  0.43731  0.49012  1.0000
  C   C1909     1.0  0.94368  0.24815  0.81356  1.0000
  C   C1910     1.0  0.99674  0.48353  0.53878  1.0000
  C   C1911     1.0  0.93272  0.24423  0.77467  1.0000
  H   H3386     1.0  0.95934  0.48393  0.57492  1.0000
  C   C1912     1.0  0.97876  0.24221  0.76485  1.0000
  C   C1913     1.0  0.92729  0.48700  0.75752  1.0000
  S   S432      1.0  0.78636  0.53393  0.17098  1.0000
  Fe  Fe219     1.0  0.86800  0.57728  0.18051  1.0000
  S   S433      1.0  0.84577  0.60021  0.17459  1.0000
  S   S434      1.0  0.86057  0.55273  0.19720  1.0000
  Fe  Fe220     1.0  0.90419  0.59382  0.16008  1.0000
  S   S435      1.0  0.88501  0.61806  0.15285  1.0000
  S   S436      1.0  0.93772  0.59149  0.14596  1.0000
  Fe  Fe221     1.0  0.86580  0.60928  0.19223  1.0000
  S   S437      1.0  0.85147  0.62525  0.22117  1.0000
  Fe  Fe222     1.0  0.86709  0.60688  0.13567  1.0000
  S   S438      1.0  0.85807  0.61969  0.09637  1.0000
  S   S439      1.0  0.88656  0.58580  0.20132  1.0000
  S   S440      1.0  0.88772  0.58318  0.13998  1.0000
  H   H3387     1.0  0.76279  0.51282  0.27702  1.0000
  H   H3388     1.0  0.96098  0.69400  0.06225  1.0000
  H   H3389     1.0  0.80540  0.51810  0.29989  1.0000
  H   H3390     1.0  0.84197  0.58169  0.05596  1.0000
  H   H3391     1.0  0.86735  0.57045  0.08289  1.0000
  S   S441      1.0  0.93054  0.65390  0.03039  1.0000
  C   C1914     1.0  0.77391  0.52029  0.26469  1.0000
  H   H3392     1.0  0.84335  0.55252  0.09511  1.0000
  H   H3393     1.0  0.88425  0.56995  0.26602  1.0000
  H   H3394     1.0  0.87624  0.54254  0.10885  1.0000
  S   S442      1.0  0.93809  0.69740  0.00984  1.0000
  Fe  Fe223     1.0  0.88515  0.67364  0.35649  1.0000
  S   S443      1.0  0.89377  0.69651  0.33138  1.0000
  Fe  Fe224     1.0  0.89742  0.65725  0.30909  1.0000
  S   S444      1.0  0.90685  0.67876  0.28037  1.0000
  S   S445      1.0  0.90504  0.63478  0.29371  1.0000
  Fe  Fe225     1.0  0.92098  0.68072  0.31275  1.0000
  S   S446      1.0  0.95346  0.68295  0.30194  1.0000
  Fe  Fe226     1.0  0.87870  0.69220  0.30167  1.0000
  S   S447      1.0  0.85853  0.71122  0.27771  1.0000
  S   S448      1.0  0.91369  0.65820  0.34012  1.0000
  S   S449      1.0  0.86782  0.67042  0.32805  1.0000
  H   H3395     1.0  0.95862  0.65479  0.36004  1.0000
  H   H3396     1.0  0.93695  0.66838  0.39812  1.0000
  S   S450      1.0  0.78833  0.49506  0.14389  1.0000
  H   H3397     1.0  0.96180  0.71249  0.24815  1.0000
  H   H3398     1.0  0.93682  0.71989  0.45767  1.0000
  H   H3399     1.0  0.94121  0.69909  0.23421  1.0000
  C   C1915     1.0  0.99146  0.69131  0.16831  1.0000
  H   H3400     1.0  0.87592  0.60514  0.01222  1.0000
  C   C1916     1.0  0.97369  0.64172  0.31529  1.0000
  H   H3401     1.0  0.94859  0.73591  0.05894  1.0000
  C   C1917     1.0  0.96199  0.68871  0.32570  1.0000
  H   H3402     1.0  0.98934  0.67459  0.14593  1.0000
  H   H3403     1.0  0.88382  0.72092  0.22716  1.0000
  H   H3404     1.0  0.98511  0.71182  0.02706  1.0000
  C   C1918     1.0  0.94854  0.69659  0.34465  1.0000
  C   C1919     1.0  0.93754  0.71223  0.23071  1.0000
  H   H3405     1.0  0.84200  0.59303  0.07892  1.0000
  H   H3406     1.0  0.93245  0.69786  0.34649  1.0000
  H   H3407     1.0  0.91215  0.70595  0.06437  1.0000
  H   H3408     1.0  0.86780  0.52782  0.32812  1.0000
  H   H3409     1.0  0.83008  0.50766  0.28997  1.0000
  H   H3410     1.0  0.95791  0.64845  0.31694  1.0000
  N   N107      1.0  0.97758  0.63039  0.29696  1.0000
  H   H3411     1.0  0.95066  0.65835  0.27781  1.0000
  C   C1920     1.0  0.87815  0.62886  0.07656  1.0000
  C   C1921     1.0  0.87457  0.64276  0.05703  1.0000
  C   C1922     1.0  0.89058  0.65055  0.04249  1.0000
  C   C1923     1.0  0.91021  0.64423  0.04708  1.0000
  C   C1924     1.0  0.91382  0.63003  0.06589  1.0000
  C   C1925     1.0  0.89783  0.62248  0.08081  1.0000
  H   H3412     1.0  0.85935  0.64779  0.05382  1.0000
  H   H3413     1.0  0.88770  0.66152  0.02809  1.0000
  H   H3414     1.0  0.92898  0.62498  0.06937  1.0000
  H   H3415     1.0  0.90079  0.61166  0.09560  1.0000
  C   C1926     1.0  0.86731  0.62913  0.23885  1.0000
  C   C1927     1.0  0.85901  0.63925  0.25671  1.0000
  C   C1928     1.0  0.87088  0.64186  0.27249  1.0000
  C   C1929     1.0  0.89089  0.63378  0.27121  1.0000
  C   C1930     1.0  0.89925  0.62370  0.25325  1.0000
  C   C1931     1.0  0.88762  0.62167  0.23657  1.0000
  H   H3416     1.0  0.84320  0.64473  0.25875  1.0000
  H   H3417     1.0  0.86429  0.64947  0.28662  1.0000
  H   H3418     1.0  0.91469  0.61733  0.25248  1.0000
  H   H3419     1.0  0.89416  0.61392  0.22266  1.0000
  H   H3420     1.0  0.80375  0.53976  0.07407  1.0000
  C   C1932     1.0  0.80719  0.53911  0.17787  1.0000
  C   C1933     1.0  0.82561  0.52848  0.17846  1.0000
  C   C1934     1.0  0.84190  0.53283  0.18426  1.0000
  C   C1935     1.0  0.84012  0.54801  0.18867  1.0000
  C   C1936     1.0  0.82183  0.55878  0.18759  1.0000
  C   C1937     1.0  0.80536  0.55426  0.18250  1.0000
  H   H3421     1.0  0.85602  0.52444  0.18502  1.0000
  H   H3422     1.0  0.82023  0.57043  0.19138  1.0000
  H   H3423     1.0  0.79108  0.56249  0.18229  1.0000
  C   C1938     1.0  0.95698  0.65048  0.26350  1.0000
  C   C1939     1.0  0.92492  0.68908  0.18315  1.0000
  H   H3424     1.0  0.83476  0.54868  0.25382  1.0000
  C   C1940     1.0  0.81585  0.51364  0.28258  1.0000
  H   H3425     1.0  0.82437  0.54142  0.28859  1.0000
  C   C1941     1.0  0.88735  0.67746  0.46528  1.0000
  H   H3426     1.0  0.94420  0.59847  0.23220  1.0000
  C   C1942     1.0  0.84731  0.66174  0.16807  1.0000
  H   H3427     1.0  0.77619  0.52764  0.27730  1.0000
  C   C1943     1.0  0.95601  0.70351  0.36033  1.0000
  H   H3428     1.0  0.90937  0.73261  0.28884  1.0000
  C   C1944     1.0  0.91016  0.71661  0.07163  1.0000
  H   H3429     1.0  0.87234  0.60656  0.29085  1.0000
  H   H3430     1.0  0.89350  0.68797  0.16335  1.0000
  H   H3431     1.0  0.84128  0.61906  0.35446  1.0000
  S   S451      1.0  0.89356  0.69405  0.00255  1.0000
  H   H3432     1.0  0.82846  0.52594  0.24145  1.0000
  H   H3433     1.0  0.98892  0.68328  0.41888  1.0000
  H   H3434     1.0  0.96922  0.61104  0.08708  1.0000
  H   H3435     1.0  0.76191  0.52434  0.22856  1.0000
  H   H3436     1.0  0.97382  0.71294  0.28133  1.0000
  H   H3437     1.0  0.84585  0.69003  0.99910  1.0000
  S   S452      1.0  0.89424  0.73268  0.02681  1.0000
  C   C1945     1.0  0.99022  0.69290  0.34030  1.0000
  H   H3438     1.0  0.77455  0.53966  0.22945  1.0000
  C   C1946     1.0  0.81694  0.60158  0.05888  1.0000
  C   C1947     1.0  0.95778  0.66783  0.45230  1.0000
  H   H3439     1.0  0.96719  0.69007  0.14992  1.0000
  H   H3440     1.0  0.78457  0.53608  0.10371  1.0000
  H   H3441     1.0  0.81197  0.54499  0.11382  1.0000
  H   H3442     1.0  0.88398  0.71432  0.15020  1.0000
  H   H3443     1.0  0.94600  0.62827  0.30912  1.0000
  H   H3444     1.0  0.95809  0.70375  0.42544  1.0000
  H   H3445     1.0  0.95934  0.72285  0.46553  1.0000
  H   H3446     1.0  0.80574  0.53686  0.25724  1.0000
  H   H3447     1.0  0.88965  0.61372  0.02803  1.0000
  C   C1948     1.0  0.97690  0.70199  0.35756  1.0000
  H   H3448     1.0  0.96501  0.65380  0.22018  1.0000
  H   H3449     1.0  0.96250  0.61283  0.32628  1.0000
  S   S453      1.0  0.80862  0.48945  0.19675  1.0000
  C   C1949     1.0  0.79397  0.50949  0.25442  1.0000
  C   C1950     1.0  0.86224  0.73571  0.15301  1.0000
  H   H3450     1.0  0.92005  0.55655  0.26552  1.0000
  H   H3451     1.0  0.86600  0.60668  0.35426  1.0000
  C   C1951     1.0  0.90489  0.57672  0.28384  1.0000
  H   H3452     1.0  0.97220  0.67393  0.17776  1.0000
  H   H3453     1.0  0.89327  0.67345  0.19350  1.0000
  H   H3454     1.0  0.86820  0.54994  0.13932  1.0000
  H   H3455     1.0  0.94527  0.68582  0.42026  1.0000
  C   C1952     1.0  0.88896  0.68641  0.18550  1.0000
  H   H3456     1.0  0.92967  0.67610  0.18988  1.0000
  H   H3457     1.0  0.86215  0.68811  0.15687  1.0000
  C   C1953     1.0  0.86053  0.70969  0.18678  1.0000
  C   C1954     1.0  0.88322  0.67717  0.42094  1.0000
  H   H3458     1.0  0.95115  0.59007  0.31901  1.0000
  C   C1955     1.0  0.97367  0.64687  0.36028  1.0000
  H   H3459     1.0  0.84380  0.71343  0.19120  1.0000
  C   C1956     1.0  0.84275  0.57836  0.26760  1.0000
  H   H3460     1.0  0.94281  0.72395  0.30077  1.0000
  H   H3461     1.0  0.94457  0.71720  0.20982  1.0000
  H   H3462     1.0  0.85981  0.71431  0.14389  1.0000
  H   H3463     1.0  0.97658  0.64186  0.01114  1.0000
  C   C1957     1.0  0.90263  0.69448  0.19484  1.0000
  H   H3464     1.0  0.81681  0.68728  0.27398  1.0000
  H   H3465     1.0  0.84916  0.64863  0.17284  1.0000
  C   C1958     1.0  0.79471  0.49322  0.29925  1.0000
  C   C1959     1.0  0.83264  0.68247  0.26518  1.0000
  C   C1960     1.0  0.83755  0.69050  0.23561  1.0000
  H   H3466     1.0  0.84279  0.68457  0.27657  1.0000
  H   H3467     1.0  0.85597  0.57386  0.25309  1.0000
  H   H3468     1.0  0.93432  0.69512  0.18991  1.0000
  H   H3469     1.0  0.85451  0.66544  0.14677  1.0000
  H   H3470     1.0  0.84619  0.57020  0.32766  1.0000
  H   H3471     1.0  0.83956  0.69088  0.18074  1.0000
  C   C1961     1.0  0.89619  0.62005  0.98431  1.0000
  H   H3472     1.0  0.78277  0.50187  0.30913  1.0000
  H   H3473     1.0  0.83168  0.68102  0.98484  1.0000
  C   C1962     1.0  0.85583  0.68517  0.17873  1.0000
  C   C1963     1.0  0.85706  0.66697  0.18647  1.0000
  H   H3474     1.0  0.83367  0.59245  0.29696  1.0000
  H   H3475     1.0  0.84753  0.53050  0.27190  1.0000
  H   H3476     1.0  0.83421  0.66954  0.26754  1.0000
  C   C1964     1.0  0.95008  0.59559  0.16763  1.0000
  S   S454      1.0  0.98444  0.60386  0.22402  1.0000
  C   C1965     1.0  0.76451  0.53130  0.24162  1.0000
  H   H3477     1.0  0.90070  0.69145  0.21697  1.0000
  H   H3478     1.0  0.90862  0.58813  0.28413  1.0000
  C   C1966     1.0  0.91278  0.72965  0.10549  1.0000
  H   H3479     1.0  0.84963  0.60085  0.26752  1.0000
  H   H3480     1.0  0.82739  0.51694  0.17424  1.0000
  C   C1967     1.0  0.96459  0.55268  0.20359  1.0000
  C   C1968     1.0  0.95134  0.59840  0.21155  1.0000
  C   C1969     1.0  0.83200  0.58756  0.07207  1.0000
  H   H3481     1.0  0.98607  0.62161  0.06058  1.0000
  C   C1970     1.0  0.87990  0.67121  0.44869  1.0000
  C   C1971     1.0  0.86748  0.71769  0.15706  1.0000
  H   H3482     1.0  0.87037  0.56854  0.33426  1.0000
  C   C1972     1.0  0.98014  0.64846  0.99007  1.0000
  H   H3483     1.0  0.84274  0.59377  0.34174  1.0000
  C   C1973     1.0  0.84945  0.60333  0.32664  1.0000
  C   C1974     1.0  0.96126  0.62055  0.30623  1.0000
  H   H3484     1.0  0.88085  0.59234  0.31820  1.0000
  H   H3485     1.0  0.86183  0.62356  0.32709  1.0000
  C   C1975     1.0  0.82599  0.58692  0.25197  1.0000
  H   H3486     1.0  0.84515  0.54168  0.33772  1.0000
  C   C1976     1.0  0.94095  0.66336  0.41816  1.0000
  H   H3487     1.0  0.83300  0.70349  0.23436  1.0000
  H   H3488     1.0  0.94283  0.67040  0.46574  1.0000
  H   H3489     1.0  0.84888  0.66330  0.20730  1.0000
  C   C1977     1.0  0.97838  0.73785  0.98709  1.0000
  C   C1978     1.0  0.84770  0.58952  0.28216  1.0000
  C   C1979     1.0  0.86817  0.59644  0.30716  1.0000
  H   H3490     1.0  0.85925  0.66153  0.00248  1.0000
  C   C1980     1.0  0.86042  0.68620  0.22359  1.0000
  C   C1981     1.0  0.85504  0.61377  0.34147  1.0000
  C   C1982     1.0  0.88448  0.57999  0.27457  1.0000
  C   C1983     1.0  0.86250  0.56905  0.31798  1.0000
  C   C1984     1.0  0.98982  0.72678  0.18334  1.0000
  H   H3491     1.0  0.97792  0.67985  0.08217  1.0000
  N   N108      1.0  0.86576  0.58333  0.29555  1.0000
  H   H3492     1.0  0.86826  0.69141  0.23421  1.0000
  H   H3493     1.0  0.92519  0.59435  0.20121  1.0000
  H   H3494     1.0  0.82280  0.57872  0.24157  1.0000
  N   N109      1.0  0.82283  0.57535  0.09460  1.0000
  H   H3495     1.0  0.98084  0.56267  0.16528  1.0000
  C   C1985     1.0  0.83923  0.56247  0.10579  1.0000
  C   C1986     1.0  0.81083  0.56761  0.08317  1.0000
  C   C1987     1.0  0.80852  0.58280  0.11645  1.0000
  C   C1988     1.0  0.81707  0.59316  0.12862  1.0000
  H   H3496     1.0  0.96677  0.54261  0.22087  1.0000
  C   C1989     1.0  0.80094  0.55402  0.10313  1.0000
  H   H3497     1.0  0.88912  0.55628  0.11439  1.0000
  H   H3498     1.0  0.95677  0.61672  0.26874  1.0000
  C   C1990     1.0  0.80044  0.60117  0.14852  1.0000
  C   C1991     1.0  0.79182  0.54547  0.08879  1.0000
  N   N110      1.0  0.97338  0.67453  0.45924  1.0000
  H   H3499     1.0  0.84617  0.70521  0.46501  1.0000
  C   C1992     1.0  0.85973  0.56706  0.10412  1.0000
  H   H3500     1.0  0.83362  0.55701  0.12711  1.0000
  H   H3501     1.0  0.95356  0.66719  0.07215  1.0000
  H   H3502     1.0  0.81652  0.48841  0.32582  1.0000
  H   H3503     1.0  0.79817  0.57640  0.07533  1.0000
  H   H3504     1.0  0.79462  0.59001  0.10936  1.0000
  H   H3505     1.0  0.80299  0.57350  0.13343  1.0000
  H   H3506     1.0  0.82339  0.60272  0.11311  1.0000
  H   H3507     1.0  0.82897  0.58572  0.13954  1.0000
  C   C1993     1.0  0.90185  0.73123  0.05688  1.0000
  H   H3508     1.0  0.80640  0.60787  0.07397  1.0000
  H   H3509     1.0  0.78849  0.55887  0.11829  1.0000
  C   C1994     1.0  0.87413  0.55306  0.11750  1.0000
  C   C1995     1.0  0.98030  0.72319  0.28074  1.0000
  H   H3510     1.0  0.85767  0.57712  0.11376  1.0000
  H   H3511     1.0  0.70324  0.49315  0.25004  1.0000
  H   H3512     1.0  0.83160  0.72150  0.42617  1.0000
  S   S455      1.0  0.90814  0.69735  0.47474  1.0000
  H   H3513     1.0  0.78805  0.60875  0.13853  1.0000
  H   H3514     1.0  0.79420  0.59217  0.16549  1.0000
  H   H3515     1.0  0.80672  0.60887  0.15656  1.0000
  C   C1996     1.0  0.94544  0.71759  0.25074  1.0000
  H   H3516     1.0  0.97290  0.69330  0.47871  1.0000
  S   S456      1.0  0.91969  0.72854  0.13588  1.0000
  H   H3517     1.0  0.86689  0.71579  0.47677  1.0000
  C   C1997     1.0  0.96477  0.70525  0.44123  1.0000
  H   H3518     1.0  0.93091  0.60502  0.30666  1.0000
  N   N111      1.0  0.93882  0.64897  0.12334  1.0000
  C   C1998     1.0  0.92146  0.65126  0.10946  1.0000
  C   C1999     1.0  0.95438  0.63479  0.11631  1.0000
  C   C2000     1.0  0.93068  0.64495  0.15315  1.0000
  C   C2001     1.0  0.94817  0.66352  0.11665  1.0000
  C   C2002     1.0  0.94834  0.67406  0.08804  1.0000
  C   C2003     1.0  0.90266  0.66387  0.11761  1.0000
  C   C2004     1.0  0.94601  0.64222  0.17163  1.0000
  C   C2005     1.0  0.96530  0.63617  0.08669  1.0000
  C   C2006     1.0  0.98278  0.68648  0.32409  1.0000
  H   H3519     1.0  0.95406  0.73067  0.43232  1.0000
  C   C2007     1.0  0.88922  0.66935  0.09676  1.0000
  C   C2008     1.0  0.93551  0.63894  0.20103  1.0000
  H   H3520     1.0  0.91612  0.63987  0.11336  1.0000
  H   H3521     1.0  0.92638  0.65436  0.08745  1.0000
  H   H3522     1.0  0.96678  0.63205  0.12751  1.0000
  H   H3523     1.0  0.94727  0.62410  0.12238  1.0000
  H   H3524     1.0  0.92375  0.63417  0.15844  1.0000
  H   H3525     1.0  0.91841  0.65465  0.15937  1.0000
  H   H3526     1.0  0.94012  0.67157  0.13053  1.0000
  H   H3527     1.0  0.96401  0.66003  0.12006  1.0000
  H   H3528     1.0  0.93293  0.68075  0.08601  1.0000
  H   H3529     1.0  0.80895  0.70742  0.45571  1.0000
  H   H3530     1.0  0.89339  0.65863  0.13681  1.0000
  H   H3531     1.0  0.90699  0.67442  0.12040  1.0000
  H   H3532     1.0  0.95315  0.65268  0.16775  1.0000
  H   H3533     1.0  0.95810  0.63180  0.16892  1.0000
  H   H3534     1.0  0.95453  0.63969  0.07296  1.0000
  C   C2009     1.0  0.82812  0.68437  0.45850  1.0000
  H   H3535     1.0  0.78012  0.55388  0.07841  1.0000
  H   H3536     1.0  0.92673  0.66314  0.43340  1.0000
  H   H3537     1.0  0.98247  0.72173  0.20403  1.0000
  H   H3538     1.0  0.98053  0.70693  0.43245  1.0000
  H   H3539     1.0  0.81709  0.62377  0.02938  1.0000
  H   H3540     1.0  0.95735  0.69352  0.09742  1.0000
  H   H3541     1.0  0.89777  0.67455  0.07691  1.0000
  H   H3542     1.0  0.88338  0.65920  0.09494  1.0000
  H   H3543     1.0  0.87616  0.67856  0.10288  1.0000
  H   H3544     1.0  0.92748  0.62896  0.20521  1.0000
  H   H3545     1.0  0.94688  0.63552  0.21404  1.0000
  H   H3546     1.0  0.92443  0.64949  0.20622  1.0000
  H   H3547     1.0  0.83072  0.59723  0.23658  1.0000
  Fe  Fe227     1.0  0.90858  0.71344  0.00375  1.0000
  H   H3548     1.0  0.98733  0.71158  0.13641  1.0000
  H   H3549     1.0  0.89675  0.69413  0.38848  1.0000
  C   C2010     1.0  0.88085  0.73012  0.23820  1.0000
  H   H3550     1.0  0.90999  0.70522  0.41779  1.0000
  H   H3551     1.0  0.93680  0.56757  0.27077  1.0000
  C   C2011     1.0  0.82816  0.61375  0.03824  1.0000
  H   H3552     1.0  0.94564  0.71025  0.37414  1.0000
  H   H3553     1.0  0.92136  0.70451  0.10778  1.0000
  H   H3554     1.0  0.86507  0.63276  0.98738  1.0000
  H   H3555     1.0  0.87295  0.66051  0.18479  1.0000
  C   C2012     1.0  0.89410  0.68946  0.40983  1.0000
  S   S457      1.0  0.87301  0.66925  0.40106  1.0000
  C   C2013     1.0  0.81701  0.69865  0.47064  1.0000
  H   H3556     1.0  0.97736  0.72487  0.30158  1.0000
  H   H3557     1.0  0.98101  0.69769  0.18337  1.0000
  H   H3558     1.0  0.81189  0.59113  0.26561  1.0000
  H   H3559     1.0  0.83714  0.56824  0.28250  1.0000
  H   H3560     1.0  0.94937  0.65101  0.41872  1.0000
  H   H3561     1.0  0.83779  0.61094  0.31531  1.0000
  C   C2014     1.0  0.91536  0.71581  0.09611  1.0000
  C   C2015     1.0  0.86931  0.72813  0.26414  1.0000
  H   H3562     1.0  0.94444  0.66851  0.23237  1.0000
  H   H3563     1.0  0.95288  0.55101  0.19414  1.0000
  H   H3564     1.0  0.83833  0.60826  0.02190  1.0000
  C   C2016     1.0  0.83948  0.49566  0.23839  1.0000
  H   H3565     1.0  0.86558  0.67315  0.22964  1.0000
  C   C2017     1.0  0.97855  0.62034  0.08199  1.0000
  C   C2018     1.0  0.95933  0.66111  0.23551  1.0000
  H   H3566     1.0  0.96791  0.67274  0.40794  1.0000
  C   C2019     1.0  0.96993  0.59807  0.15831  1.0000
  C   C2020     1.0  0.94060  0.59608  0.19410  1.0000
  H   H3567     1.0  0.82809  0.68689  0.22505  1.0000
  H   H3568     1.0  0.88489  0.59023  0.25715  1.0000
  C   C2021     1.0  0.97929  0.68193  0.15989  1.0000
  C   C2022     1.0  0.95302  0.72057  0.44987  1.0000
  N   N112      1.0  0.86644  0.69187  0.19370  1.0000
  H   H3569     1.0  0.89926  0.70756  0.18821  1.0000
  H   H3570     1.0  0.83088  0.66686  0.17080  1.0000
  C   C2023     1.0  0.94191  0.73586  0.24575  1.0000
  H   H3571     1.0  0.98953  0.54186  0.17707  1.0000
  C   C2024     1.0  0.82039  0.73465  0.45864  1.0000
  H   H3572     1.0  0.86593  0.71512  0.19976  1.0000
  H   H3573     1.0  0.92091  0.71598  0.23345  1.0000
  C   C2025     1.0  0.90152  0.69577  0.42648  1.0000
  H   H3574     1.0  0.97544  0.64490  0.08127  1.0000
  H   H3575     1.0  0.92297  0.57566  0.24402  1.0000
  H   H3576     1.0  0.88652  0.54940  0.30664  1.0000
  C   C2026     1.0  0.97753  0.63989  0.26875  1.0000
  H   H3577     1.0  0.97645  0.67086  0.00034  1.0000
  H   H3578     1.0  0.80491  0.73589  0.45501  1.0000
  C   C2027     1.0  0.86976  0.55249  0.31068  1.0000
  H   H3579     1.0  0.86477  0.55201  0.29266  1.0000
  H   H3580     1.0  0.90418  0.56914  0.30428  1.0000
  H   H3581     1.0  0.88163  0.64058  0.99919  1.0000
  C   C2028     1.0  0.97119  0.60097  0.20214  1.0000
  H   H3582     1.0  0.82063  0.56280  0.06579  1.0000
  C   C2029     1.0  0.92220  0.56862  0.26484  1.0000
  C   C2030     1.0  0.85938  0.72733  0.48206  1.0000
  C   C2031     1.0  0.89061  0.60843  0.01078  1.0000
  H   H3583     1.0  0.94569  0.64320  0.26523  1.0000
  H   H3584     1.0  0.78964  0.50023  0.24744  1.0000
  H   H3585     1.0  0.81714  0.67898  0.45345  1.0000
  C   C2032     1.0  0.83243  0.53784  0.26951  1.0000
  Fe  Fe228     1.0  0.92393  0.67846  0.00500  1.0000
  C   C2033     1.0  0.82417  0.48952  0.26346  1.0000
  H   H3586     1.0  0.97722  0.59774  0.13779  1.0000
  C   C2034     1.0  0.86194  0.53955  0.33362  1.0000
  S   S458      1.0  0.75921  0.49753  0.20220  1.0000
  C   C2035     1.0  0.95383  0.67351  0.42334  1.0000
  H   H3587     1.0  0.80802  0.59742  0.04828  1.0000
  H   H3588     1.0  0.93756  0.71254  0.27100  1.0000
  H   H3589     1.0  0.74975  0.53831  0.24960  1.0000
  C   C2036     1.0  0.96456  0.69084  0.46522  1.0000
  H   H3590     1.0  0.95903  0.56386  0.21090  1.0000
  H   H3591     1.0  0.83185  0.50315  0.22213  1.0000
  N   N113      1.0  0.80740  0.50181  0.27463  1.0000
  H   H3592     1.0  0.82152  0.73500  0.22782  1.0000
  H   H3593     1.0  0.97003  0.66908  0.23314  1.0000
  H   H3594     1.0  0.90242  0.59747  0.01203  1.0000
  H   H3595     1.0  0.84874  0.50254  0.24355  1.0000
  H   H3596     1.0  0.86714  0.53920  0.35207  1.0000
  C   C2037     1.0  0.89822  0.68972  0.45422  1.0000
  H   H3597     1.0  0.96173  0.65465  0.45637  1.0000
  C   C2038     1.0  0.97636  0.63412  0.34451  1.0000
  H   H3598     1.0  0.83899  0.68808  0.43981  1.0000
  H   H3599     1.0  0.87171  0.66159  0.45735  1.0000
  C   C2039     1.0  0.82011  0.52871  0.26086  1.0000
  C   C2040     1.0  0.98437  0.55343  0.18308  1.0000
  H   H3600     1.0  0.91185  0.72272  0.33735  1.0000
  C   C2041     1.0  0.96201  0.68609  0.08220  1.0000
  C   C2042     1.0  0.94640  0.59833  0.30091  1.0000
  C   C2043     1.0  0.98037  0.60101  0.17542  1.0000
  H   H3601     1.0  0.94613  0.59127  0.28656  1.0000
  H   H3602     1.0  0.80207  0.51644  0.23596  1.0000
  H   H3603     1.0  0.97629  0.60211  0.28285  1.0000
  H   H3604     1.0  0.83720  0.61856  0.04781  1.0000
  Fe  Fe229     1.0  0.78592  0.50784  0.17642  1.0000
  H   H3605     1.0  0.97488  0.64120  0.38134  1.0000
  H   H3606     1.0  0.92769  0.69229  0.16094  1.0000
  H   H3607     1.0  0.96489  0.62663  0.35486  1.0000
  C   C2044     1.0  0.96123  0.60960  0.28773  1.0000
  H   H3608     1.0  0.97895  0.72768  0.17055  1.0000
  H   H3609     1.0  0.99811  0.73512  0.13118  1.0000
  H   H3610     1.0  0.85110  0.72805  0.43423  1.0000
  C   C2045     1.0  0.90576  0.73528  0.32907  1.0000
  H   H3611     1.0  0.94874  0.69136  0.47649  1.0000
  H   H3612     1.0  0.98565  0.65148  0.48161  1.0000
  C   C2046     1.0  0.93796  0.73690  0.29369  1.0000
  H   H3613     1.0  0.99041  0.61656  0.09433  1.0000
  H   H3614     1.0  0.99109  0.68896  0.00676  1.0000
  H   H3615     1.0  0.99482  0.70072  0.05642  1.0000
  C   C2047     1.0  0.83507  0.73140  0.43229  1.0000
  H   H3616     1.0  0.85959  0.73685  0.46370  1.0000
  H   H3617     1.0  0.99430  0.64977  0.43706  1.0000
  H   H3618     1.0  0.83639  0.67526  0.47289  1.0000
  C   C2048     1.0  0.98836  0.66314  0.98866  1.0000
  H   H3619     1.0  0.98565  0.65408  0.35157  1.0000
  H   H3620     1.0  0.98867  0.64788  0.26310  1.0000
  H   H3621     1.0  0.98321  0.65098  0.30670  1.0000
  H   H3622     1.0  0.99749  0.61055  0.31686  1.0000
  H   H3623     1.0  0.98272  0.63198  0.25416  1.0000
  C   C2049     1.0  0.99227  0.67512  0.43779  1.0000
  S   S459      1.0  0.98654  0.71219  0.37421  1.0000
  H   H3624     1.0  0.99158  0.62672  0.34541  1.0000
  C   C2050     1.0  0.99787  0.61944  0.29758  1.0000
  H   H3625     1.0  0.88905  0.73684  0.33225  1.0000
  H   H3626     1.0  0.91119  0.62242  0.98401  1.0000
  H   H3627     1.0  0.99317  0.68006  0.30985  1.0000
  H   H3628     1.0  0.99434  0.56933  0.19957  1.0000
  C   C2051     1.0  0.83164  0.70595  0.47969  1.0000
  H   H3629     1.0  0.99563  0.60297  0.16802  1.0000
  H   H3630     1.0  0.99300  0.71235  0.48177  1.0000
  C   C2052     1.0  0.86341  0.66968  0.98304  1.0000
  C   C2053     1.0  0.95567  0.63599  0.77198  1.0000
  H   H3631     1.0  0.77819  0.61349  0.80467  1.0000
  S   S460      1.0  0.87780  0.69974  0.77327  1.0000
  H   H3632     1.0  0.96521  0.61025  0.78065  1.0000
  H   H3633     1.0  0.93983  0.61729  0.77456  1.0000
  H   H3634     1.0  0.82479  0.64286  0.71046  1.0000
  H   H3635     1.0  0.92290  0.63102  0.94160  1.0000
  C   C2054     1.0  0.77130  0.61852  0.78670  1.0000
  H   H3636     1.0  0.94131  0.66094  0.92484  1.0000
  S   S461      1.0  0.71068  0.70426  0.67406  1.0000
  Fe  Fe230     1.0  0.89127  0.65707  0.76155  1.0000
  S   S462      1.0  0.91426  0.67245  0.75128  1.0000
  S   S463      1.0  0.90068  0.63324  0.75092  1.0000
  Fe  Fe231     1.0  0.89989  0.67908  0.79102  1.0000
  H   H3637     1.0  0.81345  0.66067  0.75606  1.0000
  Fe  Fe232     1.0  0.89038  0.69148  0.73461  1.0000
  H   H3638     1.0  0.83688  0.65782  0.71409  1.0000
  S   S464      1.0  0.87860  0.66201  0.80258  1.0000
  S   S465      1.0  0.86829  0.67554  0.74170  1.0000
  Fe  Fe233     1.0  0.86813  0.69689  0.56790  1.0000
  S   S466      1.0  0.89994  0.70033  0.55000  1.0000
  C   C2055     1.0  0.82835  0.64826  0.72503  1.0000
  Fe  Fe234     1.0  0.87682  0.66344  0.55926  1.0000
  S   S467      1.0  0.90947  0.66393  0.54128  1.0000
  S   S468      1.0  0.86502  0.64214  0.55949  1.0000
  Fe  Fe235     1.0  0.90831  0.67588  0.57434  1.0000
  S   S469      1.0  0.93120  0.66968  0.60085  1.0000
  Fe  Fe236     1.0  0.89763  0.68820  0.51887  1.0000
  H   H3639     1.0  0.89035  0.66123  0.90262  1.0000
  S   S470      1.0  0.87656  0.67318  0.59435  1.0000
  S   S471      1.0  0.86498  0.68698  0.53470  1.0000
  Fe  Fe237     1.0  0.82010  0.56200  0.73336  1.0000
  S   S472      1.0  0.84630  0.57174  0.73552  1.0000
  S   S473      1.0  0.82261  0.53553  0.74763  1.0000
  Fe  Fe238     1.0  0.79701  0.59481  0.71164  1.0000
  S   S474      1.0  0.82142  0.60731  0.71137  1.0000
  S   S475      1.0  0.76781  0.60717  0.69814  1.0000
  Fe  Fe239     1.0  0.84254  0.58701  0.69539  1.0000
  S   S476      1.0  0.87052  0.58818  0.66330  1.0000
  Fe  Fe240     1.0  0.82289  0.59093  0.75152  1.0000
  S   S477      1.0  0.82455  0.60062  0.78584  1.0000
  S   S478      1.0  0.81805  0.57581  0.69181  1.0000
  S   S479      1.0  0.79677  0.57995  0.75316  1.0000
  Fe  Fe241     1.0  0.74204  0.70866  0.65631  1.0000
  Fe  Fe242     1.0  0.85747  0.68210  0.78164  1.0000
  Fe  Fe243     1.0  0.72338  0.69249  0.71108  1.0000
  H   H3640     1.0  0.95408  0.64092  0.92387  1.0000
  S   S480      1.0  0.75531  0.69507  0.69220  1.0000
  H   H3641     1.0  0.74718  0.61411  0.77162  1.0000
  H   H3642     1.0  0.85097  0.65838  0.96090  1.0000
  C   C2056     1.0  0.75423  0.62407  0.71036  1.0000
  C   C2057     1.0  0.73336  0.62543  0.71968  1.0000
  C   C2058     1.0  0.72176  0.63921  0.72775  1.0000
  C   C2059     1.0  0.73070  0.65215  0.72506  1.0000
  C   C2060     1.0  0.75158  0.65098  0.71522  1.0000
  C   C2061     1.0  0.76345  0.63673  0.70874  1.0000
  H   H3643     1.0  0.72616  0.61569  0.72090  1.0000
  H   H3644     1.0  0.95203  0.69040  0.71590  1.0000
  C   C2062     1.0  0.92689  0.62727  0.61150  1.0000
  H   H3645     1.0  0.77956  0.63577  0.70134  1.0000
  C   C2063     1.0  0.91713  0.57684  0.70950  1.0000
  H   H3646     1.0  0.97382  0.68313  0.59704  1.0000
  C   C2064     1.0  0.87955  0.65315  0.90703  1.0000
  H   H3647     1.0  0.75491  0.69362  0.78726  1.0000
  H   H3648     1.0  0.90151  0.65221  0.65113  1.0000
  H   H3649     1.0  0.93974  0.59764  0.67859  1.0000
  C   C2065     1.0  0.97035  0.65150  0.53404  1.0000
  H   H3650     1.0  0.89731  0.61408  0.96790  1.0000
  H   H3651     1.0  0.78275  0.61572  0.76894  1.0000
  H   H3652     1.0  0.86469  0.69205  0.67898  1.0000
  C   C2066     1.0  0.86596  0.62739  0.58874  1.0000
  C   C2067     1.0  0.87036  0.61149  0.58696  1.0000
  C   C2068     1.0  0.87159  0.59948  0.61001  1.0000
  C   C2069     1.0  0.86728  0.60333  0.63508  1.0000
  C   C2070     1.0  0.86211  0.61924  0.63705  1.0000
  C   C2071     1.0  0.86206  0.63130  0.61376  1.0000
  H   H3653     1.0  0.87340  0.60846  0.56761  1.0000
  H   H3654     1.0  0.87580  0.58721  0.60836  1.0000
  H   H3655     1.0  0.85874  0.62219  0.65646  1.0000
  H   H3656     1.0  0.85868  0.64359  0.61515  1.0000
  H   H3657     1.0  0.91525  0.72246  0.90012  1.0000
  H   H3658     1.0  0.76011  0.59697  0.79192  1.0000
  C   C2072     1.0  0.78107  0.70815  0.60649  1.0000
  C   C2073     1.0  0.80901  0.65523  0.74251  1.0000
  H   H3659     1.0  0.94107  0.64442  0.77516  1.0000
  C   C2074     1.0  0.80964  0.67167  0.66583  1.0000
  S   S481      1.0  0.75647  0.70444  0.61512  1.0000
  C   C2075     1.0  0.91133  0.68469  0.84855  1.0000
  C   C2076     1.0  0.91714  0.68868  0.88990  1.0000
  S   S482      1.0  0.93506  0.68232  0.96062  1.0000
  H   H3660     1.0  0.92463  0.50282  0.59053  1.0000
  C   C2077     1.0  0.89060  0.68997  0.85680  1.0000
  H   H3661     1.0  0.92746  0.68836  0.90240  1.0000
  H   H3662     1.0  0.78045  0.62364  0.63768  1.0000
  H   H3663     1.0  0.88028  0.69055  0.84411  1.0000
  C   C2078     1.0  0.90645  0.69703  0.66815  1.0000
  C   C2079     1.0  0.92867  0.67472  0.65093  1.0000
  C   C2080     1.0  0.92201  0.68036  0.62658  1.0000
  C   C2081     1.0  0.90775  0.69445  0.62302  1.0000
  C   C2082     1.0  0.90038  0.70295  0.64348  1.0000
  H   H3664     1.0  0.90249  0.69896  0.60439  1.0000
  H   H3665     1.0  0.88960  0.71396  0.64031  1.0000
  C   C2083     1.0  0.87986  0.62377  0.76167  1.0000
  C   C2084     1.0  0.86366  0.62845  0.78153  1.0000
  C   C2085     1.0  0.84700  0.62085  0.78973  1.0000
  C   C2086     1.0  0.84614  0.60907  0.77722  1.0000
  C   C2087     1.0  0.86225  0.60452  0.75718  1.0000
  C   C2088     1.0  0.87926  0.61162  0.74988  1.0000
  H   H3666     1.0  0.86400  0.63779  0.79081  1.0000
  H   H3667     1.0  0.83467  0.62427  0.80539  1.0000
  H   H3668     1.0  0.86174  0.59539  0.74753  1.0000
  H   H3669     1.0  0.89185  0.60784  0.73493  1.0000
  H   H3670     1.0  0.82144  0.68518  0.74736  1.0000
  H   H3671     1.0  0.79635  0.69968  0.71847  1.0000
  C   C2089     1.0  0.84302  0.50565  0.68390  1.0000
  C   C2090     1.0  0.84872  0.49990  0.70879  1.0000
  C   C2091     1.0  0.84214  0.50913  0.72824  1.0000
  C   C2092     1.0  0.82998  0.52418  0.72294  1.0000
  C   C2093     1.0  0.82389  0.52983  0.69829  1.0000
  C   C2094     1.0  0.83022  0.52048  0.67891  1.0000
  H   H3672     1.0  0.82235  0.60208  0.63450  1.0000
  H   H3673     1.0  0.84707  0.50484  0.74713  1.0000
  H   H3674     1.0  0.81414  0.54130  0.69428  1.0000
  H   H3675     1.0  0.82550  0.52488  0.65985  1.0000
  C   C2095     1.0  0.92457  0.68404  0.86521  1.0000
  H   H3676     1.0  0.82460  0.66483  0.66978  1.0000
  C   C2096     1.0  0.75409  0.60991  0.78967  1.0000
  H   H3677     1.0  0.80672  0.63150  0.76546  1.0000
  C   C2097     1.0  0.86566  0.66186  0.95921  1.0000
  H   H3678     1.0  0.79504  0.63023  0.81000  1.0000
  C   C2098     1.0  0.80323  0.64911  0.83849  1.0000
  C   C2099     1.0  0.92056  0.68283  0.67190  1.0000
  H   H3679     1.0  0.83811  0.63909  0.73750  1.0000
  H   H3680     1.0  0.75568  0.64074  0.76629  1.0000
  C   C2100     1.0  0.91570  0.72924  0.87916  1.0000
  H   H3681     1.0  0.77306  0.64255  0.82365  1.0000
  C   C2101     1.0  0.74210  0.66142  0.64189  1.0000
  C   C2102     1.0  0.95126  0.61931  0.78411  1.0000
  C   C2103     1.0  0.78619  0.64257  0.80657  1.0000
  C   C2104     1.0  0.78842  0.71391  0.62368  1.0000
  H   H3682     1.0  0.72896  0.69129  0.79928  1.0000
  H   H3683     1.0  0.77047  0.72710  0.54527  1.0000
  H   H3684     1.0  0.77220  0.65187  0.60341  1.0000
  C   C2105     1.0  0.76340  0.63668  0.78363  1.0000
  H   H3685     1.0  0.89308  0.63095  0.93050  1.0000
  H   H3686     1.0  0.73733  0.66409  0.79325  1.0000
  H   H3687     1.0  0.79982  0.62307  0.65558  1.0000
  N   N114      1.0  0.91972  0.61929  0.66392  1.0000
  C   C2106     1.0  0.89874  0.62782  0.67413  1.0000
  C   C2107     1.0  0.92417  0.60421  0.68463  1.0000
  C   C2108     1.0  0.92092  0.61499  0.63762  1.0000
  C   C2109     1.0  0.91026  0.59200  0.68972  1.0000
  C   C2110     1.0  0.89092  0.64389  0.65639  1.0000
  C   C2111     1.0  0.87085  0.65212  0.67068  1.0000
  H   H3688     1.0  0.84537  0.72434  0.64711  1.0000
  H   H3689     1.0  0.88733  0.62047  0.67667  1.0000
  H   H3690     1.0  0.89784  0.62986  0.69439  1.0000
  H   H3691     1.0  0.92368  0.60708  0.70414  1.0000
  H   H3692     1.0  0.88496  0.67255  0.48658  1.0000
  H   H3693     1.0  0.93221  0.60387  0.63570  1.0000
  H   H3694     1.0  0.90623  0.61218  0.63723  1.0000
  H   H3695     1.0  0.91762  0.63923  0.61168  1.0000
  H   H3696     1.0  0.91053  0.58863  0.67086  1.0000
  H   H3697     1.0  0.89439  0.59669  0.69832  1.0000
  H   H3698     1.0  0.88814  0.64193  0.63787  1.0000
  H   H3699     1.0  0.86517  0.66323  0.65705  1.0000
  H   H3700     1.0  0.85945  0.64438  0.67643  1.0000
  H   H3701     1.0  0.87291  0.65513  0.68885  1.0000
  C   C2112     1.0  0.93748  0.72779  0.86351  1.0000
  H   H3702     1.0  0.94000  0.69701  0.74671  1.0000
  H   H3703     1.0  0.80091  0.63229  0.59505  1.0000
  H   H3704     1.0  0.93984  0.66397  0.65380  1.0000
  H   H3705     1.0  0.79796  0.59669  0.64933  1.0000
  H   H3706     1.0  0.81509  0.66803  0.51943  1.0000
  S   S483      1.0  0.91775  0.72040  0.95896  1.0000
  C   C2113     1.0  0.79509  0.70252  0.73755  1.0000
  H   H3707     1.0  0.92545  0.67825  0.69081  1.0000
  C   C2114     1.0  0.84342  0.72352  0.66894  1.0000
  C   C2115     1.0  0.79380  0.70449  0.58299  1.0000
  H   H3708     1.0  0.94063  0.68004  0.85891  1.0000
  C   C2116     1.0  0.80920  0.69427  0.75392  1.0000
  H   H3709     1.0  0.74062  0.69115  0.76479  1.0000
  S   S484      1.0  0.76555  0.72813  0.72270  1.0000
  C   C2117     1.0  0.80610  0.60502  0.63318  1.0000
  C   C2118     1.0  0.97626  0.68664  0.57485  1.0000
  H   H3710     1.0  0.97517  0.71801  0.83781  1.0000
  H   H3711     1.0  0.97098  0.70442  0.88887  1.0000
  N   N115      1.0  0.88819  0.53584  0.65071  1.0000
  C   C2119     1.0  0.89968  0.51985  0.64560  1.0000
  C   C2120     1.0  0.87998  0.53426  0.68038  1.0000
  C   C2121     1.0  0.87040  0.54035  0.63680  1.0000
  C   C2122     1.0  0.90073  0.54868  0.64019  1.0000
  C   C2123     1.0  0.92374  0.54358  0.64028  1.0000
  C   C2124     1.0  0.90562  0.51861  0.61578  1.0000
  C   C2125     1.0  0.85463  0.55525  0.64270  1.0000
  C   C2126     1.0  0.89566  0.52967  0.69871  1.0000
  C   C2127     1.0  0.88536  0.52635  0.72822  1.0000
  C   C2128     1.0  0.93354  0.55800  0.63499  1.0000
  C   C2129     1.0  0.92170  0.50391  0.61166  1.0000
  C   C2130     1.0  0.83977  0.56057  0.62366  1.0000
  H   H3712     1.0  0.89040  0.51060  0.65623  1.0000
  H   H3713     1.0  0.91354  0.51602  0.65413  1.0000
  H   H3714     1.0  0.87053  0.54564  0.68483  1.0000
  H   H3715     1.0  0.86984  0.52546  0.68742  1.0000
  H   H3716     1.0  0.86219  0.53033  0.64187  1.0000
  H   H3717     1.0  0.87570  0.54261  0.61471  1.0000
  H   H3718     1.0  0.89957  0.55465  0.61912  1.0000
  H   H3719     1.0  0.89445  0.55829  0.65155  1.0000
  H   H3720     1.0  0.93144  0.53689  0.62437  1.0000
  H   H3721     1.0  0.92697  0.53585  0.65945  1.0000
  H   H3722     1.0  0.89215  0.51763  0.60902  1.0000
  H   H3723     1.0  0.91138  0.52922  0.60278  1.0000
  H   H3724     1.0  0.86208  0.56525  0.64073  1.0000
  H   H3725     1.0  0.84563  0.55261  0.66326  1.0000
  H   H3726     1.0  0.90694  0.51888  0.69518  1.0000
  H   H3727     1.0  0.90348  0.53970  0.69547  1.0000
  H   H3728     1.0  0.89650  0.52480  0.74097  1.0000
  H   H3729     1.0  0.87284  0.53632  0.73279  1.0000
  H   H3730     1.0  0.87921  0.51529  0.73338  1.0000
  H   H3731     1.0  0.95004  0.55405  0.63439  1.0000
  H   H3732     1.0  0.93119  0.56602  0.61553  1.0000
  H   H3733     1.0  0.92700  0.56464  0.65124  1.0000
  H   H3734     1.0  0.84923  0.69319  0.96337  1.0000
  C   C2131     1.0  0.95877  0.49832  0.67725  1.0000
  H   H3735     1.0  0.98432  0.68891  0.85317  1.0000
  H   H3736     1.0  0.84778  0.56417  0.60270  1.0000
  H   H3737     1.0  0.83181  0.55086  0.62516  1.0000
  H   H3738     1.0  0.82831  0.57090  0.62911  1.0000
  S   S485      1.0  0.92121  0.67889  0.81760  1.0000
  S   S486      1.0  0.89632  0.70758  0.69393  1.0000
  H   H3739     1.0  0.74230  0.61188  0.80762  1.0000
  H   H3740     1.0  0.98323  0.62908  0.78818  1.0000
  S   S487      1.0  0.82439  0.68762  0.80022  1.0000
  H   H3741     1.0  0.95792  0.65121  0.55197  1.0000
  H   H3742     1.0  0.79258  0.67809  0.63467  1.0000
  H   H3743     1.0  0.96217  0.64033  0.80628  1.0000
  C   C2132     1.0  0.80753  0.69792  0.77870  1.0000
  C   C2133     1.0  0.84972  0.69372  0.67369  1.0000
  H   H3744     1.0  0.84332  0.68293  0.68381  1.0000
  H   H3745     1.0  0.85167  0.69521  0.65169  1.0000
  C   C2134     1.0  0.93462  0.62950  0.66220  1.0000
  C   C2135     1.0  0.79624  0.64242  0.75792  1.0000
  H   H3746     1.0  0.86412  0.66056  0.90774  1.0000
  C   C2136     1.0  0.95727  0.62147  0.65687  1.0000
  H   H3747     1.0  0.75865  0.66087  0.71322  1.0000
  H   H3748     1.0  0.80801  0.67317  0.58813  1.0000
  C   C2137     1.0  0.81215  0.66028  0.58871  1.0000
  H   H3749     1.0  0.82050  0.70850  0.67876  1.0000
  H   H3750     1.0  0.82889  0.72335  0.76061  1.0000
  H   H3751     1.0  0.91671  0.57954  0.72902  1.0000
  C   C2138     1.0  0.97087  0.63967  0.78564  1.0000
  H   H3752     1.0  0.86667  0.63601  0.94010  1.0000
  H   H3753     1.0  0.98282  0.65567  0.53820  1.0000
  C   C2139     1.0  0.83543  0.70802  0.68313  1.0000
  H   H3754     1.0  0.83415  0.70581  0.70503  1.0000
  H   H3755     1.0  0.93164  0.63376  0.68115  1.0000
  H   H3756     1.0  0.93258  0.64044  0.64648  1.0000
  H   H3757     1.0  0.95019  0.66944  0.77404  1.0000
  H   H3758     1.0  0.82867  0.65707  0.58857  1.0000
  H   H3759     1.0  0.81953  0.67540  0.62335  1.0000
  H   H3760     1.0  0.79271  0.65928  0.56208  1.0000
  H   H3761     1.0  0.68369  0.65027  0.66376  1.0000
  H   H3762     1.0  0.79044  0.63955  0.74224  1.0000
  C   C2140     1.0  0.81400  0.70640  0.57684  1.0000
  H   H3763     1.0  0.96025  0.66350  0.74331  1.0000
  Fe  Fe244     1.0  0.74611  0.71814  0.70552  1.0000
  H   H3764     1.0  0.99694  0.68087  0.88116  1.0000
  H   H3765     1.0  0.94291  0.62831  0.60852  1.0000
  H   H3766     1.0  0.80478  0.71242  0.52117  1.0000
  C   C2141     1.0  0.78020  0.71516  0.74518  1.0000
  C   C2142     1.0  0.79195  0.70997  0.78684  1.0000
  C   C2143     1.0  0.96447  0.66730  0.75920  1.0000
  H   H3767     1.0  0.93699  0.73412  0.84254  1.0000
  H   H3768     1.0  0.95911  0.70671  0.72330  1.0000
  H   H3769     1.0  0.77544  0.67057  0.60563  1.0000
  H   H3770     1.0  0.80877  0.68428  0.66596  1.0000
  H   H3771     1.0  0.75126  0.63825  0.80148  1.0000
  C   C2144     1.0  0.83746  0.72701  0.49761  1.0000
  H   H3772     1.0  0.96404  0.69681  0.56941  1.0000
  H   H3773     1.0  0.93049  0.48898  0.77584  1.0000
  H   H3774     1.0  0.92978  0.63085  0.56859  1.0000
  H   H3775     1.0  0.99038  0.71956  0.69970  1.0000
  C   C2145     1.0  0.95449  0.69507  0.73216  1.0000
  H   H3776     1.0  0.95562  0.72757  0.98020  1.0000
  C   C2146     1.0  0.80713  0.67050  0.63860  1.0000
  N   N116      1.0  0.77903  0.64660  0.78040  1.0000
  C   C2147     1.0  0.83803  0.73256  0.74983  1.0000
  Fe  Fe245     1.0  0.90575  0.69936  0.95802  1.0000
  H   H3777     1.0  0.83401  0.66884  0.53656  1.0000
  C   C2148     1.0  0.98383  0.66059  0.79453  1.0000
  H   H3778     1.0  0.66747  0.71019  0.69222  1.0000
  N   N117      1.0  0.97966  0.65451  0.77264  1.0000
  S   S488      1.0  0.85285  0.49490  0.65840  1.0000
  H   H3779     1.0  0.90675  0.56847  0.71288  1.0000
  C   C2149     1.0  0.80334  0.72242  0.50348  1.0000
  H   H3780     1.0  0.99612  0.70755  0.88646  1.0000
  C   C2150     1.0  0.79695  0.62201  0.63648  1.0000
  H   H3781     1.0  0.96787  0.64173  0.62800  1.0000
  C   C2151     1.0  0.92458  0.62227  0.58704  1.0000
  C   C2152     1.0  0.97080  0.68359  0.74625  1.0000
  H   H3782     1.0  0.99091  0.66954  0.96742  1.0000
  H   H3783     1.0  0.95012  0.65796  0.50662  1.0000
  H   H3784     1.0  0.97583  0.63926  0.53056  1.0000
  N   N118      1.0  0.80061  0.65125  0.61393  1.0000
  H   H3785     1.0  0.81043  0.63644  0.84411  1.0000
  H   H3786     1.0  0.78873  0.65159  0.85273  1.0000
  H   H3787     1.0  0.69725  0.66332  0.67011  1.0000
  H   H3788     1.0  0.79058  0.71286  0.80594  1.0000
  H   H3789     1.0  0.73889  0.67386  0.63052  1.0000
  H   H3790     1.0  0.90848  0.62215  0.58810  1.0000
  H   H3791     1.0  0.90675  0.65352  0.97002  1.0000
  H   H3792     1.0  0.98819  0.49521  0.54300  1.0000
  H   H3793     1.0  0.91648  0.49307  0.62469  1.0000
  C   C2153     1.0  0.80794  0.65312  0.63734  1.0000
  C   C2154     1.0  0.77822  0.65769  0.61523  1.0000
  H   H3794     1.0  0.82386  0.64680  0.63706  1.0000
  H   H3795     1.0  0.93268  0.57098  0.70151  1.0000
  N   N119      1.0  0.88293  0.64788  0.95643  1.0000
  H   H3796     1.0  0.96053  0.61412  0.64175  1.0000
  S   S489      1.0  0.99020  0.50643  0.68934  1.0000
  C   C2155     1.0  0.97956  0.66381  0.48444  1.0000
  C   C2156     1.0  0.99745  0.64860  0.81308  1.0000
  C   C2157     1.0  0.88320  0.69463  0.88145  1.0000
  H   H3797     1.0  0.80019  0.66482  0.72934  1.0000
  C   C2158     1.0  0.97138  0.72857  0.97490  1.0000
  H   H3798     1.0  0.93376  0.61031  0.58573  1.0000
  H   H3799     1.0  0.92209  0.49869  0.74488  1.0000
  H   H3800     1.0  0.93607  0.50476  0.61628  1.0000
  S   S490      1.0  0.71538  0.66925  0.73523  1.0000
  S   S491      1.0  0.71487  0.71463  0.72757  1.0000
  C   C2159     1.0  0.80600  0.63400  0.61226  1.0000
  C   C2160     1.0  0.88404  0.64488  0.88370  1.0000
  H   H3801     1.0  0.79743  0.66711  0.68187  1.0000
  C   C2161     1.0  0.79969  0.65317  0.80984  1.0000
  H   H3802     1.0  0.81479  0.65109  0.79681  1.0000
  C   C2162     1.0  0.82120  0.71250  0.59375  1.0000
  H   H3803     1.0  0.99472  0.71188  0.65266  1.0000
  H   H3804     1.0  0.76745  0.72873  0.77567  1.0000
  H   H3805     1.0  0.81347  0.65653  0.84001  1.0000
  C   C2163     1.0  0.82597  0.73712  0.70646  1.0000
  H   H3806     1.0  0.67990  0.68190  0.69940  1.0000
  C   C2164     1.0  0.89641  0.69401  0.89809  1.0000
  H   H3807     1.0  0.76758  0.66405  0.65472  1.0000
  H   H3808     1.0  0.96105  0.63702  0.75018  1.0000
  C   C2165     1.0  0.76443  0.65632  0.64345  1.0000
  H   H3809     1.0  0.79942  0.64732  0.65662  1.0000
  C   C2166     1.0  0.80899  0.65804  0.56194  1.0000
  H   H3810     1.0  0.67292  0.69944  0.65271  1.0000
  H   H3811     1.0  0.82275  0.63007  0.60845  1.0000
  C   C2167     1.0  0.76909  0.66380  0.77308  1.0000
  H   H3812     1.0  0.79281  0.66593  0.80540  1.0000
  C   C2168     1.0  0.92139  0.64398  0.93434  1.0000
  H   H3813     1.0  0.90148  0.66592  0.93968  1.0000
  H   H3814     1.0  0.70573  0.63994  0.73562  1.0000
  H   H3815     1.0  0.77984  0.67179  0.77000  1.0000
  H   H3816     1.0  0.80458  0.60336  0.61371  1.0000
  S   S492      1.0  0.84591  0.71600  0.58568  1.0000
  H   H3817     1.0  0.76448  0.66623  0.75342  1.0000
  S   S493      1.0  0.88634  0.69986  0.92898  1.0000
  C   C2169     1.0  0.80843  0.71617  0.61717  1.0000
  H   H3818     1.0  0.76669  0.64407  0.65528  1.0000
  H   H3819     1.0  0.82392  0.70328  0.55900  1.0000
  C   C2170     1.0  0.81752  0.67015  0.53808  1.0000
  H   H3820     1.0  0.86725  0.67153  0.94095  1.0000
  H   H3821     1.0  0.75312  0.66654  0.81381  1.0000
  H   H3822     1.0  0.73762  0.65348  0.63224  1.0000
  H   H3823     1.0  0.73295  0.66070  0.66249  1.0000
  H   H3824     1.0  0.94507  0.61790  0.80594  1.0000
  H   H3825     1.0  0.93420  0.49059  0.66988  1.0000
  C   C2171     1.0  0.75010  0.66954  0.79326  1.0000
  H   H3826     1.0  0.81704  0.64613  0.55844  1.0000
  H   H3827     1.0  0.96133  0.61363  0.67570  1.0000
  S   S494      1.0  0.97660  0.70767  0.94276  1.0000
  H   H3828     1.0  0.86714  0.69879  0.88761  1.0000
  H   H3829     1.0  0.80989  0.68239  0.53999  1.0000
  H   H3830     1.0  0.85896  0.72186  0.67261  1.0000
  C   C2172     1.0  0.74327  0.68751  0.78561  1.0000
  H   H3831     1.0  0.81552  0.72871  0.71663  1.0000
  C   C2173     1.0  0.98481  0.72044  0.95631  1.0000
  Fe  Fe246     1.0  0.70500  0.72683  0.68863  1.0000
  H   H3832     1.0  0.98764  0.65456  0.71658  1.0000
  Fe  Fe247     1.0  0.94614  0.70288  0.96511  1.0000
  H   H3833     1.0  0.85261  0.71993  0.71861  1.0000
  H   H3834     1.0  0.88261  0.65394  0.86490  1.0000
  C   C2174     1.0  0.99705  0.69118  0.56358  1.0000
  H   H3835     1.0  0.95116  0.72739  0.89648  1.0000
  C   C2175     1.0  0.88069  0.64110  0.93417  1.0000
  H   H3836     1.0  0.92003  0.64670  0.91305  1.0000
  H   H3837     1.0  0.89971  0.63791  0.88124  1.0000
  H   H3838     1.0  0.87317  0.63694  0.88690  1.0000
  H   H3839     1.0  0.78809  0.69988  0.56993  1.0000
  H   H3840     1.0  0.98708  0.62760  0.64384  1.0000
  C   C2176     1.0  0.97101  0.63372  0.64717  1.0000
  C   C2177     1.0  0.96250  0.66265  0.50983  1.0000
  C   C2178     1.0  0.90282  0.65338  0.95088  1.0000
  H   H3841     1.0  0.96867  0.64091  0.66237  1.0000
  C   C2179     1.0  0.97975  0.49659  0.67308  1.0000
  H   H3842     1.0  0.99307  0.71120  0.73316  1.0000
  H   H3843     1.0  0.94908  0.50621  0.68970  1.0000
  C   C2180     1.0  0.77876  0.71887  0.76979  1.0000
  C   C2181     1.0  0.84455  0.73214  0.72014  1.0000
  H   H3844     1.0  0.96929  0.66498  0.80749  1.0000
  H   H3845     1.0  0.95610  0.67439  0.51510  1.0000
  H   H3846     1.0  0.94365  0.71503  0.86381  1.0000
  H   H3847     1.0  0.99344  0.63406  0.73404  1.0000
  C   C2182     1.0  0.98257  0.72089  0.85187  1.0000
  H   H3848     1.0  0.98507  0.68233  0.73123  1.0000
  H   H3849     1.0  0.97277  0.68922  0.76160  1.0000
  C   C2183     1.0  0.98548  0.70621  0.87502  1.0000
  H   H3850     1.0  0.67407  0.70213  0.73175  1.0000
  H   H3851     1.0  0.79200  0.72022  0.49392  1.0000
  H   H3852     1.0  0.97600  0.69170  0.65213  1.0000
  N   N120      1.0  0.82347  0.72258  0.48419  1.0000
  H   H3853     1.0  0.98795  0.70536  0.52711  1.0000
  H   H3854     1.0  0.87173  0.72226  0.51817  1.0000
  C   C2184     1.0  0.99237  0.68834  0.65276  1.0000
  H   H3855     1.0  0.85158  0.73023  0.75879  1.0000
  H   H3856     1.0  0.67443  0.72770  0.64559  1.0000
  C   C2185     1.0  0.94117  0.64834  0.93486  1.0000
  H   H3857     1.0  0.85834  0.48840  0.71305  1.0000
  H   H3858     1.0  0.83555  0.69779  0.49842  1.0000
  H   H3859     1.0  0.97510  0.67646  0.56724  1.0000
  H   H3860     1.0  0.83813  0.71886  0.51752  1.0000
  S   S495      1.0  0.73577  0.73211  0.66770  1.0000
  H   H3861     1.0  0.80221  0.73203  0.67776  1.0000
  C   C2186     1.0  0.68431  0.65706  0.67833  1.0000
  H   H3862     1.0  0.80541  0.69455  0.48815  1.0000
  H   H3863     1.0  0.94324  0.64625  0.95578  1.0000
  H   H3864     1.0  0.82719  0.48833  0.77934  1.0000
  H   H3865     1.0  0.98395  0.73133  0.89544  1.0000
  H   H3866     1.0  0.90668  0.72437  0.86971  1.0000
  H   H3867     1.0  0.88788  0.73043  0.48790  1.0000
  H   H3868     1.0  0.98841  0.69939  0.68542  1.0000
  H   H3869     1.0  0.99123  0.64053  0.97793  1.0000
  C   C2187     1.0  0.95032  0.48940  0.66619  1.0000
  N   N121      1.0  0.97135  0.73625  0.85989  1.0000
  H   H3870     1.0  0.77874  0.71655  0.64205  1.0000
  C   C2188     1.0  0.87195  0.73101  0.49885  1.0000
  H   H3871     1.0  0.68682  0.64856  0.69732  1.0000
  H   H3872     1.0  0.96600  0.65213  0.98204  1.0000
  H   H3873     1.0  0.81420  0.72038  0.63057  1.0000
  H   H3874     1.0  0.67274  0.69835  0.77973  1.0000
  H   H3875     1.0  0.67299  0.68202  0.74887  1.0000
  H   H3876     1.0  0.99094  0.63785  0.82326  1.0000
  H   H3877     1.0  0.99539  0.67602  0.66471  1.0000
  C   C2189     1.0  0.95045  0.73472  0.87595  1.0000
  H   H3878     1.0  0.99210  0.66773  0.48914  1.0000
  H   H3879     1.0  0.99144  0.67093  0.78592  1.0000
  H   H3880     1.0  0.98505  0.65962  0.84753  1.0000
  H   H3881     1.0  0.76232  0.73757  0.51423  1.0000
  C   C2190     1.0  0.99463  0.69114  0.86423  1.0000
  H   H3882     1.0  0.87774  0.67325  0.98237  1.0000
  C   C2191     1.0  0.99813  0.69986  0.66530  1.0000
  H   H3883     1.0  0.99752  0.70104  0.57245  1.0000
  C   C2192     1.0  0.77163  0.73762  0.52850  1.0000
  C   C2193     1.0  0.79366  0.73769  0.51440  1.0000
  H   H3884     1.0  0.99799  0.72208  0.84040  1.0000
  C   C2194     1.0  0.99821  0.64571  0.72821  1.0000
  C   C2195     1.0  0.84651  0.68436  0.98244  1.0000
  C   C2196     1.0  0.88045  0.63571  0.98244  1.0000
  H   H3885     1.0  0.67704  0.89566  0.03711  1.0000
  Fe  Fe248     1.0  0.91854  0.75271  0.14276  1.0000
  S   S496      1.0  0.93057  0.77178  0.11041  1.0000
  H   H3886     1.0  0.69355  0.91665  0.02332  1.0000
  Fe  Fe249     1.0  0.90960  0.77285  0.18378  1.0000
  S   S497      1.0  0.92152  0.79356  0.15479  1.0000
  S   S498      1.0  0.89579  0.77280  0.22683  1.0000
  Fe  Fe250     1.0  0.90425  0.78873  0.12788  1.0000
  S   S499      1.0  0.88513  0.80653  0.10033  1.0000
  Fe  Fe251     1.0  0.94678  0.77473  0.13997  1.0000
  S   S500      1.0  0.98052  0.77264  0.12516  1.0000
  S   S501      1.0  0.89075  0.76921  0.15798  1.0000
  S   S502      1.0  0.93625  0.75449  0.17149  1.0000
  Fe  Fe252     1.0  0.77789  0.86102  0.15032  1.0000
  S   S503      1.0  0.76355  0.88459  0.16124  1.0000
  S   S504      1.0  0.81029  0.85169  0.15627  1.0000
  H   H3887     1.0  0.95038  0.79114  0.24223  1.0000
  Fe  Fe253     1.0  0.74516  0.88858  0.13007  1.0000
  S   S505      1.0  0.76174  0.86626  0.11600  1.0000
  S   S506      1.0  0.75443  0.84852  0.17966  1.0000
  H   H3888     1.0  0.74904  0.85242  0.04034  1.0000
  C   C2197     1.0  0.86436  0.81939  0.11523  1.0000
  C   C2198     1.0  0.84705  0.82533  0.10377  1.0000
  C   C2199     1.0  0.83012  0.83515  0.11612  1.0000
  C   C2200     1.0  0.83079  0.83954  0.13940  1.0000
  C   C2201     1.0  0.84839  0.83403  0.15015  1.0000
  C   C2202     1.0  0.86493  0.82377  0.13847  1.0000
  H   H3889     1.0  0.84662  0.82213  0.08557  1.0000
  H   H3890     1.0  0.81670  0.83945  0.10751  1.0000
  H   H3891     1.0  0.84923  0.83773  0.16769  1.0000
  H   H3892     1.0  0.87831  0.81953  0.14716  1.0000
  H   H3893     1.0  0.68464  0.92289  0.06510  1.0000
  H   H3894     1.0  0.94260  0.74247  0.30726  1.0000
  C   C2203     1.0  0.91450  0.73984  0.29918  1.0000
  H   H3895     1.0  0.96793  0.77166  0.99119  1.0000
  C   C2204     1.0  0.68036  0.87310  0.01075  1.0000
  C   C2205     1.0  0.98710  0.79353  0.15152  1.0000
  C   C2206     1.0  0.67143  0.91836  0.25623  1.0000
  H   H3896     1.0  0.81729  0.74942  0.40590  1.0000
  H   H3897     1.0  0.97259  0.80913  0.03778  1.0000
  H   H3898     1.0  0.97088  0.79632  0.15812  1.0000
  C   C2207     1.0  0.91490  0.81746  0.02256  1.0000
  C   C2208     1.0  0.76975  0.80873  0.17153  1.0000
  H   H3899     1.0  0.96800  0.74365  0.00198  1.0000
  C   C2209     1.0  0.72934  0.92755  0.14249  1.0000
  H   H3900     1.0  0.84567  0.73968  0.15893  1.0000
  C   C2210     1.0  0.86560  0.74002  0.27854  1.0000
  H   H3901     1.0  0.82105  0.74664  0.46069  1.0000
  H   H3902     1.0  0.90213  0.75494  0.09804  1.0000
  H   H3903     1.0  0.89229  0.75629  0.05544  1.0000
  C   C2211     1.0  0.72660  0.88298  0.04536  1.0000
  H   H3904     1.0  0.92959  0.79053  0.22781  1.0000
  H   H3905     1.0  0.84530  0.74154  0.21447  1.0000
  H   H3906     1.0  0.83739  0.75603  0.41374  1.0000
  C   C2212     1.0  0.75180  0.96350  0.08687  1.0000
  H   H3907     1.0  0.72463  0.86864  0.08629  1.0000
  H   H3908     1.0  0.73878  0.91295  0.02407  1.0000
  C   C2213     1.0  0.70159  0.84294  0.12385  1.0000
  C   C2214     1.0  0.96768  0.78452  0.98575  1.0000
  H   H3909     1.0  0.68609  0.91399  0.11389  1.0000
  C   C2215     1.0  0.76724  0.95156  0.07162  1.0000
  C   C2216     1.0  0.77749  0.93773  0.09092  1.0000
  S   S507      1.0  0.71941  0.87821  0.15830  1.0000
  C   C2217     1.0  0.67748  0.91588  0.28347  1.0000
  C   C2218     1.0  0.66674  0.85022  0.10152  1.0000
  H   H3910     1.0  0.69156  0.87722  0.22475  1.0000
  H   H3911     1.0  0.67295  0.86545  0.02899  1.0000
  H   H3912     1.0  0.76619  0.93117  0.10533  1.0000
  H   H3913     1.0  0.74115  0.95674  0.10242  1.0000
  S   S508      1.0  0.72374  0.83751  0.13716  1.0000
  H   H3914     1.0  0.96736  0.76928  0.07053  1.0000
  C   C2219     1.0  0.69416  0.86446  0.30005  1.0000
  H   H3915     1.0  0.67540  0.82631  0.09554  1.0000
  H   H3916     1.0  0.90552  0.81493  0.04299  1.0000
  C   C2220     1.0  0.68905  0.85796  0.12287  1.0000
  H   H3917     1.0  0.98357  0.76401  0.04151  1.0000
  C   C2221     1.0  0.72671  0.86682  0.06570  1.0000
  H   H3918     1.0  0.66802  0.90158  0.11783  1.0000
  H   H3919     1.0  0.68604  0.86622  0.99475  1.0000
  H   H3920     1.0  0.75988  0.94646  0.06035  1.0000
  C   C2222     1.0  0.67685  0.92717  0.20773  1.0000
  H   H3921     1.0  0.73800  0.98153  0.12549  1.0000
  H   H3922     1.0  0.78840  0.92930  0.07953  1.0000
  H   H3923     1.0  0.78581  0.94201  0.10219  1.0000
  C   C2223     1.0  0.70882  0.93857  0.10871  1.0000
  H   H3924     1.0  0.73841  0.96544  0.04043  1.0000
  C   C2224     1.0  0.69907  0.89759  0.07359  1.0000
  N   N122      1.0  0.96505  0.78757  0.03434  1.0000
  H   H3925     1.0  0.93487  0.79278  0.05751  1.0000
  H   H3926     1.0  0.95079  0.76127  0.02780  1.0000
  H   H3927     1.0  0.74670  0.84429  0.07578  1.0000
  C   C2225     1.0  0.84678  0.81373  0.22403  1.0000
  H   H3928     1.0  0.83724  0.81125  0.24434  1.0000
  H   H3929     1.0  0.71326  0.97983  0.10166  1.0000
  C   C2226     1.0  0.70548  0.97866  0.02180  1.0000
  H   H3930     1.0  0.66717  0.90606  0.32551  1.0000
  C   C2227     1.0  0.70638  0.91771  0.22923  1.0000
  C   C2228     1.0  0.69085  0.88659  0.04057  1.0000
  C   C2229     1.0  0.67929  0.91100  0.20012  1.0000
  C   C2230     1.0  0.71218  0.98455  0.04228  1.0000
  C   C2231     1.0  0.72049  0.93527  0.00953  1.0000
  H   H3931     1.0  0.99316  0.81035  0.17008  1.0000
  C   C2232     1.0  0.72097  0.92267  0.24221  1.0000
  C   C2233     1.0  0.74095  0.91080  0.24209  1.0000
  H   H3932     1.0  0.66757  0.83084  0.20892  1.0000
  C   C2234     1.0  0.97110  0.73860  0.26248  1.0000
  H   H3933     1.0  0.67882  0.92718  0.28732  1.0000
  H   H3934     1.0  0.67534  0.97647  0.21777  1.0000
  H   H3935     1.0  0.68936  0.94415  0.25101  1.0000
  H   H3936     1.0  0.70669  0.90481  0.23713  1.0000
  H   H3937     1.0  0.71384  0.91888  0.20773  1.0000
  H   H3938     1.0  0.92564  0.74060  0.24520  1.0000
  H   H3939     1.0  0.98055  0.80526  0.21848  1.0000
  H   H3940     1.0  0.70597  0.81998  0.11492  1.0000
  H   H3941     1.0  0.97859  0.80194  0.99734  1.0000
  H   H3942     1.0  0.76065  0.96744  0.09794  1.0000
  H   H3943     1.0  0.69880  0.96792  0.03168  1.0000
  H   H3944     1.0  0.91129  0.83040  0.01415  1.0000
  H   H3945     1.0  0.94609  0.81544  0.00292  1.0000
  C   C2235     1.0  0.82970  0.74464  0.22586  1.0000
  C   C2236     1.0  0.67756  0.85196  0.20982  1.0000
  H   H3946     1.0  0.72453  0.93437  0.23064  1.0000
  H   H3947     1.0  0.71441  0.92364  0.26319  1.0000
  H   H3948     1.0  0.75172  0.91538  0.24911  1.0000
  H   H3949     1.0  0.73846  0.89932  0.25580  1.0000
  H   H3950     1.0  0.74782  0.90877  0.22160  1.0000
  C   C2237     1.0  0.95935  0.74282  0.06067  1.0000
  C   C2238     1.0  0.68391  0.94362  0.23334  1.0000
  H   H3951     1.0  0.68429  0.93519  0.19013  1.0000
  H   H3952     1.0  0.70800  0.84868  0.21671  1.0000
  H   H3953     1.0  0.67701  0.90180  0.16715  1.0000
  H   H3954     1.0  0.66821  0.90406  0.21418  1.0000
  C   C2239     1.0  0.72011  0.94039  0.15485  1.0000
  H   H3955     1.0  0.84135  0.76702  0.15764  1.0000
  N   N123      1.0  0.68470  0.92670  0.23219  1.0000
  H   H3956     1.0  0.69833  0.83064  0.22478  1.0000
  Fe  Fe254     1.0  0.73704  0.85562  0.14641  1.0000
  H   H3957     1.0  0.87022  0.73981  0.16498  1.0000
  H   H3958     1.0  0.83977  0.79422  0.10818  1.0000
  H   H3959     1.0  0.83247  0.80324  0.15118  1.0000
  H   H3960     1.0  0.93556  0.78815  0.02677  1.0000
  C   C2240     1.0  0.84602  0.78228  0.11916  1.0000
  H   H3961     1.0  0.76820  0.79829  0.16497  1.0000
  H   H3962     1.0  0.70966  0.86766  0.02050  1.0000
  C   C2241     1.0  0.96808  0.77030  0.04885  1.0000
  H   H3963     1.0  0.97798  0.81517  0.24537  1.0000
  S   S509      1.0  0.73676  0.91176  0.10178  1.0000
  C   C2242     1.0  0.67161  0.86163  0.11159  1.0000
  H   H3964     1.0  0.71147  0.90012  0.08065  1.0000
  H   H3965     1.0  0.84592  0.77010  0.20381  1.0000
  C   C2243     1.0  0.94215  0.76041  0.25815  1.0000
  C   C2244     1.0  0.82925  0.77422  0.20941  1.0000
  Fe  Fe255     1.0  0.73923  0.87225  0.18853  1.0000
  H   H3966     1.0  0.72475  0.94119  0.17245  1.0000
  C   C2245     1.0  0.95267  0.76895  0.23037  1.0000
  H   H3967     1.0  0.84478  0.77334  0.10872  1.0000
  H   H3968     1.0  0.93758  0.76448  0.05971  1.0000
  H   H3969     1.0  0.82651  0.77557  0.23050  1.0000
  C   C2246     1.0  0.94620  0.78694  0.22668  1.0000
  C   C2247     1.0  0.72396  0.92679  0.11910  1.0000
  C   C2248     1.0  0.72275  0.91900  0.02853  1.0000
  C   C2249     1.0  0.74679  0.85541  0.06013  1.0000
  H   H3970     1.0  0.94474  0.76567  0.27369  1.0000
  H   H3971     1.0  0.92575  0.76402  0.25810  1.0000
  C   C2250     1.0  0.83305  0.74592  0.40932  1.0000
  S   S510      1.0  0.73266  0.87572  0.23057  1.0000
  H   H3972     1.0  0.69502  0.86077  0.32101  1.0000
  C   C2251     1.0  0.69222  0.87374  0.24573  1.0000
  H   H3973     1.0  0.89791  0.74524  0.20668  1.0000
  H   H3974     1.0  0.74110  0.91853  0.15054  1.0000
  H   H3975     1.0  0.94831  0.76564  0.21406  1.0000
  H   H3976     1.0  0.79238  0.81877  0.17885  1.0000
  H   H3977     1.0  0.85801  0.80343  0.18951  1.0000
  H   H3978     1.0  0.87073  0.76305  0.27809  1.0000
  C   C2252     1.0  0.95276  0.76034  0.04821  1.0000
  C   C2253     1.0  0.67917  0.83523  0.10301  1.0000
  C   C2254     1.0  0.88876  0.74394  0.22659  1.0000
  H   H3979     1.0  0.71452  0.86093  0.06525  1.0000
  H   H3980     1.0  0.95382  0.79277  0.20669  1.0000
  C   C2255     1.0  0.97659  0.78945  0.00573  1.0000
  H   H3981     1.0  0.96938  0.76608  0.22777  1.0000
  C   C2256     1.0  0.67353  0.91250  0.10588  1.0000
  H   H3982     1.0  0.85186  0.78935  0.16451  1.0000
  C   C2257     1.0  0.89888  0.74499  0.06665  1.0000
  H   H3983     1.0  0.76011  0.80913  0.19164  1.0000
  H   H3984     1.0  0.67903  0.86367  0.19634  1.0000
  H   H3985     1.0  0.90771  0.75244  0.29250  1.0000
  N   N124      1.0  0.70634  0.89401  0.04609  1.0000
  C   C2258     1.0  0.69788  0.87840  0.01640  1.0000
  H   H3986     1.0  0.80023  0.80908  0.15099  1.0000
  H   H3987     1.0  0.76423  0.81953  0.15711  1.0000
  H   H3988     1.0  0.86227  0.78145  0.11864  1.0000
  H   H3989     1.0  0.67081  0.85349  0.23044  1.0000
  H   H3990     1.0  0.70654  0.84006  0.19028  1.0000
  C   C2259     1.0  0.67459  0.87159  0.26520  1.0000
  H   H3991     1.0  0.68534  0.87765  0.05833  1.0000
  C   C2260     1.0  0.79183  0.80817  0.17196  1.0000
  H   H3992     1.0  0.71946  0.92102  0.04911  1.0000
  H   H3993     1.0  0.73313  0.88086  0.02483  1.0000
  H   H3994     1.0  0.82219  0.81479  0.18915  1.0000
  H   H3995     1.0  0.81856  0.77922  0.14719  1.0000
  C   C2261     1.0  0.67548  0.91349  0.17197  1.0000
  H   H3996     1.0  0.84093  0.82591  0.21347  1.0000
  H   H3997     1.0  0.69480  0.88692  0.08837  1.0000
  H   H3998     1.0  0.85223  0.78968  0.22051  1.0000
  C   C2262     1.0  0.83438  0.77902  0.14799  1.0000
  C   C2263     1.0  0.71066  0.87159  0.25360  1.0000
  H   H3999     1.0  0.69208  0.90738  0.28400  1.0000
  C   C2264     1.0  0.70863  0.90894  0.02493  1.0000
  C   C2265     1.0  0.83570  0.79109  0.16356  1.0000
  H   H4000     1.0  0.83042  0.74541  0.24626  1.0000
  C   C2266     1.0  0.82542  0.80300  0.20277  1.0000
  C   C2267     1.0  0.68071  0.91133  0.07665  1.0000
  C   C2268     1.0  0.93738  0.81245  0.02361  1.0000
  H   H4001     1.0  0.72007  0.96262  0.06973  1.0000
  H   H4002     1.0  0.95945  0.74124  0.08221  1.0000
  H   H4003     1.0  0.81802  0.75881  0.19149  1.0000
  C   C2269     1.0  0.80049  0.79261  0.19050  1.0000
  H   H4004     1.0  0.75958  0.86070  0.06056  1.0000
  H   H4005     1.0  0.91092  0.81108  0.00971  1.0000
  H   H4006     1.0  0.94051  0.81964  0.03586  1.0000
  N   N125      1.0  0.82268  0.79000  0.19121  1.0000
  H   H4007     1.0  0.79708  0.78286  0.18400  1.0000
  H   H4008     1.0  0.70456  0.93800  0.09068  1.0000
  H   H4009     1.0  0.69276  0.86666  0.13085  1.0000
  C   C2270     1.0  0.69887  0.84220  0.21039  1.0000
  C   C2271     1.0  0.88518  0.75581  0.24098  1.0000
  C   C2272     1.0  0.84680  0.80149  0.20847  1.0000
  H   H4010     1.0  0.72570  0.86567  0.28692  1.0000
  C   C2273     1.0  0.94280  0.79451  0.03615  1.0000
  H   H4011     1.0  0.69442  0.94908  0.21556  1.0000
  H   H4012     1.0  0.71842  0.97586  0.00549  1.0000
  H   H4013     1.0  0.81427  0.80374  0.22186  1.0000
  H   H4014     1.0  0.86246  0.81313  0.22615  1.0000
  H   H4015     1.0  0.68770  0.96025  0.11313  1.0000
  H   H4016     1.0  0.80297  0.76259  0.22284  1.0000
  C   C2274     1.0  0.70489  0.95213  0.14454  1.0000
  H   H4017     1.0  0.70413  0.88647  0.99797  1.0000
  H   H4018     1.0  0.73766  0.88855  0.04994  1.0000
  H   H4019     1.0  0.79127  0.79239  0.21110  1.0000
  C   C2275     1.0  0.81872  0.76034  0.21132  1.0000
  H   H4020     1.0  0.71472  0.90609  0.00486  1.0000
  C   C2276     1.0  0.69916  0.95113  0.12155  1.0000
  Fe  Fe256     1.0  0.66632  0.98305  0.14395  1.0000
  C   C2277     1.0  0.69646  0.83162  0.11407  1.0000
  H   H4021     1.0  0.69466  0.90375  0.20029  1.0000
  S   S511      1.0  0.69330  0.96799  0.16053  1.0000
  C   C2278     1.0  0.71150  0.86718  0.28076  1.0000
  H   H4022     1.0  0.97657  0.74815  0.26715  1.0000
  C   C2279     1.0  0.67566  0.86676  0.29237  1.0000
  H   H4023     1.0  0.70476  0.94197  0.01391  1.0000
  H   H4024     1.0  0.76918  0.97272  0.02288  1.0000
  H   H4025     1.0  0.66797  0.90946  0.06958  1.0000
  C   C2280     1.0  0.90449  0.74423  0.09075  1.0000
  H   H4026     1.0  0.99009  0.82326  0.21180  1.0000
  H   H4027     1.0  0.77945  0.95736  0.05787  1.0000
  N   N126      1.0  0.74007  0.97760  0.07033  1.0000
  H   H4028     1.0  0.73091  0.94215  0.01223  1.0000
  H   H4029     1.0  0.97785  0.75126  0.18683  1.0000
  C   C2281     1.0  0.99275  0.74331  0.18316  1.0000
  H   H4030     1.0  0.68684  0.91979  0.15714  1.0000
  N   N127      1.0  0.94833  0.74254  0.26513  1.0000
  H   H4031     1.0  0.66905  0.88360  0.00381  1.0000
  H   H4032     1.0  0.96420  0.79662  0.06899  1.0000
  C   C2282     1.0  0.87356  0.75387  0.26694  1.0000
  H   H4033     1.0  0.67151  0.90627  0.25398  1.0000
  H   H4034     1.0  0.67181  0.84424  0.17792  1.0000
  C   C2283     1.0  0.72826  0.97173  0.05573  1.0000
  H   H4035     1.0  0.99223  0.78238  0.00486  1.0000
  C   C2284     1.0  0.97348  0.79650  0.04846  1.0000
  H   H4036     1.0  0.95204  0.79103  0.98480  1.0000
  H   H4037     1.0  0.90942  0.74292  0.34010  1.0000
  H   H4038     1.0  0.99321  0.80240  0.08321  1.0000
  H   H4039     1.0  0.66951  0.97114  0.25404  1.0000
  C   C2285     1.0  0.76272  0.98533  0.02301  1.0000
  C   C2286     1.0  0.72500  0.98681  0.08953  1.0000
  H   H4040     1.0  0.95006  0.73987  0.22504  1.0000
  C   C2287     1.0  0.99587  0.79010  0.05141  1.0000
  H   H4041     1.0  0.84325  0.74308  0.39066  1.0000
  H   H4042     1.0  0.99219  0.76923  0.30386  1.0000
  H   H4043     1.0  0.86708  0.74120  0.13157  1.0000
  H   H4044     1.0  0.72423  0.93401  0.98840  1.0000
  C   C2288     1.0  0.98797  0.81209  0.22676  1.0000
  H   H4045     1.0  0.99664  0.74883  0.34402  1.0000
  C   C2289     1.0  0.99550  0.78244  0.13541  1.0000
  H   H4046     1.0  0.99627  0.78094  0.24685  1.0000
  H   H4047     1.0  0.99639  0.74775  0.08606  1.0000
  H   H4048     1.0  0.69853  0.98748  0.05767  1.0000
  H   H4049     1.0  0.97465  0.73806  0.05013  1.0000
  H   H4050     1.0  0.85651  0.73854  0.29856  1.0000
  H   H4051     1.0  0.99751  0.79045  0.27171  1.0000
  H   H4052     1.0  0.99762  0.77810  0.06460  1.0000
  H   H4053     1.0  0.97852  0.73818  0.24141  1.0000
  H   H4054     1.0  0.76688  0.98785  0.06104  1.0000
  C   C2290     1.0  0.97358  0.75643  0.88608  1.0000
  C   C2291     1.0  0.77783  0.76011  0.65889  1.0000
  H   H4055     1.0  0.99605  0.78099  0.95700  1.0000
  C   C2292     1.0  0.79592  0.75725  0.67225  1.0000
  H   H4056     1.0  0.85085  0.78041  0.63026  1.0000
  C   C2293     1.0  0.96952  0.74885  0.83463  1.0000
  H   H4057     1.0  0.90861  0.74183  0.87921  1.0000
  H   H4058     1.0  0.80324  0.76773  0.66420  1.0000
  H   H4059     1.0  0.97007  0.76635  0.86918  1.0000
  H   H4060     1.0  0.78283  0.76160  0.63686  1.0000
  C   C2294     1.0  0.98633  0.76567  0.79183  1.0000
  C   C2295     1.0  0.98280  0.74058  0.87686  1.0000
  C   C2296     1.0  0.85763  0.76983  0.62141  1.0000
  H   H4061     1.0  0.98080  0.80074  0.95046  1.0000
  H   H4062     1.0  0.78991  0.75646  0.69400  1.0000
  C   C2297     1.0  0.98813  0.76093  0.89899  1.0000
  H   H4063     1.0  0.76972  0.75001  0.66674  1.0000
  H   H4064     1.0  0.98221  0.75927  0.77912  1.0000
  H   H4065     1.0  0.95942  0.75530  0.90123  1.0000
  S   S512      1.0  0.67934  0.74782  0.68070  1.0000
  H   H4066     1.0  0.83491  0.76249  0.67221  1.0000
  H   H4067     1.0  0.85156  0.74717  0.62261  1.0000
  H   H4068     1.0  0.85539  0.74028  0.71102  1.0000
  C   C2298     1.0  0.67178  0.75889  0.75230  1.0000
  H   H4069     1.0  0.81765  0.74866  0.71143  1.0000
  H   H4070     1.0  0.67340  0.75440  0.77350  1.0000
  H   H4071     1.0  0.85897  0.77356  0.59936  1.0000
  C   C2299     1.0  0.84196  0.75188  0.66344  1.0000
  H   H4072     1.0  0.79410  0.74845  0.49804  1.0000
  H   H4073     1.0  0.95797  0.75944  0.83894  1.0000
  H   H4074     1.0  0.87304  0.76496  0.62577  1.0000
  H   H4075     1.0  0.99431  0.76145  0.83007  1.0000
  H   H4076     1.0  0.98137  0.77245  0.90486  1.0000
  H   H4077     1.0  0.97360  0.78430  0.94362  1.0000
  H   H4078     1.0  0.68173  0.76767  0.74224  1.0000
  H   H4079     1.0  0.76711  0.77102  0.66328  1.0000
  H   H4080     1.0  0.86596  0.74307  0.50296  1.0000
  H   H4081     1.0  0.67686  0.74878  0.74203  1.0000
  H   H4082     1.0  0.67652  0.96615  0.67713  1.0000
  C   C2300     1.0  0.84438  0.75725  0.63255  1.0000
  H   H4083     1.0  0.85754  0.74840  0.66763  1.0000
  H   H4084     1.0  0.97431  0.77621  0.79481  1.0000
  H   H4085     1.0  0.67262  0.97195  0.72148  1.0000
  H   H4086     1.0  0.82952  0.76252  0.62670  1.0000
  H   H4087     1.0  0.99110  0.75183  0.91718  1.0000
  C   C2301     1.0  0.98933  0.75471  0.81873  1.0000
  H   H4088     1.0  0.82906  0.74437  0.75267  1.0000
  H   H4089     1.0  0.96383  0.74445  0.82057  1.0000
  C   C2302     1.0  0.98037  0.78790  0.95750  1.0000
  H   H4090     1.0  0.94168  0.74654  0.87918  1.0000
  H   H4091     1.0  0.83158  0.73911  0.50165  1.0000
  H   H4092     1.0  0.76538  0.74841  0.53691  1.0000
  H   H4093     1.0  0.67008  0.97997  0.76033  1.0000
  H   H4094     1.0  0.81357  0.74170  0.64575  1.0000
  H   H4095     1.0  0.80185  0.73851  0.52944  1.0000
  C   C2303     1.0  0.81076  0.74171  0.66737  1.0000
  C   C2304     1.0  0.66714  0.98165  0.70539  1.0000
  H   H4096     1.0  0.98741  0.74001  0.72490  1.0000
  N   N128      1.0  0.83050  0.73855  0.67658  1.0000
