data_image0
_chemical_formula_structural       FeNSHSCSC6H4C4HCH2C2H2CH4CHCH2C2H5CHCHCFeH5CHCH4CH2NHCH4C2H2SCH4FeSHFeS2HCFeS2HFeSHSFeS2FeHSH2C6H5C6H5SHC2H2C2NH3CH4C2H2CHCHCH8CH2NHCHCH5CH2CSCHSH2SH6C2HFeH4CH2FeHC2H2SCSCSHC4HCH3C3HCH5CH2CH4C2HCH3C2H4C2H5SH2C3HCH4NH2CH2CH4CHC2H2SH3NSHC4HFeH2C2H2C3H3C2HCHCH2C4H4CH3CNCH5C2FeH3FeS2FeS2FeCFeS2FeS2H2FeHSH3CH3C6H5C3H5CH5CH2CSHNC12H15CHC2HCS2H5CH5C3NHSH3CH2CHC3SHC3HC2HCH5CH3SH3C2H2SH2CH5CH2CH2SFeS2FeCHFeHFeS3H2C2H3CHC3H2C6H6CSHCHC2HCHCH2CH6CH2FeCHNHC2HCH12NH5C3H2CH4CH9CHCHC2HC2HCHC5H7SCHC2H2CH2CHCH3CNHCH3CHCH3C2H2C2FeH4NCHC2H13CHCNCHC2SH2CHCH3C2H3CHCH2CH3CH3C3NH2CFeS2FeSCFeHFeS4C6H5CHC3HCH3C2H4CH3SCH5CHCH3CHC2H2C2H2CHCH7NH3C4FeHCH6CH2CHCH6CSFeS2FeHS2FeS2FeS2FeHFeS2C7H4SHC4HC3H4C3H2CH14CH7CHC3H3C2H2C2H4CH2SHCHCH5NH2CHCH3C2HC2HC2HCH2CH6SC2H13CHCH2CHSC2NFeSHSHSFeS2FeS2FeCFeS3C5H2CHC6H3C7H2C5H7NC2H4C2HCH4CH5CH7CH2CH9C3H2NH4CH3CH5CH3C2HFeH4CHCH2CH6CH5C3HCH5CHCH2CH4C3H2CH5NH2SC3H3CH2C2SFeSCSFeS2FeS2FeSFeHS2C2H2CHCH3C6H4C6H5CHNH3CH4N2H4CH5CSH6CHC2H4C2H3C3H2CH4CH6SCFeH2CHCH3C2SH8C2H3CH4C3HCH2C3H2FeH4CH
_chemical_formula_sum              "Fe48 N24 S96 H768 C432"
_cell_length_a       32.8042
_cell_length_b       33.0687
_cell_length_c       42.8324
_cell_angle_alpha    90.0898
_cell_angle_beta     90.3034
_cell_angle_gamma    89.9891

_space_group_name_H-M_alt    "P 1"
_space_group_IT_number       1

loop_
  _space_group_symop_operation_xyz
  'x, y, z'

loop_
  _atom_site_type_symbol
  _atom_site_label
  _atom_site_symmetry_multiplicity
  _atom_site_fract_x
  _atom_site_fract_y
  _atom_site_fract_z
  _atom_site_occupancy
  Fe  Fe1       1.0  0.36369  0.09317  0.31037  1.0000
  N   N1        1.0  0.25263  0.01124  0.10087  1.0000
  S   S1        1.0  0.34548  0.04255  0.27555  1.0000
  H   H1        1.0  0.44940  0.24180  0.24079  1.0000
  S   S2        1.0  0.41838  0.13475  0.31567  1.0000
  C   C1        1.0  0.29857  0.01305  0.10314  1.0000
  S   S3        1.0  0.40603  0.39469  0.23150  1.0000
  C   C2        1.0  0.38714  0.29041  0.30250  1.0000
  C   C3        1.0  0.38044  0.28457  0.27052  1.0000
  C   C4        1.0  0.38648  0.31674  0.24930  1.0000
  C   C5        1.0  0.39978  0.35509  0.25954  1.0000
  C   C6        1.0  0.40735  0.36064  0.29146  1.0000
  C   C7        1.0  0.40058  0.32872  0.31277  1.0000
  H   H2        1.0  0.37020  0.25541  0.26212  1.0000
  H   H3        1.0  0.38074  0.31187  0.22467  1.0000
  H   H4        1.0  0.41868  0.38946  0.29967  1.0000
  H   H5        1.0  0.37263  0.05268  0.11323  1.0000
  C   C8        1.0  0.35586  0.02079  0.23798  1.0000
  C   C9        1.0  0.38060  0.03964  0.21574  1.0000
  C   C10       1.0  0.38701  0.02137  0.18622  1.0000
  C   C11       1.0  0.23310  0.05154  0.10775  1.0000
  H   H6        1.0  0.31549  0.03831  0.05726  1.0000
  C   C12       1.0  0.31995  0.04504  0.08241  1.0000
  H   H7        1.0  0.39464  0.06838  0.22123  1.0000
  H   H8        1.0  0.40611  0.03641  0.16933  1.0000
  C   C13       1.0  0.28856  0.44737  0.22486  1.0000
  C   C14       1.0  0.24364  0.07093  0.13970  1.0000
  H   H9        1.0  0.38051  0.06885  0.07354  1.0000
  H   H10       1.0  0.22911  0.05346  0.15872  1.0000
  C   C15       1.0  0.22715  0.11409  0.14174  1.0000
  H   H11       1.0  0.46995  0.19538  0.22542  1.0000
  H   H12       1.0  0.19353  0.11439  0.13844  1.0000
  H   H13       1.0  0.03969  0.46858  0.11426  1.0000
  H   H14       1.0  0.19933  0.04875  0.10728  1.0000
  C   C16       1.0  0.34131  0.45527  0.31770  1.0000
  H   H15       1.0  0.27696  0.07250  0.14389  1.0000
  C   C17       1.0  0.33796  0.98332  0.23011  1.0000
  H   H16       1.0  0.24910  0.44084  0.28098  1.0000
  H   H17       1.0  0.07421  0.40737  0.09166  1.0000
  C   C18       1.0  0.30496  0.43252  0.25628  1.0000
  C   C19       1.0  0.24196  0.99953  0.06766  1.0000
  H   H18       1.0  0.03001  0.44157  0.14887  1.0000
  H   H19       1.0  0.25167  0.02331  0.05099  1.0000
  H   H20       1.0  0.24027  0.07364  0.08899  1.0000
  H   H21       1.0  0.46229  0.25864  0.29671  1.0000
  H   H22       1.0  0.31153  0.38067  0.30465  1.0000
  C   C20       1.0  0.36593  0.04552  0.08837  1.0000
  H   H23       1.0  0.23431  0.12693  0.16513  1.0000
  C   C21       1.0  0.29255  0.39779  0.32160  1.0000
  H   H24       1.0  0.25629  0.43802  0.22163  1.0000
  C   C22       1.0  0.28100  0.45169  0.28378  1.0000
  Fe  Fe2       1.0  0.42462  0.46199  0.23430  1.0000
  H   H25       1.0  0.30834  0.07585  0.08741  1.0000
  H   H26       1.0  0.24156  0.13356  0.12379  1.0000
  H   H27       1.0  0.30219  0.39908  0.25634  1.0000
  H   H28       1.0  0.17816  0.02031  0.06358  1.0000
  H   H29       1.0  0.33772  0.44024  0.25749  1.0000
  C   C23       1.0  0.45984  0.21087  0.24705  1.0000
  H   H30       1.0  0.04755  0.35974  0.09075  1.0000
  C   C24       1.0  0.01104  0.41008  0.10732  1.0000
  H   H31       1.0  0.26070  0.38790  0.31685  1.0000
  H   H32       1.0  0.45919  0.20975  0.31198  1.0000
  H   H33       1.0  0.37947  0.01564  0.08257  1.0000
  H   H34       1.0  0.30699  0.43404  0.20573  1.0000
  C   C25       1.0  0.01604  0.45003  0.12610  1.0000
  H   H35       1.0  0.21260  0.47402  0.31573  1.0000
  H   H36       1.0  0.26568  0.99927  0.16650  1.0000
  N   N2        1.0  0.29694  0.44268  0.31622  1.0000
  H   H37       1.0  0.06436  0.38031  0.12760  1.0000
  C   C26       1.0  0.05186  0.38817  0.10422  1.0000
  H   H38       1.0  0.36098  0.43089  0.30814  1.0000
  H   H39       1.0  0.30892  0.01898  0.12740  1.0000
  H   H40       1.0  0.31165  0.98293  0.09720  1.0000
  H   H41       1.0  0.43384  0.19369  0.25697  1.0000
  C   C27       1.0  0.48105  0.23151  0.30185  1.0000
  C   C28       1.0  0.36922  0.98382  0.17845  1.0000
  H   H42       1.0  0.34685  0.48193  0.30234  1.0000
  H   H43       1.0  0.20028  0.00106  0.01024  1.0000
  S   S4        1.0  0.31803  0.14117  0.32539  1.0000
  C   C29       1.0  0.19603  0.99211  0.06065  1.0000
  H   H44       1.0  0.99952  0.41587  0.08334  1.0000
  H   H45       1.0  0.20333  0.98448  0.12748  1.0000
  H   H46       1.0  0.98965  0.38914  0.11903  1.0000
  H   H47       1.0  0.29068  0.48084  0.22325  1.0000
  Fe  Fe3       1.0  0.42229  0.11411  0.36599  1.0000
  S   S5        1.0  0.37992  0.16179  0.38354  1.0000
  H   H48       1.0  0.28999  0.39773  0.37318  1.0000
  Fe  Fe4       1.0  0.32878  0.11808  0.37420  1.0000
  S   S6        1.0  0.28670  0.10279  0.41497  1.0000
  S   S7        1.0  0.37165  0.06906  0.35931  1.0000
  H   H49       1.0  0.05005  0.99645  0.38188  1.0000
  C   C30       1.0  0.24693  0.99459  0.36613  1.0000
  Fe  Fe5       1.0  0.06384  0.03637  0.45505  1.0000
  S   S8        1.0  0.10033  0.00586  0.49225  1.0000
  S   S9        1.0  0.09679  0.06107  0.41238  1.0000
  H   H50       1.0  0.30116  0.35987  0.57277  1.0000
  Fe  Fe6       1.0  0.06162  0.04132  0.52558  1.0000
  S   S10       1.0  0.09106  0.07503  0.56637  1.0000
  H   H51       1.0  0.31963  0.02582  0.46041  1.0000
  S   S11       1.0  0.02734  0.07459  0.48826  1.0000
  Fe  Fe7       1.0  0.13142  0.31192  0.60586  1.0000
  S   S12       1.0  0.09172  0.36667  0.61337  1.0000
  S   S13       1.0  0.10861  0.26703  0.56896  1.0000
  Fe  Fe8       1.0  0.14779  0.40445  0.60558  1.0000
  H   H52       1.0  0.39211  0.21038  0.46150  1.0000
  S   S14       1.0  0.18606  0.35001  0.59495  1.0000
  H   H53       1.0  0.34555  0.18322  0.45362  1.0000
  H   H54       1.0  0.13890  0.23659  0.50613  1.0000
  C   C31       1.0  0.09504  0.12851  0.56745  1.0000
  C   C32       1.0  0.11507  0.14742  0.59267  1.0000
  C   C33       1.0  0.11938  0.18987  0.59381  1.0000
  C   C34       1.0  0.10344  0.21373  0.56974  1.0000
  C   C35       1.0  0.08289  0.19481  0.54482  1.0000
  C   C36       1.0  0.07878  0.15251  0.54364  1.0000
  H   H55       1.0  0.12764  0.12910  0.61129  1.0000
  H   H56       1.0  0.13514  0.20407  0.61319  1.0000
  H   H57       1.0  0.07002  0.21304  0.52628  1.0000
  H   H58       1.0  0.06309  0.13855  0.52425  1.0000
  H   H59       1.0  0.05345  0.18654  0.42254  1.0000
  C   C37       1.0  0.23419  0.09019  0.41280  1.0000
  C   C38       1.0  0.21013  0.09871  0.38655  1.0000
  C   C39       1.0  0.16806  0.08965  0.38668  1.0000
  C   C40       1.0  0.14969  0.07218  0.41302  1.0000
  C   C41       1.0  0.17387  0.06366  0.43916  1.0000
  C   C42       1.0  0.21578  0.07252  0.43898  1.0000
  H   H60       1.0  0.22384  0.11243  0.36623  1.0000
  H   H61       1.0  0.14966  0.09632  0.36629  1.0000
  H   H62       1.0  0.16036  0.05030  0.45957  1.0000
  H   H63       1.0  0.23397  0.06563  0.45933  1.0000
  H   H64       1.0  0.36096  0.19385  0.49353  1.0000
  S   S15       1.0  0.01580  0.99049  0.52984  1.0000
  H   H65       1.0  0.15444  0.25374  0.46916  1.0000
  C   C43       1.0  0.38367  0.47350  0.62924  1.0000
  C   C44       1.0  0.13980  0.48170  0.54227  1.0000
  H   H66       1.0  0.33188  0.44407  0.58113  1.0000
  H   H67       1.0  0.00015  0.18137  0.56166  1.0000
  C   C45       1.0  0.20932  0.10918  0.54077  1.0000
  C   C46       1.0  0.35835  0.04219  0.50097  1.0000
  N   N3        1.0  0.17722  0.19407  0.48166  1.0000
  H   H68       1.0  0.16605  0.17664  0.52953  1.0000
  H   H69       1.0  0.40622  0.33364  0.33738  1.0000
  H   H70       1.0  0.17567  0.11032  0.49791  1.0000
  C   C47       1.0  0.19029  0.17341  0.51155  1.0000
  H   H71       1.0  0.43422  0.22967  0.41682  1.0000
  H   H72       1.0  0.08810  0.44175  0.54099  1.0000
  H   H73       1.0  0.33914  0.38443  0.35678  1.0000
  H   H74       1.0  0.24109  0.20308  0.47076  1.0000
  C   C48       1.0  0.21252  0.19262  0.45921  1.0000
  C   C49       1.0  0.44098  0.03665  0.52335  1.0000
  H   H75       1.0  0.26211  0.33165  0.35554  1.0000
  H   H76       1.0  0.02104  0.25175  0.66061  1.0000
  C   C50       1.0  0.02593  0.25957  0.63569  1.0000
  H   H77       1.0  0.21456  0.47285  0.38747  1.0000
  C   C51       1.0  0.40512  0.46889  0.35032  1.0000
  H   H78       1.0  0.35257  0.05366  0.52505  1.0000
  C   C52       1.0  0.34062  0.47349  0.64431  1.0000
  H   H79       1.0  0.18176  0.11102  0.55565  1.0000
  H   H80       1.0  0.09354  0.15074  0.41494  1.0000
  H   H81       1.0  0.18269  0.99925  0.35734  1.0000
  H   H82       1.0  0.30655  0.32527  0.38001  1.0000
  H   H83       1.0  0.34885  0.44791  0.36921  1.0000
  H   H84       1.0  0.25170  0.43878  0.57494  1.0000
  H   H85       1.0  0.22880  0.12366  0.49459  1.0000
  H   H86       1.0  0.41328  0.21469  0.65553  1.0000
  C   C53       1.0  0.26660  0.46695  0.64092  1.0000
  H   H87       1.0  0.01582  0.13600  0.60009  1.0000
  H   H88       1.0  0.27216  0.22777  0.42186  1.0000
  N   N4        1.0  0.38829  0.06974  0.48477  1.0000
  H   H89       1.0  0.41758  0.43817  0.34600  1.0000
  C   C54       1.0  0.18549  0.30757  0.50766  1.0000
  H   H90       1.0  0.35768  0.33649  0.65226  1.0000
  C   C55       1.0  0.30562  0.38161  0.35397  1.0000
  H   H91       1.0  0.21898  0.16086  0.45224  1.0000
  H   H92       1.0  0.25472  0.40121  0.60473  1.0000
  H   H93       1.0  0.15126  0.14607  0.45301  1.0000
  H   H94       1.0  0.30133  0.39839  0.54257  1.0000
  H   H95       1.0  0.19999  0.24847  0.43252  1.0000
  C   C56       1.0  0.19879  0.26331  0.50565  1.0000
  H   H96       1.0  0.12354  0.15605  0.48737  1.0000
  H   H97       1.0  0.05832  0.26862  0.63282  1.0000
  C   C57       1.0  0.24596  0.21476  0.40874  1.0000
  S   S16       1.0  0.14878  0.30491  0.65661  1.0000
  C   C58       1.0  0.44924  0.25199  0.40137  1.0000
  H   H98       1.0  0.41988  0.03210  0.54327  1.0000
  S   S17       1.0  0.48232  0.09470  0.38984  1.0000
  H   H99       1.0  0.06376  0.14684  0.45028  1.0000
  H   H100      1.0  0.21690  0.42951  0.34002  1.0000
  S   S18       1.0  0.27041  0.33952  0.65454  1.0000
  H   H101      1.0  0.12194  0.21595  0.43246  1.0000
  H   H102      1.0  0.44955  0.21122  0.36235  1.0000
  H   H103      1.0  0.32587  0.41097  0.61353  1.0000
  H   H104      1.0  0.20923  0.32549  0.52001  1.0000
  H   H105      1.0  0.01375  0.07162  0.64770  1.0000
  H   H106      1.0  0.09077  0.21510  0.46678  1.0000
  C   C59       1.0  0.29555  0.33663  0.35708  1.0000
  C   C60       1.0  0.98675  0.13787  0.61342  1.0000
  H   H107      1.0  0.43852  0.36509  0.62856  1.0000
  Fe  Fe9       1.0  0.20118  0.34819  0.64635  1.0000
  H   H108      1.0  0.48539  0.07131  0.55078  1.0000
  H   H109      1.0  0.45294  0.08300  0.48864  1.0000
  H   H110      1.0  0.20460  0.25289  0.52992  1.0000
  H   H111      1.0  0.02326  0.23284  0.59028  1.0000
  C   C61       1.0  0.31085  0.43621  0.60052  1.0000
  H   H112      1.0  0.15659  0.31041  0.52090  1.0000
  H   H113      1.0  0.23496  0.12498  0.55264  1.0000
  Fe  Fe10      1.0  0.37325  0.18152  0.33320  1.0000
  H   H114      1.0  0.43600  0.02028  0.40086  1.0000
  C   C62       1.0  0.47193  0.22965  0.37550  1.0000
  C   C63       1.0  0.20709  0.21617  0.42828  1.0000
  H   H115      1.0  0.18254  0.20219  0.41402  1.0000
  H   H116      1.0  0.31083  0.31884  0.33845  1.0000
  S   S19       1.0  0.16175  0.46234  0.57755  1.0000
  C   C64       1.0  0.31625  0.03687  0.48473  1.0000
  S   S20       1.0  0.16444  0.40404  0.65689  1.0000
  C   C65       1.0  0.14091  0.17119  0.46840  1.0000
  S   S21       1.0  0.01575  0.98758  0.45294  1.0000
  H   H117      1.0  0.24153  0.23251  0.38699  1.0000
  C   C66       1.0  0.42712  0.07387  0.50390  1.0000
  C   C67       1.0  0.36851  0.11095  0.48252  1.0000
  C   C68       1.0  0.39763  0.05550  0.45206  1.0000
  C   C69       1.0  0.22537  0.46183  0.33787  1.0000
  H   H118      1.0  0.21789  0.18809  0.52159  1.0000
  C   C70       1.0  0.39581  0.14599  0.47078  1.0000
  H   H119      1.0  0.05821  0.47225  0.49299  1.0000
  H   H120      1.0  0.99620  0.14458  0.63794  1.0000
  H   H121      1.0  0.47073  0.27035  0.41563  1.0000
  C   C71       1.0  0.20089  0.12778  0.50875  1.0000
  C   C72       1.0  0.37200  0.18573  0.46986  1.0000
  C   C73       1.0  0.28338  0.38469  0.56175  1.0000
  H   H122      1.0  0.18107  0.32049  0.48396  1.0000
  C   C74       1.0  0.01658  0.22339  0.61456  1.0000
  H   H123      1.0  0.42411  0.09865  0.52143  1.0000
  H   H124      1.0  0.35623  0.12015  0.50570  1.0000
  H   H125      1.0  0.34206  0.11009  0.46623  1.0000
  H   H126      1.0  0.37006  0.05751  0.43687  1.0000
  H   H127      1.0  0.41999  0.07600  0.44081  1.0000
  C   C75       1.0  0.27219  0.41658  0.58610  1.0000
  H   H128      1.0  0.21742  0.07677  0.53798  1.0000
  H   H129      1.0  0.29926  0.06585  0.48440  1.0000
  C   C76       1.0  0.16535  0.23693  0.48994  1.0000
  H   H130      1.0  0.40651  0.13983  0.44680  1.0000
  H   H131      1.0  0.42274  0.15062  0.48613  1.0000
  H   H132      1.0  0.43208  0.27434  0.62961  1.0000
  H   H133      1.0  0.45123  0.33291  0.59568  1.0000
  C   C77       1.0  0.27229  0.46752  0.33899  1.0000
  C   C78       1.0  0.41619  0.01265  0.44905  1.0000
  H   H134      1.0  0.25513  0.37165  0.55154  1.0000
  C   C79       1.0  0.07795  0.16821  0.43356  1.0000
  H   H135      1.0  0.22771  0.26236  0.49243  1.0000
  H   H136      1.0  0.47487  0.15993  0.43645  1.0000
  H   H137      1.0  0.25322  0.18315  0.40203  1.0000
  C   C80       1.0  0.41762  0.99896  0.41500  1.0000
  C   C81       1.0  0.10829  0.19595  0.45024  1.0000
  H   H138      1.0  0.42535  0.27197  0.39126  1.0000
  H   H139      1.0  0.45753  0.19455  0.62054  1.0000
  H   H140      1.0  0.02448  0.06120  0.60710  1.0000
  H   H141      1.0  0.28197  0.46192  0.36341  1.0000
  C   C82       1.0  0.10347  0.46657  0.52958  1.0000
  C   C83       1.0  0.44880  0.28614  0.65039  1.0000
  H   H142      1.0  0.25098  0.02766  0.36296  1.0000
  H   H143      1.0  0.44806  0.01290  0.45792  1.0000
  H   H144      1.0  0.03780  0.19869  0.62113  1.0000
  H   H145      1.0  0.19666  0.00052  0.39791  1.0000
  H   H146      1.0  0.38894  0.44548  0.61554  1.0000
  S   S22       1.0  0.37989  0.25120  0.33068  1.0000
  H   H147      1.0  0.23913  0.46463  0.62577  1.0000
  H   H148      1.0  0.38636  0.99701  0.40501  1.0000
  C   C84       1.0  0.48581  0.21286  0.62066  1.0000
  C   C85       1.0  0.00003  0.06341  0.62478  1.0000
  C   C86       1.0  0.35857  0.46811  0.35015  1.0000
  H   H149      1.0  0.00648  0.28586  0.62937  1.0000
  C   C87       1.0  0.46335  0.34789  0.61702  1.0000
  H   H150      1.0  0.41635  0.47968  0.37337  1.0000
  H   H151      1.0  0.44138  0.00851  0.50939  1.0000
  H   H152      1.0  0.12380  0.98239  0.38227  1.0000
  H   H153      1.0  0.26838  0.98444  0.38468  1.0000
  N   N5        1.0  0.30485  0.47223  0.62187  1.0000
  H   H154      1.0  0.44748  0.47733  0.64263  1.0000
  H   H155      1.0  0.26775  0.43755  0.65356  1.0000
  C   C88       1.0  0.41720  0.47592  0.65407  1.0000
  H   H156      1.0  0.39834  0.98971  0.46185  1.0000
  H   H157      1.0  0.48172  0.23873  0.60449  1.0000
  C   C89       1.0  0.48159  0.31665  0.63932  1.0000
  H   H158      1.0  0.37103  0.01144  0.50426  1.0000
  H   H159      1.0  0.47147  0.28296  0.34658  1.0000
  H   H160      1.0  0.25972  0.00377  0.49019  1.0000
  H   H161      1.0  0.28445  0.01660  0.52652  1.0000
  C   C90       1.0  0.28974  0.00642  0.50213  1.0000
  H   H162      1.0  0.33931  0.44726  0.66054  1.0000
  C   C91       1.0  0.20288  0.98549  0.37533  1.0000
  C   C92       1.0  0.48369  0.04284  0.53699  1.0000
  H   H163      1.0  0.17112  0.48168  0.36245  1.0000
  H   H164      1.0  0.98994  0.16175  0.50474  1.0000
  S   S23       1.0  0.41053  0.42382  0.73758  1.0000
  H   H165      1.0  0.32278  0.42747  0.73995  1.0000
  H   H166      1.0  0.10882  0.45339  0.78754  1.0000
  H   H167      1.0  0.00529  0.39739  0.91661  1.0000
  N   N6        1.0  0.01395  0.43184  0.85328  1.0000
  S   S24       1.0  0.05772  0.37217  0.69842  1.0000
  H   H168      1.0  0.08337  0.39396  0.81851  1.0000
  C   C93       1.0  0.03706  0.34902  0.73269  1.0000
  C   C94       1.0  0.05991  0.32342  0.75205  1.0000
  C   C95       1.0  0.04314  0.30859  0.78019  1.0000
  C   C96       1.0  0.00517  0.37675  0.89617  1.0000
  H   H169      1.0  0.33699  0.22505  0.71940  1.0000
  Fe  Fe11      1.0  0.11094  0.36145  0.66406  1.0000
  H   H170      1.0  0.09086  0.31582  0.74573  1.0000
  H   H171      1.0  0.37958  0.26868  0.68687  1.0000
  C   C97       1.0  0.36107  0.21125  0.70465  1.0000
  C   C98       1.0  0.37196  0.40003  0.71429  1.0000
  H   H172      1.0  0.05501  0.34051  0.91532  1.0000
  H   H173      1.0  0.42604  0.30434  0.66327  1.0000
  C   C99       1.0  0.04585  0.44668  0.83072  1.0000
  C   C100      1.0  0.29908  0.38981  0.70271  1.0000
  C   C101      1.0  0.33056  0.40770  0.72073  1.0000
  H   H174      1.0  0.06129  0.45313  0.76561  1.0000
  H   H175      1.0  0.06153  0.28956  0.79519  1.0000
  H   H176      1.0  0.26749  0.39575  0.70824  1.0000
  C   C102      1.0  0.00308  0.31845  0.78924  1.0000
  C   C103      1.0  0.39438  0.24246  0.69840  1.0000
  H   H177      1.0  0.40637  0.25252  0.72138  1.0000
  C   C104      1.0  0.03082  0.39441  0.86903  1.0000
  H   H178      1.0  0.41303  0.36868  0.68403  1.0000
  C   C105      1.0  0.02290  0.33659  0.90756  1.0000
  H   H179      1.0  0.07313  0.45788  0.84375  1.0000
  H   H180      1.0  0.03422  0.36941  0.85176  1.0000
  C   C106      1.0  0.38141  0.37437  0.68937  1.0000
  C   C107      1.0  0.08298  0.43437  0.77936  1.0000
  C   C108      1.0  0.06135  0.41475  0.80697  1.0000
  C   C109      1.0  0.42851  0.22431  0.67757  1.0000
  H   H181      1.0  0.43939  0.19575  0.68857  1.0000
  H   H182      1.0  0.37381  0.18469  0.71721  1.0000
  H   H183      1.0  0.06205  0.40038  0.87835  1.0000
  H   H184      1.0  0.09512  0.41046  0.76369  1.0000
  C   C110      1.0  0.30856  0.36380  0.67795  1.0000
  H   H185      1.0  0.21574  0.46484  0.69322  1.0000
  H   H186      1.0  0.03591  0.39630  0.79778  1.0000
  H   H187      1.0  0.46880  0.21952  0.73305  1.0000
  C   C111      1.0  0.00761  0.46341  0.87833  1.0000
  N   N7        1.0  0.46394  0.25190  0.67057  1.0000
  C   C112      1.0  0.99689  0.35865  0.74166  1.0000
  H   H188      1.0  0.41666  0.44877  0.66920  1.0000
  H   H189      1.0  0.34678  0.20110  0.68241  1.0000
  H   H190      1.0  0.02170  0.31350  0.88872  1.0000
  H   H191      1.0  0.03647  0.46793  0.89179  1.0000
  H   H192      1.0  0.46070  0.29165  0.71089  1.0000
  C   C113      1.0  0.48192  0.26936  0.70015  1.0000
  C   C114      1.0  0.34996  0.35633  0.67142  1.0000
  Fe  Fe12      1.0  0.48075  0.42292  0.73502  1.0000
  H   H193      1.0  0.00487  0.32532  0.92760  1.0000
  H   H194      1.0  0.03491  0.47320  0.81732  1.0000
  H   H195      1.0  0.07125  0.91437  0.04970  1.0000
  Fe  Fe13      1.0  0.28094  0.86310  0.08364  1.0000
  S   S25       1.0  0.33184  0.90354  0.06623  1.0000
  S   S26       1.0  0.21216  0.87867  0.07970  1.0000
  Fe  Fe14      1.0  0.34162  0.81252  0.12346  1.0000
  S   S27       1.0  0.39484  0.85037  0.10868  1.0000
  S   S28       1.0  0.35375  0.76707  0.16253  1.0000
  Fe  Fe15      1.0  0.35440  0.90440  0.11645  1.0000
  C   C115      1.0  0.34484  0.96481  0.20079  1.0000
  Fe  Fe16      1.0  0.36840  0.84572  0.06006  1.0000
  S   S29       1.0  0.30258  0.86692  0.13384  1.0000
  S   S30       1.0  0.31609  0.80509  0.07491  1.0000
  Fe  Fe17      1.0  0.41782  0.54508  0.20007  1.0000
  S   S31       1.0  0.45485  0.57736  0.23658  1.0000
  S   S32       1.0  0.39004  0.57798  0.15838  1.0000
  H   H196      1.0  0.47159  0.74805  0.10064  1.0000
  H   H197      1.0  0.44872  0.68810  0.13091  1.0000
  Fe  Fe18      1.0  0.41620  0.54154  0.27030  1.0000
  H   H198      1.0  0.27789  0.57402  0.21918  1.0000
  S   S33       1.0  0.37771  0.51186  0.23367  1.0000
  H   H199      1.0  0.44658  0.60403  0.11097  1.0000
  H   H200      1.0  0.21498  0.78753  0.18048  1.0000
  H   H201      1.0  0.26517  0.78375  0.16344  1.0000
  C   C116      1.0  0.30427  0.56520  0.28922  1.0000
  H   H202      1.0  0.24259  0.56258  0.27159  1.0000
  H   H203      1.0  0.31752  0.55499  0.26762  1.0000
  H   H204      1.0  0.33138  0.93572  0.19555  1.0000
  C   C117      1.0  0.36637  0.71520  0.15915  1.0000
  C   C118      1.0  0.35331  0.69144  0.13397  1.0000
  C   C119      1.0  0.36073  0.64939  0.13397  1.0000
  C   C120      1.0  0.38117  0.63084  0.15910  1.0000
  C   C121      1.0  0.39460  0.65478  0.18402  1.0000
  C   C122      1.0  0.38748  0.69670  0.18391  1.0000
  H   H205      1.0  0.33685  0.70531  0.11482  1.0000
  H   H206      1.0  0.35031  0.63113  0.11453  1.0000
  H   H207      1.0  0.41030  0.64100  0.20349  1.0000
  H   H208      1.0  0.39788  0.71490  0.20340  1.0000
  H   H209      1.0  0.01169  0.58110  0.17919  1.0000
  C   C123      1.0  0.16952  0.87835  0.05333  1.0000
  C   C124      1.0  0.13307  0.89758  0.06243  1.0000
  C   C125      1.0  0.09865  0.89889  0.04241  1.0000
  H   H210      1.0  0.13155  0.91201  0.08507  1.0000
  H   H211      1.0  0.14824  0.77597  0.04641  1.0000
  H   H212      1.0  0.20524  0.95814  0.18169  1.0000
  H   H213      1.0  0.98841  0.87430  0.11977  1.0000
  H   H214      1.0  0.01688  0.69889  0.05353  1.0000
  C   C126      1.0  0.25884  0.97114  0.15352  1.0000
  H   H215      1.0  0.41826  0.73772  0.09500  1.0000
  H   H216      1.0  0.31890  0.96825  0.24702  1.0000
  H   H217      1.0  0.38231  0.71375  0.28306  1.0000
  H   H218      1.0  0.07441  0.79507  0.02871  1.0000
  H   H219      1.0  0.29881  0.58018  0.18076  1.0000
  C   C127      1.0  0.99358  0.74629  0.00631  1.0000
  H   H220      1.0  0.24586  0.59183  0.18745  1.0000
  H   H221      1.0  0.20658  0.94915  0.02278  1.0000
  C   C128      1.0  0.17073  0.85986  0.02393  1.0000
  S   S34       1.0  0.37798  0.96257  0.14047  1.0000
  H   H222      1.0  0.25230  0.82655  0.18750  1.0000
  N   N8        1.0  0.26732  0.69940  0.23812  1.0000
  C   C129      1.0  0.25910  0.65583  0.22932  1.0000
  C   C130      1.0  0.23781  0.71366  0.26294  1.0000
  C   C131      1.0  0.26011  0.72467  0.20918  1.0000
  C   C132      1.0  0.31079  0.70585  0.24855  1.0000
  C   C133      1.0  0.32577  0.67983  0.27635  1.0000
  C   C134      1.0  0.28890  0.63659  0.20545  1.0000
  C   C135      1.0  0.26320  0.77128  0.21351  1.0000
  C   C136      1.0  0.13596  0.86035  0.00420  1.0000
  C   C137      1.0  0.20023  0.70290  0.31405  1.0000
  C   C138      1.0  0.37211  0.68197  0.27986  1.0000
  C   C139      1.0  0.27692  0.59300  0.19785  1.0000
  C   C140      1.0  0.24793  0.79347  0.18441  1.0000
  H   H223      1.0  0.22747  0.65281  0.21996  1.0000
  H   H224      1.0  0.26003  0.63581  0.24999  1.0000
  H   H225      1.0  0.25070  0.74019  0.27567  1.0000
  H   H226      1.0  0.20890  0.72457  0.25198  1.0000
  H   H227      1.0  0.22951  0.71774  0.19905  1.0000
  H   H228      1.0  0.28253  0.71717  0.19066  1.0000
  H   H229      1.0  0.33172  0.70105  0.22865  1.0000
  H   H230      1.0  0.31585  0.73788  0.25552  1.0000
  H   H231      1.0  0.31781  0.64757  0.27347  1.0000
  H   H232      1.0  0.31233  0.69128  0.29838  1.0000
  H   H233      1.0  0.28927  0.65334  0.18309  1.0000
  H   H234      1.0  0.32032  0.63577  0.21514  1.0000
  H   H235      1.0  0.29544  0.78028  0.21750  1.0000
  H   H236      1.0  0.24489  0.78232  0.23344  1.0000
  H   H237      1.0  0.20330  0.65987  0.27664  1.0000
  C   C141      1.0  0.00052  0.75575  0.07833  1.0000
  H   H238      1.0  0.17267  0.71834  0.30471  1.0000
  C   C142      1.0  0.45455  0.68447  0.10560  1.0000
  C   C143      1.0  0.09963  0.87989  0.01316  1.0000
  H   H239      1.0  0.24989  0.66615  0.29830  1.0000
  C   C144      1.0  0.01560  0.71125  0.07748  1.0000
  S   S35       1.0  0.41453  0.82058  0.02419  1.0000
  S   S36       1.0  0.38342  0.56857  0.31260  1.0000
  H   H240      1.0  0.00538  0.76610  0.10285  1.0000
  H   H241      1.0  0.08269  0.76876  0.09763  1.0000
  H   H242      1.0  0.02547  0.48938  0.18367  1.0000
  H   H243      1.0  0.01360  0.52908  0.12958  1.0000
  H   H244      1.0  0.05868  0.55385  0.17296  1.0000
  C   C145      1.0  0.98950  0.51515  0.14427  1.0000
  H   H245      1.0  0.06738  0.74425  0.03966  1.0000
  H   H246      1.0  0.18315  0.96872  0.07623  1.0000
  H   H247      1.0  0.03452  0.84865  0.05414  1.0000
  H   H248      1.0  0.38180  0.66412  0.30058  1.0000
  H   H249      1.0  0.22760  0.91425  0.16302  1.0000
  C   C146      1.0  0.23431  0.94342  0.17490  1.0000
  C   C147      1.0  0.06368  0.77560  0.04831  1.0000
  C   C148      1.0  0.26170  0.56975  0.29150  1.0000
  N   N9        1.0  0.01963  0.78498  0.05554  1.0000
  H   H250      1.0  0.03431  0.82765  0.09240  1.0000
  S   S37       1.0  0.46196  0.49025  0.27257  1.0000
  H   H251      1.0  0.04674  0.70913  0.08761  1.0000
  H   H252      1.0  0.48104  0.67744  0.20392  1.0000
  H   H253      1.0  0.43073  0.66465  0.09534  1.0000
  C   C149      1.0  0.32950  0.57428  0.31467  1.0000
  H   H254      1.0  0.25220  0.93704  0.19643  1.0000
  H   H255      1.0  0.38716  0.66886  0.25898  1.0000
  C   C150      1.0  0.13577  0.76316  0.06835  1.0000
  H   H256      1.0  0.01549  0.63169  0.27226  1.0000
  C   C151      1.0  0.99587  0.78610  0.02528  1.0000
  C   C152      1.0  0.98947  0.61399  0.26477  1.0000
  C   C153      1.0  0.01821  0.82697  0.06948  1.0000
  S   S38       1.0  0.18977  0.58996  0.31952  1.0000
  H   H257      1.0  0.13312  0.72981  0.06600  1.0000
  C   C154      1.0  0.44951  0.72611  0.09054  1.0000
  C   C155      1.0  0.02939  0.55381  0.18584  1.0000
  C   C156      1.0  0.48522  0.55263  0.11779  1.0000
  H   H258      1.0  0.02409  0.73299  0.00234  1.0000
  C   C157      1.0  0.00525  0.51536  0.17856  1.0000
  C   C158      1.0  0.09432  0.78196  0.07560  1.0000
  H   H259      1.0  0.00852  0.81007  0.00982  1.0000
  C   C159      1.0  0.24360  0.58375  0.31914  1.0000
  H   H260      1.0  0.09956  0.81481  0.07942  1.0000
  H   H261      1.0  0.45387  0.72428  0.06487  1.0000
  H   H262      1.0  0.15756  0.77007  0.08758  1.0000
  H   H263      1.0  0.23675  0.94884  0.11034  1.0000
  H   H264      1.0  0.28821  0.95583  0.14863  1.0000
  C   C160      1.0  0.22391  0.68248  0.28770  1.0000
  H   H265      1.0  0.42474  0.53084  0.10452  1.0000
  H   H266      1.0  0.99795  0.90541  0.08578  1.0000
  H   H267      1.0  0.46744  0.89084  0.04206  1.0000
  S   S39       1.0  0.98832  0.58195  0.32517  1.0000
  H   H268      1.0  0.03615  0.55533  0.21127  1.0000
  H   H269      1.0  0.19836  0.84494  0.01644  1.0000
  H   H270      1.0  0.98858  0.63869  0.21815  1.0000
  C   C161      1.0  0.23605  0.97876  0.12225  1.0000
  C   C162      1.0  0.45721  0.52211  0.10159  1.0000
  H   H271      1.0  0.47023  0.63369  0.15735  1.0000
  H   H272      1.0  0.98723  0.53272  0.08098  1.0000
  S   S40       1.0  0.46092  0.49214  0.19599  1.0000
  H   H273      1.0  0.15679  0.97200  0.02266  1.0000
  H   H274      1.0  0.25876  0.97145  0.06097  1.0000
  C   C163      1.0  0.18971  0.97777  0.02701  1.0000
  H   H275      1.0  0.46164  0.49176  0.11217  1.0000
  H   H276      1.0  0.46428  0.52016  0.07631  1.0000
  H   H277      1.0  0.99963  0.65240  0.09640  1.0000
  H   H278      1.0  0.00774  0.48462  0.06911  1.0000
  H   H279      1.0  0.28010  0.48497  0.27997  1.0000
  C   C164      1.0  0.47842  0.59601  0.10478  1.0000
  H   H280      1.0  0.47823  0.55174  0.14310  1.0000
  H   H281      1.0  0.47903  0.59437  0.07877  1.0000
  C   C165      1.0  0.98768  0.68382  0.09659  1.0000
  H   H282      1.0  0.98613  0.69433  0.12122  1.0000
  H   H283      1.0  0.21976  0.72515  0.32654  1.0000
  S   S41       1.0  0.07492  0.89218  0.49249  1.0000
  Fe  Fe19      1.0  0.09282  0.58315  0.41330  1.0000
  S   S42       1.0  0.14126  0.63074  0.40473  1.0000
  S   S43       1.0  0.08178  0.53806  0.45336  1.0000
  Fe  Fe20      1.0  0.04635  0.60312  0.35120  1.0000
  C   C166      1.0  0.04234  0.72588  0.57572  1.0000
  H   H284      1.0  0.21223  0.51764  0.36325  1.0000
  Fe  Fe21      1.0  0.14035  0.60762  0.35482  1.0000
  H   H285      1.0  0.30855  0.53750  0.61981  1.0000
  Fe  Fe22      1.0  0.08871  0.67137  0.38975  1.0000
  S   S44       1.0  0.07348  0.73878  0.39941  1.0000
  S   S45       1.0  0.09497  0.55817  0.36442  1.0000
  S   S46       1.0  0.04072  0.62484  0.40090  1.0000
  H   H286      1.0  0.19807  0.78918  0.39935  1.0000
  H   H287      1.0  0.00923  0.73298  0.57553  1.0000
  C   C167      1.0  0.10587  0.51642  0.48698  1.0000
  C   C168      1.0  0.14242  0.53130  0.49948  1.0000
  H   H288      1.0  0.41655  0.48986  0.33218  1.0000
  H   H289      1.0  0.25767  0.53082  0.65439  1.0000
  H   H290      1.0  0.15775  0.55609  0.48808  1.0000
  C   C169      1.0  0.26869  0.59295  0.34471  1.0000
  H   H291      1.0  0.08503  0.61861  0.47833  1.0000
  C   C170      1.0  0.01941  0.58485  0.51587  1.0000
  C   C171      1.0  0.07774  0.93690  0.38790  1.0000
  C   C172      1.0  0.11617  0.67421  0.48511  1.0000
  H   H292      1.0  0.99011  0.73559  0.43181  1.0000
  H   H293      1.0  0.25523  0.60391  0.36612  1.0000
  C   C173      1.0  0.07486  0.78133  0.42548  1.0000
  C   C174      1.0  0.09853  0.78182  0.45278  1.0000
  C   C175      1.0  0.09814  0.81592  0.47278  1.0000
  C   C176      1.0  0.07448  0.85037  0.46578  1.0000
  C   C177      1.0  0.05127  0.85017  0.43824  1.0000
  C   C178      1.0  0.05161  0.81600  0.41826  1.0000
  H   H294      1.0  0.11751  0.75616  0.45833  1.0000
  H   H295      1.0  0.11645  0.81567  0.49386  1.0000
  H   H296      1.0  0.03256  0.87609  0.43255  1.0000
  H   H297      1.0  0.03321  0.81622  0.39722  1.0000
  H   H298      1.0  0.01197  0.59185  0.54053  1.0000
  H   H299      1.0  0.11048  0.68168  0.46016  1.0000
  C   C179      1.0  0.26721  0.51989  0.58258  1.0000
  S   S47       1.0  0.09154  0.65161  0.33907  1.0000
  H   H300      1.0  0.04724  0.96428  0.34773  1.0000
  C   C180      1.0  0.05613  0.71192  0.54341  1.0000
  H   H301      1.0  0.30438  0.97612  0.50237  1.0000
  C   C181      1.0  0.15937  0.65718  0.48772  1.0000
  C   C182      1.0  0.15605  0.93751  0.42802  1.0000
  H   H302      1.0  0.18194  0.81026  0.36250  1.0000
  C   C183      1.0  0.03423  0.67234  0.53371  1.0000
  H   H303      1.0  0.14507  0.96908  0.43176  1.0000
  C   C184      1.0  0.19504  0.93930  0.37743  1.0000
  H   H304      1.0  0.33149  0.51268  0.58793  1.0000
  H   H305      1.0  0.23804  0.51675  0.59527  1.0000
  C   C185      1.0  0.19192  0.93902  0.48089  1.0000
  H   H306      1.0  0.18145  0.67945  0.47831  1.0000
  H   H307      1.0  0.24225  0.56833  0.55408  1.0000
  H   H308      1.0  0.19523  0.92741  0.35305  1.0000
  H   H309      1.0  0.09569  0.62870  0.51810  1.0000
  H   H310      1.0  0.05923  0.75371  0.58246  1.0000
  H   H311      1.0  0.16980  0.91636  0.48977  1.0000
  C   C186      1.0  0.26874  0.56303  0.56978  1.0000
  H   H312      1.0  0.22211  0.92556  0.38874  1.0000
  H   H313      1.0  0.43198  0.96861  0.41347  1.0000
  Fe  Fe23      1.0  0.05134  0.95813  0.49171  1.0000
  C   C187      1.0  0.19748  0.93462  0.44566  1.0000
  H   H314      1.0  0.05116  0.71655  0.47907  1.0000
  N   N10       1.0  0.15615  0.92703  0.39362  1.0000
  H   H315      1.0  0.04861  0.70219  0.59349  1.0000
  C   C188      1.0  0.14922  0.88228  0.38856  1.0000
  C   C189      1.0  0.17629  0.81037  0.38805  1.0000
  H   H316      1.0  0.26735  0.58538  0.58914  1.0000
  C   C190      1.0  0.18197  0.85290  0.40148  1.0000
  H   H317      1.0  0.16729  0.65100  0.51251  1.0000
  H   H318      1.0  0.00127  0.76880  0.46445  1.0000
  H   H319      1.0  0.04482  0.64903  0.55061  1.0000
  H   H320      1.0  0.21340  0.86228  0.39574  1.0000
  H   H321      1.0  0.12059  0.87233  0.39998  1.0000
  H   H322      1.0  0.11517  0.70268  0.49858  1.0000
  H   H323      1.0  0.99841  0.54099  0.48119  1.0000
  H   H324      1.0  0.21309  0.90558  0.44143  1.0000
  H   H325      1.0  0.99806  0.52311  0.52082  1.0000
  H   H326      1.0  0.14507  0.87607  0.36313  1.0000
  H   H327      1.0  0.17884  0.85058  0.42724  1.0000
  H   H328      1.0  0.22154  0.93419  0.49297  1.0000
  N   N11       1.0  0.04075  0.65792  0.50066  1.0000
  H   H329      1.0  0.07030  0.90593  0.37964  1.0000
  H   H330      1.0  0.33062  0.59546  0.36229  1.0000
  H   H331      1.0  0.13359  0.91819  0.44052  1.0000
  H   H332      1.0  0.38764  0.49988  0.61363  1.0000
  H   H333      1.0  0.03609  0.67850  0.45293  1.0000
  C   C191      1.0  0.08407  0.64304  0.49628  1.0000
  C   C192      1.0  0.30471  0.51133  0.60368  1.0000
  C   C193      1.0  0.15906  0.51419  0.52699  1.0000
  H   H334      1.0  0.16211  0.62874  0.47407  1.0000
  H   H335      1.0  0.26725  0.49935  0.56212  1.0000
  C   C194      1.0  0.12139  0.94926  0.37782  1.0000
  H   H336      1.0  0.18712  0.52612  0.53649  1.0000
  H   H337      1.0  0.34768  0.49907  0.35595  1.0000
  H   H338      1.0  0.14493  0.79924  0.39232  1.0000
  H   H339      1.0  0.33930  0.50092  0.65933  1.0000
  C   C195      1.0  0.03054  0.69017  0.47690  1.0000
  H   H340      1.0  0.19022  0.67974  0.33114  1.0000
  H   H341      1.0  0.29707  0.56787  0.55618  1.0000
  H   H342      1.0  0.08945  0.70669  0.54493  1.0000
  H   H343      1.0  0.05138  0.57413  0.51495  1.0000
  H   H344      1.0  0.21829  0.95915  0.43810  1.0000
  H   H345      1.0  0.07474  0.93796  0.41367  1.0000
  H   H346      1.0  0.04978  0.73706  0.52702  1.0000
  H   H347      1.0  0.27828  0.50029  0.33500  1.0000
  H   H348      1.0  0.01491  0.61247  0.46996  1.0000
  C   C196      1.0  0.04563  0.96492  0.37362  1.0000
  H   H349      1.0  0.12308  0.94547  0.35198  1.0000
  C   C197      1.0  0.31143  0.58821  0.34244  1.0000
  H   H350      1.0  0.01476  0.95487  0.38078  1.0000
  C   C198      1.0  0.20475  0.48490  0.36444  1.0000
  C   C199      1.0  0.98632  0.70686  0.47755  1.0000
  H   H351      1.0  0.00110  0.67585  0.53849  1.0000
  C   C200      1.0  0.01253  0.62252  0.49479  1.0000
  C   C201      1.0  0.99201  0.54977  0.50574  1.0000
  H   H352      1.0  0.18097  0.96987  0.48665  1.0000
  C   C202      1.0  0.08656  0.48401  0.50230  1.0000
  H   H353      1.0  0.25466  0.97943  0.34376  1.0000
  C   C203      1.0  0.43134  0.71152  0.74399  1.0000
  C   C204      1.0  0.25790  0.50049  0.66537  1.0000
  C   C205      1.0  0.46258  0.80392  0.97309  1.0000
  C   C206      1.0  0.42438  0.86612  0.96950  1.0000
  C   C207      1.0  0.44209  0.87342  0.93998  1.0000
  H   H354      1.0  0.41353  0.50330  0.66885  1.0000
  H   H355      1.0  0.28109  0.49998  0.68433  1.0000
  H   H356      1.0  0.40285  0.88743  0.97919  1.0000
  H   H357      1.0  0.43383  0.90043  0.92719  1.0000
  H   H358      1.0  0.45065  0.76609  0.79133  1.0000
  H   H359      1.0  0.47490  0.69883  0.83766  1.0000
  H   H360      1.0  0.38801  0.75780  0.75993  1.0000
  S   S48       1.0  0.05626  0.87804  0.98748  1.0000
  C   C208      1.0  0.47710  0.72959  0.82752  1.0000
  H   H361      1.0  0.19165  0.49504  0.66298  1.0000
  C   C209      1.0  0.40959  0.75307  0.74033  1.0000
  C   C210      1.0  0.46311  0.75930  0.85268  1.0000
  H   H362      1.0  0.46517  0.79095  0.84416  1.0000
  H   H363      1.0  0.40605  0.68943  0.74739  1.0000
  C   C211      1.0  0.46314  0.66405  0.78072  1.0000
  H   H364      1.0  0.44531  0.70349  0.72113  1.0000
  H   H365      1.0  0.41868  0.72641  0.80437  1.0000
  C   C212      1.0  0.45063  0.73355  0.79753  1.0000
  H   H366      1.0  0.02175  0.53969  0.90484  1.0000
  C   C213      1.0  0.99075  0.53505  0.89488  1.0000
  H   H367      1.0  0.01194  0.51873  0.84943  1.0000
  H   H368      1.0  0.47066  0.56604  0.74992  1.0000
  H   H369      1.0  0.13732  0.84557  0.98167  1.0000
  C   C214      1.0  0.48037  0.81130  0.94363  1.0000
  N   N12       1.0  0.46265  0.70760  0.76996  1.0000
  H   H370      1.0  0.43119  0.77875  0.74037  1.0000
  C   C215      1.0  0.47044  0.84627  0.92692  1.0000
  H   H371      1.0  0.43413  0.65686  0.79300  1.0000
  H   H372      1.0  0.40539  0.75211  0.68949  1.0000
  H   H373      1.0  0.44945  0.63569  0.73451  1.0000
  C   C216      1.0  0.46975  0.63141  0.75499  1.0000
  H   H374      1.0  0.36884  0.78441  0.70845  1.0000
  C   C217      1.0  0.21647  0.49427  0.68075  1.0000
  H   H375      1.0  0.36186  0.73034  0.70924  1.0000
  H   H376      1.0  0.47055  0.77673  0.98574  1.0000
  H   H377      1.0  0.43121  0.75292  0.85969  1.0000
  C   C218      1.0  0.38495  0.75491  0.70998  1.0000
  C   C219      1.0  0.43454  0.83125  0.98633  1.0000
  H   H378      1.0  0.42880  0.58500  0.77285  1.0000
  H   H379      1.0  0.99295  0.77518  0.96051  1.0000
  C   C220      1.0  0.46168  0.58895  0.76763  1.0000
  C   C221      1.0  0.99209  0.50532  0.86752  1.0000
  Fe  Fe24      1.0  0.99052  0.90359  0.98647  1.0000
  H   H380      1.0  0.21090  0.51875  0.69798  1.0000
  H   H381      1.0  0.47965  0.58336  0.78922  1.0000
  H   H382      1.0  0.48302  0.75649  0.87364  1.0000
  H   H383      1.0  0.56355  0.25769  0.29400  1.0000
  N   N13       1.0  0.97765  0.47437  0.13117  1.0000
  C   C222      1.0  0.86076  0.47771  0.01313  1.0000
  H   H384      1.0  0.54138  0.36786  0.27703  1.0000
  C   C223      1.0  0.85583  0.45064  0.03793  1.0000
  C   C224      1.0  0.86696  0.39435  0.00110  1.0000
  H   H385      1.0  0.90595  0.45107  0.21024  1.0000
  H   H386      1.0  0.93572  0.23141  0.01746  1.0000
  H   H387      1.0  0.76552  0.31256  0.08644  1.0000
  H   H388      1.0  0.92199  0.28344  0.02375  1.0000
  H   H389      1.0  0.78537  0.33914  0.05314  1.0000
  H   H390      1.0  0.94179  0.45163  0.09217  1.0000
  H   H391      1.0  0.51975  0.23107  0.25958  1.0000
  H   H392      1.0  0.86571  0.12902  0.06076  1.0000
  H   H393      1.0  0.83429  0.19813  0.05098  1.0000
  H   H394      1.0  0.77201  0.26648  0.04164  1.0000
  H   H395      1.0  0.90013  0.10875  0.03206  1.0000
  H   H396      1.0  0.57794  0.32801  0.27084  1.0000
  H   H397      1.0  0.50681  0.30233  0.27552  1.0000
  C   C225      1.0  0.49517  0.21301  0.27042  1.0000
  H   H398      1.0  0.96753  0.44423  0.17538  1.0000
  C   C226      1.0  0.79217  0.31529  0.07069  1.0000
  N   N14       1.0  0.84725  0.24034  0.01382  1.0000
  C   C227      1.0  0.89026  0.13690  0.04408  1.0000
  H   H399      1.0  0.91684  0.14934  0.05708  1.0000
  C   C228      1.0  0.92342  0.25898  0.00609  1.0000
  C   C229      1.0  0.55636  0.34121  0.28797  1.0000
  S   S49       1.0  0.84783  0.46725  0.07732  1.0000
  H   H400      1.0  0.85532  0.38754  0.05052  1.0000
  H   H401      1.0  0.80544  0.25186  0.07311  1.0000
  C   C230      1.0  0.85891  0.40884  0.03161  1.0000
  H   H402      1.0  0.88928  0.47332  0.14177  1.0000
  C   C231      1.0  0.87491  0.16728  0.01990  1.0000
  H   H403      1.0  0.55232  0.19089  0.31211  1.0000
  H   H404      1.0  0.94617  0.47216  0.03619  1.0000
  H   H405      1.0  0.78720  0.21285  0.01122  1.0000
  C   C232      1.0  0.86012  0.20696  0.03573  1.0000
  C   C233      1.0  0.95068  0.45161  0.15348  1.0000
  H   H406      1.0  0.94173  0.42196  0.14332  1.0000
  H   H407      1.0  0.83307  0.30423  0.01712  1.0000
  H   H408      1.0  0.88436  0.21773  0.05202  1.0000
  C   C234      1.0  0.88829  0.44934  0.18807  1.0000
  H   H409      1.0  0.86381  0.28592  0.04792  1.0000
  C   C235      1.0  0.83755  0.27766  0.03271  1.0000
  H   H410      1.0  0.81902  0.32473  0.08485  1.0000
  H   H411      1.0  0.88406  0.41716  0.18131  1.0000
  C   C236      1.0  0.80014  0.27474  0.05461  1.0000
  H   H412      1.0  0.50274  0.32513  0.31355  1.0000
  H   H413      1.0  0.57353  0.35173  0.30889  1.0000
  H   H414      1.0  0.84965  0.15260  0.00681  1.0000
  C   C237      1.0  0.52400  0.31024  0.29709  1.0000
  H   H415      1.0  0.90021  0.17288  0.00346  1.0000
  H   H416      1.0  0.50639  0.18167  0.27406  1.0000
  H   H417      1.0  0.85769  0.46262  0.19196  1.0000
  C   C238      1.0  0.54364  0.27195  0.31186  1.0000
  C   C239      1.0  0.91008  0.47264  0.16228  1.0000
  C   C240      1.0  0.95479  0.48066  0.10094  1.0000
  N   N15       1.0  0.51416  0.24154  0.32514  1.0000
  H   H418      1.0  0.86988  0.36231  0.99678  1.0000
  H   H419      1.0  0.65882  0.98368  0.02681  1.0000
  C   C241      1.0  0.81055  0.22609  0.99549  1.0000
  Fe  Fe25      1.0  0.61168  0.09971  0.56089  1.0000
  S   S50       1.0  0.65983  0.14427  0.57759  1.0000
  S   S51       1.0  0.56462  0.12357  0.52477  1.0000
  Fe  Fe26      1.0  0.63208  0.03981  0.61527  1.0000
  S   S52       1.0  0.67948  0.08161  0.63468  1.0000
  C   C242      1.0  0.96710  0.17726  0.56618  1.0000
  Fe  Fe27      1.0  0.63506  0.13221  0.62545  1.0000
  H   H420      1.0  0.59735  0.14825  0.34991  1.0000
  Fe  Fe28      1.0  0.70077  0.08978  0.58498  1.0000
  S   S53       1.0  0.77128  0.08669  0.58300  1.0000
  S   S54       1.0  0.58590  0.08973  0.60909  1.0000
  S   S55       1.0  0.65429  0.04579  0.56536  1.0000
  S   S56       1.0  0.91315  0.03339  0.48813  1.0000
  C   C243      1.0  0.81040  0.07304  0.55593  1.0000
  C   C244      1.0  0.85037  0.06647  0.56716  1.0000
  C   C245      1.0  0.88220  0.05473  0.54687  1.0000
  C   C246      1.0  0.87466  0.04965  0.51489  1.0000
  C   C247      1.0  0.83478  0.05655  0.50367  1.0000
  C   C248      1.0  0.80293  0.06823  0.52395  1.0000
  H   H421      1.0  0.85662  0.06991  0.59184  1.0000
  H   H422      1.0  0.91244  0.04903  0.55596  1.0000
  H   H423      1.0  0.82844  0.05280  0.47902  1.0000
  H   H424      1.0  0.77263  0.07357  0.51478  1.0000
  H   H425      1.0  0.56066  0.15034  0.38130  1.0000
  C   C249      1.0  0.91552  0.16306  0.60762  1.0000
  H   H426      1.0  0.49167  0.01720  0.55260  1.0000
  C   C250      1.0  0.51445  0.14307  0.47499  1.0000
  C   C251      1.0  0.54284  0.11494  0.48691  1.0000
  C   C252      1.0  0.55219  0.08099  0.46871  1.0000
  H   H427      1.0  0.54085  0.04891  0.42549  1.0000
  C   C253      1.0  0.53705  0.20337  0.33314  1.0000
  H   H428      1.0  0.66996  0.35893  0.65433  1.0000
  H   H429      1.0  0.57401  0.05911  0.47734  1.0000
  H   H430      1.0  0.60351  0.30711  0.60891  1.0000
  C   C254      1.0  0.60265  0.29162  0.63113  1.0000
  C   C255      1.0  0.61211  0.25003  0.63258  1.0000
  H   H431      1.0  0.56106  0.22550  0.37875  1.0000
  H   H432      1.0  0.70944  0.16972  0.65297  1.0000
  H   H433      1.0  0.88764  0.20193  0.57131  1.0000
  H   H434      1.0  0.62038  0.23375  0.61161  1.0000
  C   C256      1.0  0.95327  0.14242  0.54441  1.0000
  H   H435      1.0  0.79110  0.00164  0.59532  1.0000
  H   H436      1.0  0.51692  0.27649  0.36822  1.0000
  H   H437      1.0  0.51122  0.17509  0.58391  1.0000
  S   S57       1.0  0.57878  0.36510  0.65540  1.0000
  C   C257      1.0  0.88435  0.19541  0.59656  1.0000
  H   H438      1.0  0.88808  0.22393  0.60995  1.0000
  H   H439      1.0  0.81882  0.20509  0.59490  1.0000
  H   H440      1.0  0.83415  0.15389  0.58708  1.0000
  H   H441      1.0  0.73982  0.23817  0.65233  1.0000
  H   H442      1.0  0.83565  0.17326  0.62662  1.0000
  C   C258      1.0  0.58590  0.16682  0.36964  1.0000
  H   H443      1.0  0.56503  0.28254  0.33042  1.0000
  C   C259      1.0  0.59185  0.31319  0.65818  1.0000
  H   H444      1.0  0.98547  0.03323  0.62686  1.0000
  H   H445      1.0  0.49364  0.20859  0.38696  1.0000
  H   H446      1.0  0.90546  0.13401  0.59714  1.0000
  C   C260      1.0  0.49561  0.13739  0.44552  1.0000
  H   H447      1.0  0.54852  0.20383  0.60535  1.0000
  C   C261      1.0  0.49431  0.25975  0.35367  1.0000
  C   C262      1.0  0.96825  0.09465  0.61480  1.0000
  H   H448      1.0  0.93805  0.18063  0.50451  1.0000
  H   H449      1.0  0.61099  0.17088  0.38687  1.0000
  C   C263      1.0  0.97127  0.21025  0.61723  1.0000
  C   C264      1.0  0.53319  0.07524  0.43929  1.0000
  H   H450      1.0  0.94810  0.12851  0.49506  1.0000
  H   H451      1.0  0.70737  0.99991  0.47132  1.0000
  C   C265      1.0  0.84065  0.18094  0.60169  1.0000
  H   H452      1.0  0.96373  0.20795  0.64254  1.0000
  C   C266      1.0  0.70474  0.00000  0.49716  1.0000
  H   H453      1.0  0.92085  0.13443  0.54795  1.0000
  H   H454      1.0  0.70381  0.03196  0.50518  1.0000
  H   H455      1.0  0.95567  0.08510  0.59198  1.0000
  H   H456      1.0  0.91146  0.15925  0.63328  1.0000
  H   H457      1.0  0.76905  0.99441  0.50399  1.0000
  H   H458      1.0  0.95337  0.23620  0.60801  1.0000
  H   H459      1.0  0.59772  0.22414  0.34789  1.0000
  N   N16       1.0  0.95984  0.17144  0.60063  1.0000
  H   H460      1.0  0.51547  0.17916  0.34053  1.0000
  H   H461      1.0  0.94334  0.09360  0.63226  1.0000
  H   H462      1.0  0.74109  0.01012  0.55468  1.0000
  C   C267      1.0  0.50449  0.10314  0.42756  1.0000
  C   C268      1.0  0.49649  0.22775  0.65411  1.0000
  C   C269      1.0  0.57122  0.20807  0.35811  1.0000
  C   C270      1.0  0.74111  0.17477  0.66138  1.0000
  Fe  Fe29      1.0  0.98273  0.02279  0.49087  1.0000
  H   H463      1.0  0.71461  0.99844  0.60466  1.0000
  C   C271      1.0  0.51984  0.18632  0.60750  1.0000
  H   H464      1.0  0.50693  0.30138  0.62699  1.0000
  H   H465      1.0  0.76030  0.02774  0.64511  1.0000
  H   H466      1.0  0.50659  0.04403  0.51804  1.0000
  H   H467      1.0  0.76200  0.16855  0.64164  1.0000
  H   H468      1.0  0.95281  0.20586  0.55792  1.0000
  H   H469      1.0  0.49435  0.33351  0.65954  1.0000
  C   C272      1.0  0.95772  0.15425  0.51012  1.0000
  H   H470      1.0  0.52544  0.15981  0.62284  1.0000
  H   H471      1.0  0.97263  0.11537  0.54832  1.0000
  C   C273      1.0  0.74622  0.99749  0.64842  1.0000
  H   H472      1.0  0.48747  0.36961  0.61002  1.0000
  C   C274      1.0  0.61030  0.22956  0.66110  1.0000
  H   H473      1.0  0.52528  0.24531  0.65269  1.0000
  H   H474      1.0  0.72335  0.37252  0.65504  1.0000
  H   H475      1.0  0.50726  0.16969  0.48860  1.0000
  H   H476      1.0  0.67579  0.98476  0.50359  1.0000
  H   H477      1.0  0.82006  0.98692  0.54618  1.0000
  H   H478      1.0  0.93267  0.18010  0.93176  1.0000
  C   C275      1.0  0.87272  0.42153  0.97645  1.0000
  S   S58       1.0  0.51381  0.45327  0.69555  1.0000
  Fe  Fe30      1.0  0.56268  0.40282  0.76810  1.0000
  S   S59       1.0  0.59948  0.43199  0.73053  1.0000
  S   S60       1.0  0.59525  0.37330  0.80934  1.0000
  Fe  Fe31      1.0  0.55652  0.39975  0.69801  1.0000
  H   H479      1.0  0.76259  0.21473  0.94226  1.0000
  S   S61       1.0  0.51843  0.45500  0.77225  1.0000
  S   S62       1.0  0.52146  0.36795  0.73545  1.0000
  Fe  Fe32      1.0  0.86488  0.25780  0.89414  1.0000
  S   S63       1.0  0.92128  0.29470  0.90413  1.0000
  S   S64       1.0  0.84635  0.19631  0.91551  1.0000
  Fe  Fe33      1.0  0.83096  0.32168  0.84854  1.0000
  S   S65       1.0  0.88522  0.36210  0.85591  1.0000
  S   S66       1.0  0.78737  0.34293  0.81013  1.0000
  Fe  Fe34      1.0  0.92336  0.30615  0.85193  1.0000
  H   H480      1.0  0.75629  0.05925  0.90595  1.0000
  Fe  Fe35      1.0  0.87895  0.34854  0.90732  1.0000
  S   S67       1.0  0.86953  0.26584  0.84190  1.0000
  S   S68       1.0  0.82195  0.31146  0.89994  1.0000
  C   C276      1.0  0.90680  0.99481  0.88386  1.0000
  C   C277      1.0  0.64883  0.36547  0.80977  1.0000
  C   C278      1.0  0.66783  0.34951  0.83659  1.0000
  C   C279      1.0  0.71032  0.34263  0.83741  1.0000
  C   C280      1.0  0.73416  0.35197  0.81142  1.0000
  C   C281      1.0  0.71527  0.36867  0.78493  1.0000
  C   C282      1.0  0.67287  0.37498  0.78396  1.0000
  H   H481      1.0  0.64953  0.34209  0.85673  1.0000
  H   H482      1.0  0.72451  0.32987  0.85801  1.0000
  H   H483      1.0  0.73357  0.37650  0.76493  1.0000
  H   H484      1.0  0.65881  0.38691  0.76316  1.0000
  S   S69       1.0  0.88698  0.40552  0.93801  1.0000
  H   H485      1.0  0.59592  0.47686  0.87570  1.0000
  C   C283      1.0  0.93347  0.12034  0.95263  1.0000
  C   C284      1.0  0.91472  0.15388  0.93787  1.0000
  C   C285      1.0  0.87274  0.15373  0.93180  1.0000
  C   C286      1.0  0.85015  0.11921  0.94026  1.0000
  H   H486      1.0  0.68578  0.22177  0.69198  1.0000
  C   C287      1.0  0.83096  0.98353  0.89064  1.0000
  C   C288      1.0  0.77644  0.02515  0.86500  1.0000
  C   C289      1.0  0.96183  0.44584  0.80800  1.0000
  H   H487      1.0  0.72948  0.23006  0.97389  1.0000
  H   H488      1.0  0.64564  0.01141  0.69596  1.0000
  H   H489      1.0  0.83425  0.00306  0.91156  1.0000
  H   H490      1.0  0.77651  0.01395  0.93989  1.0000
  C   C290      1.0  0.70946  0.29925  0.68783  1.0000
  C   C291      1.0  0.58314  0.47448  0.85171  1.0000
  C   C292      1.0  0.97393  0.42125  0.83756  1.0000
  H   H491      1.0  0.77655  0.21956  0.74537  1.0000
  H   H492      1.0  0.76912  0.46978  0.86906  1.0000
  C   C293      1.0  0.77384  0.10146  0.87075  1.0000
  H   H493      1.0  0.69586  0.44054  0.73255  1.0000
  H   H494      1.0  0.72791  0.35643  0.71092  1.0000
  H   H495      1.0  0.98443  0.45305  0.89543  1.0000
  H   H496      1.0  0.74350  0.10229  0.85912  1.0000
  H   H497      1.0  0.84267  0.25291  0.73530  1.0000
  H   H498      1.0  0.79805  0.10607  0.85305  1.0000
  H   H499      1.0  0.77872  0.22232  0.67975  1.0000
  H   H500      1.0  0.78390  0.45367  0.83020  1.0000
  H   H501      1.0  0.93070  0.00547  0.86755  1.0000
  H   H502      1.0  0.94863  0.42366  0.85469  1.0000
  H   H503      1.0  0.65846  0.28400  0.72936  1.0000
  H   H504      1.0  0.66889  0.27048  0.80339  1.0000
  H   H505      1.0  0.67406  0.34649  0.71240  1.0000
  H   H506      1.0  0.72797  0.47414  0.71064  1.0000
  C   C294      1.0  0.77958  0.25199  0.75135  1.0000
  H   H507      1.0  0.74425  0.02510  0.85675  1.0000
  H   H508      1.0  0.91063  0.40687  0.79524  1.0000
  H   H509      1.0  0.64359  0.22221  0.80112  1.0000
  H   H510      1.0  0.69748  0.30012  0.75514  1.0000
  H   H511      1.0  0.71188  0.44134  0.81643  1.0000
  H   H512      1.0  0.73930  0.26399  0.94186  1.0000
  H   H513      1.0  0.81756  0.11907  0.93652  1.0000
  C   C295      1.0  0.76197  0.27983  0.72560  1.0000
  H   H514      1.0  0.76276  0.31076  0.73579  1.0000
  C   C296      1.0  0.75300  0.24051  0.95719  1.0000
  C   C297      1.0  0.61722  0.47537  0.82754  1.0000
  C   C298      1.0  0.68846  0.27498  0.73938  1.0000
  H   H515      1.0  0.78393  0.28087  0.70592  1.0000
  H   H516      1.0  0.58387  0.30934  0.70785  1.0000
  H   H517      1.0  0.62354  0.26468  0.77955  1.0000
  C   C299      1.0  0.82498  0.26021  0.75661  1.0000
  C   C300      1.0  0.51220  0.25936  0.75435  1.0000
  H   H518      1.0  0.97882  0.37841  0.72699  1.0000
  H   H519      1.0  0.68169  0.28896  0.67494  1.0000
  C   C301      1.0  0.67857  0.23764  0.75989  1.0000
  C   C302      1.0  0.69511  0.37081  0.66917  1.0000
  H   H520      1.0  0.72318  0.20428  0.71812  1.0000
  H   H521      1.0  0.81060  0.06248  0.89895  1.0000
  H   H522      1.0  0.48928  0.28023  0.76455  1.0000
  H   H523      1.0  0.60272  0.47141  0.80422  1.0000
  C   C303      1.0  0.59132  0.29295  0.68679  1.0000
  H   H524      1.0  0.51903  0.21778  0.71643  1.0000
  H   H525      1.0  0.68677  0.40184  0.67680  1.0000
  S   S70       1.0  0.93542  0.04617  0.98258  1.0000
  H   H526      1.0  0.70540  0.99408  0.95170  1.0000
  C   C304      1.0  0.71738  0.22774  0.70020  1.0000
  H   H527      1.0  0.79471  0.03214  0.84384  1.0000
  C   C305      1.0  0.86911  0.08515  0.95409  1.0000
  H   H528      1.0  0.94506  0.30152  0.97116  1.0000
  H   H529      1.0  0.71761  0.00133  0.66191  1.0000
  H   H530      1.0  0.97316  0.37158  0.88865  1.0000
  H   H531      1.0  0.88451  0.22659  0.97340  1.0000
  H   H532      1.0  0.94890  0.35063  0.77575  1.0000
  N   N17       1.0  0.71972  0.26987  0.71378  1.0000
  H   H533      1.0  0.76384  0.25809  0.77377  1.0000
  H   H534      1.0  0.50454  0.20037  0.66791  1.0000
  C   C306      1.0  0.86505  0.99688  0.86794  1.0000
  H   H535      1.0  0.81125  0.26962  0.95699  1.0000
  C   C307      1.0  0.78960  0.25832  0.97463  1.0000
  H   H536      1.0  0.77554  0.12688  0.88770  1.0000
  H   H537      1.0  0.83018  0.29238  0.76297  1.0000
  H   H538      1.0  0.98475  0.27568  0.99236  1.0000
  C   C308      1.0  0.86969  0.46326  0.98281  1.0000
  C   C309      1.0  0.78014  0.06130  0.88777  1.0000
  H   H539      1.0  0.89692  0.45057  0.81835  1.0000
  C   C310      1.0  0.65199  0.24960  0.78764  1.0000
  C   C311      1.0  0.60006  0.25130  0.68817  1.0000
  H   H540      1.0  0.70633  0.22284  0.76912  1.0000
  C   C312      1.0  0.91701  0.43941  0.79939  1.0000
  C   C313      1.0  0.70172  0.34388  0.69772  1.0000
  H   H541      1.0  0.59886  0.23580  0.71037  1.0000
  C   C314      1.0  0.91099  0.08554  0.96066  1.0000
  H   H542      1.0  0.83646  0.24104  0.77603  1.0000
  H   H543      1.0  0.66131  0.21495  0.74591  1.0000
  C   C315      1.0  0.76068  0.45043  0.84882  1.0000
  H   H544      1.0  0.86026  0.02854  0.86020  1.0000
  H   H545      1.0  0.69630  0.45536  0.85534  1.0000
  H   H546      1.0  0.90964  0.45626  0.77767  1.0000
  H   H547      1.0  0.96574  0.12137  0.95794  1.0000
  H   H548      1.0  0.54008  0.27670  0.74843  1.0000
  H   H549      1.0  0.76079  0.41838  0.85661  1.0000
  S   S71       1.0  0.62073  0.17716  0.66453  1.0000
  C   C316      1.0  0.49494  0.23821  0.72541  1.0000
  C   C317      1.0  0.70140  0.47272  0.72655  1.0000
  H   H550      1.0  0.85108  0.05925  0.96082  1.0000
  H   H551      1.0  0.63724  0.44909  0.83180  1.0000
  H   H552      1.0  0.97360  0.38899  0.83007  1.0000
  H   H553      1.0  0.56628  0.44543  0.84978  1.0000
  H   H554      1.0  0.50965  0.28717  0.69473  1.0000
  H   H555      1.0  0.95646  0.24888  0.96268  1.0000
  H   H556      1.0  0.74796  0.15305  0.68046  1.0000
  H   H557      1.0  0.52052  0.23648  0.77224  1.0000
  H   H558      1.0  0.77847  0.28439  0.98846  1.0000
  H   H559      1.0  0.64778  0.98273  0.74963  1.0000
  H   H560      1.0  0.81923  0.20091  0.97961  1.0000
  H   H561      1.0  0.96665  0.47869  0.81094  1.0000
  H   H562      1.0  0.87268  0.27823  0.97758  1.0000
  C   C318      1.0  0.97982  0.34308  0.76944  1.0000
  H   H563      1.0  0.98035  0.43600  0.78774  1.0000
  C   C319      1.0  0.71835  0.46152  0.83638  1.0000
  H   H564      1.0  0.66733  0.46390  0.78316  1.0000
  H   H565      1.0  0.90769  0.01425  0.90507  1.0000
  C   C320      1.0  0.95419  0.27202  0.98145  1.0000
  H   H566      1.0  0.73434  0.30011  0.67029  1.0000
  S   S72       1.0  0.98484  0.30144  0.82632  1.0000
  C   C321      1.0  0.88088  0.25077  0.99126  1.0000
  C   C322      1.0  0.74641  0.21838  0.67262  1.0000
  N   N18       1.0  0.78796  0.98420  0.87780  1.0000
  Fe  Fe36      1.0  0.90664  0.89615  0.01755  1.0000
  S   S73       1.0  0.87338  0.86160  0.05616  1.0000
  H   H567      1.0  0.51702  0.54211  0.11457  1.0000
  S   S74       1.0  0.95936  0.93983  0.02386  1.0000
  H   H568      1.0  0.88772  0.80120  0.00773  1.0000
  S   S75       1.0  0.56707  0.51926  0.23217  1.0000
  Fe  Fe37      1.0  0.77735  0.58489  0.13555  1.0000
  S   S76       1.0  0.82205  0.53628  0.15006  1.0000
  S   S77       1.0  0.71312  0.60062  0.15411  1.0000
  Fe  Fe38      1.0  0.83935  0.62334  0.09014  1.0000
  S   S78       1.0  0.88716  0.57702  0.10168  1.0000
  S   S79       1.0  0.85621  0.66898  0.05223  1.0000
  Fe  Fe39      1.0  0.83714  0.53078  0.09842  1.0000
  C   C323      1.0  0.82364  0.62612  0.30932  1.0000
  Fe  Fe40      1.0  0.86926  0.58596  0.15192  1.0000
  S   S80       1.0  0.92353  0.60040  0.18422  1.0000
  S   S81       1.0  0.78968  0.57651  0.08390  1.0000
  S   S82       1.0  0.82404  0.63505  0.14023  1.0000
  C   C324      1.0  0.76816  0.71856  0.00744  1.0000
  C   C325      1.0  0.84903  0.71815  0.19449  1.0000
  C   C326      1.0  0.94021  0.59517  0.22377  1.0000
  C   C327      1.0  0.92195  0.56836  0.24470  1.0000
  C   C328      1.0  0.93708  0.56478  0.27553  1.0000
  H   H569      1.0  0.86313  0.63107  0.26887  1.0000
  H   H570      1.0  0.89674  0.54985  0.23705  1.0000
  C   C329      1.0  0.97401  0.61793  0.23408  1.0000
  H   H571      1.0  0.82926  0.55588  0.26889  1.0000
  C   C330      1.0  0.60645  0.54124  0.20872  1.0000
  C   C331      1.0  0.60206  0.57900  0.19439  1.0000
  C   C332      1.0  0.63496  0.59653  0.17800  1.0000
  C   C333      1.0  0.67256  0.57624  0.17484  1.0000
  C   C334      1.0  0.67689  0.53829  0.18894  1.0000
  C   C335      1.0  0.64428  0.52124  0.20604  1.0000
  H   H572      1.0  0.57376  0.59522  0.19691  1.0000
  H   H573      1.0  0.63138  0.62630  0.16798  1.0000
  H   H574      1.0  0.70548  0.52222  0.18702  1.0000
  C   C336      1.0  0.52599  0.66654  0.16749  1.0000
  C   C337      1.0  0.86963  0.80785  0.05552  1.0000
  C   C338      1.0  0.85664  0.78683  0.08225  1.0000
  C   C339      1.0  0.85313  0.74419  0.08211  1.0000
  C   C340      1.0  0.86271  0.72219  0.05516  1.0000
  C   C341      1.0  0.87600  0.74322  0.02864  1.0000
  C   C342      1.0  0.87892  0.78565  0.02869  1.0000
  H   H575      1.0  0.84911  0.80363  0.10314  1.0000
  H   H576      1.0  0.84265  0.72846  0.10268  1.0000
  C   C343      1.0  0.97105  0.58742  0.28580  1.0000
  C   C344      1.0  0.71273  0.83801  0.02377  1.0000
  C   C345      1.0  0.80463  0.52230  0.23066  1.0000
  C   C346      1.0  0.72337  0.63231  0.24066  1.0000
  C   C347      1.0  0.68212  0.63330  0.25710  1.0000
  H   H577      1.0  0.75385  0.66881  0.27599  1.0000
  H   H578      1.0  0.75464  0.61629  0.28287  1.0000
  H   H579      1.0  0.72277  0.65606  0.22241  1.0000
  H   H580      1.0  0.72595  0.60236  0.22914  1.0000
  H   H581      1.0  0.67734  0.66287  0.26885  1.0000
  H   H582      1.0  0.65731  0.62885  0.23968  1.0000
  H   H583      1.0  0.68007  0.60858  0.27456  1.0000
  N   N19       1.0  0.50797  0.62785  0.11631  1.0000
  C   C348      1.0  0.74439  0.80618  0.01489  1.0000
  C   C349      1.0  0.55066  0.61380  0.10803  1.0000
  H   H584      1.0  0.81293  0.59446  0.30848  1.0000
  H   H585      1.0  0.51963  0.69112  0.10599  1.0000
  H   H586      1.0  0.71257  0.68216  0.01469  1.0000
  H   H587      1.0  0.87136  0.68585  0.23422  1.0000
  C   C350      1.0  0.58328  0.64662  0.10117  1.0000
  C   C351      1.0  0.62456  0.62742  0.09370  1.0000
  H   H588      1.0  0.83385  0.52120  0.21781  1.0000
  C   C352      1.0  0.51391  0.66986  0.20183  1.0000
  H   H589      1.0  0.50087  0.66265  0.07398  1.0000
  H   H590      1.0  0.88597  0.60818  0.32103  1.0000
  H   H591      1.0  0.56318  0.59378  0.12671  1.0000
  H   H592      1.0  0.54992  0.59469  0.08654  1.0000
  C   C353      1.0  0.49772  0.66688  0.09969  1.0000
  H   H593      1.0  0.68470  0.82339  0.03281  1.0000
  H   H594      1.0  0.78592  0.69156  0.99996  1.0000
  H   H595      1.0  0.97396  0.72416  0.01863  1.0000
  H   H596      1.0  0.55926  0.66098  0.16685  1.0000
  H   H597      1.0  0.51911  0.69613  0.15660  1.0000
  C   C354      1.0  0.74909  0.67898  0.05607  1.0000
  H   H598      1.0  0.57447  0.66472  0.08038  1.0000
  H   H599      1.0  0.58742  0.66743  0.12117  1.0000
  H   H600      1.0  0.62275  0.60988  0.07160  1.0000
  H   H601      1.0  0.64801  0.65136  0.09106  1.0000
  H   H602      1.0  0.63456  0.60679  0.11265  1.0000
  H   H603      1.0  0.51348  0.60323  0.16299  1.0000
  H   H604      1.0  0.87991  0.72214  0.18441  1.0000
  C   C355      1.0  0.75887  0.63911  0.26426  1.0000
  H   H605      1.0  0.76668  0.65230  0.04800  1.0000
  H   H606      1.0  0.70485  0.85696  0.00327  1.0000
  C   C356      1.0  0.83311  0.64345  0.27647  1.0000
  H   H607      1.0  0.72546  0.85800  0.04228  1.0000
  H   H608      1.0  0.77436  0.55831  0.26463  1.0000
  H   H609      1.0  0.75235  0.78936  0.03644  1.0000
  H   H610      1.0  0.96365  0.79457  0.02956  1.0000
  H   H611      1.0  0.94640  0.89580  0.09816  1.0000
  H   H612      1.0  0.61729  0.87917  0.02577  1.0000
  H   H613      1.0  0.79945  0.64456  0.32057  1.0000
  H   H614      1.0  0.95466  0.82268  0.08645  1.0000
  H   H615      1.0  0.76908  0.69834  0.07086  1.0000
  C   C357      1.0  0.50305  0.63140  0.15123  1.0000
  C   C358      1.0  0.80523  0.67236  0.22822  1.0000
  C   C359      1.0  0.80370  0.55923  0.25201  1.0000
  H   H616      1.0  0.52001  0.64107  0.21434  1.0000
  H   H617      1.0  0.84068  0.59821  0.22410  1.0000
  N   N20       1.0  0.80144  0.63758  0.25094  1.0000
  H   H618      1.0  0.78947  0.59733  0.21193  1.0000
  H   H619      1.0  0.85933  0.65480  0.20119  1.0000
  H   H620      1.0  0.92271  0.54394  0.29151  1.0000
  H   H621      1.0  0.78540  0.66739  0.20739  1.0000
  C   C360      1.0  0.80904  0.59885  0.23325  1.0000
  H   H622      1.0  0.80188  0.49432  0.24480  1.0000
  H   H623      1.0  0.71420  0.72789  0.03754  1.0000
  H   H624      1.0  0.72339  0.66810  0.07060  1.0000
  C   C361      1.0  0.97925  0.50120  0.07441  1.0000
  H   H625      1.0  0.79439  0.70094  0.23928  1.0000
  H   H626      1.0  0.83845  0.67632  0.28075  1.0000
  H   H627      1.0  0.69752  0.76594  0.99601  1.0000
  H   H628      1.0  0.85844  0.50988  0.01739  1.0000
  H   H629      1.0  0.77882  0.52324  0.21376  1.0000
  C   C362      1.0  0.95416  0.50311  0.04432  1.0000
  H   H630      1.0  0.84138  0.74559  0.20825  1.0000
  H   H631      1.0  0.88351  0.72657  0.00771  1.0000
  H   H632      1.0  0.97197  0.51827  0.02574  1.0000
  C   C363      1.0  0.84869  0.68066  0.21534  1.0000
  C   C364      1.0  0.73280  0.70274  0.02813  1.0000
  H   H633      1.0  0.82685  0.71495  0.17496  1.0000
  Fe  Fe41      1.0  0.49662  0.52296  0.23426  1.0000
  H   H634      1.0  0.92774  0.50015  0.10483  1.0000
  H   H635      1.0  0.78950  0.73581  0.02267  1.0000
  H   H636      1.0  0.91480  0.50410  0.17052  1.0000
  H   H637      1.0  0.95638  0.68348  0.08646  1.0000
  C   C365      1.0  0.97733  0.88239  0.09605  1.0000
  H   H638      1.0  0.53186  0.69423  0.21330  1.0000
  C   C366      1.0  0.65552  0.95031  0.02515  1.0000
  H   H639      1.0  0.96673  0.75551  0.07513  1.0000
  H   H640      1.0  0.96354  0.53685  0.14291  1.0000
  C   C367      1.0  0.97523  0.84487  0.07522  1.0000
  H   H641      1.0  0.77203  0.82244  0.00689  1.0000
  H   H642      1.0  0.92570  0.52063  0.04812  1.0000
  H   H643      1.0  0.64834  0.49221  0.21724  1.0000
  H   H644      1.0  0.96157  0.85436  0.05267  1.0000
  H   H645      1.0  0.59071  0.95306  0.01942  1.0000
  H   H646      1.0  0.55983  0.88087  0.05285  1.0000
  C   C368      1.0  0.53195  0.87501  0.03883  1.0000
  H   H647      1.0  0.52578  0.84197  0.03851  1.0000
  H   H648      1.0  0.97907  0.51390  0.19488  1.0000
  H   H649      1.0  0.58057  0.82134  0.01187  1.0000
  H   H650      1.0  0.49207  0.88123  0.07893  1.0000
  H   H651      1.0  0.53345  0.92456  0.00629  1.0000
  C   C369      1.0  0.61262  0.89367  0.00261  1.0000
  C   C370      1.0  0.61688  0.93991  0.00668  1.0000
  C   C371      1.0  0.53622  0.89122  0.00504  1.0000
  H   H652      1.0  0.50178  0.92798  0.05870  1.0000
  C   C372      1.0  0.49616  0.89510  0.05555  1.0000
  H   H653      1.0  0.65383  0.93786  0.04920  1.0000
  H   H654      1.0  0.68293  0.93791  0.01339  1.0000
  H   H655      1.0  0.73958  0.82109  0.52744  1.0000
  H   H656      1.0  0.95936  0.55817  0.50784  1.0000
  H   H657      1.0  0.87978  0.91957  0.52187  1.0000
  C   C373      1.0  0.77578  0.97168  0.59741  1.0000
  H   H658      1.0  0.72502  0.90983  0.58102  1.0000
  C   C374      1.0  0.75568  0.91001  0.57006  1.0000
  H   H659      1.0  0.89444  0.96622  0.54090  1.0000
  H   H660      1.0  0.94951  0.75402  0.45619  1.0000
  C   C375      1.0  0.74370  0.83930  0.54905  1.0000
  H   H661      1.0  0.74259  0.94742  0.50145  1.0000
  H   H662      1.0  0.70737  0.96815  0.55446  1.0000
  H   H663      1.0  0.77578  0.89400  0.58703  1.0000
  H   H664      1.0  0.91063  0.91848  0.55680  1.0000
  C   C376      1.0  0.81077  0.95479  0.54900  1.0000
  C   C377      1.0  0.74127  0.97809  0.51158  1.0000
  C   C378      1.0  0.75141  0.88349  0.54045  1.0000
  H   H665      1.0  0.77913  0.88425  0.52583  1.0000
  H   H666      1.0  0.83947  0.90013  0.56884  1.0000
  C   C379      1.0  0.84680  0.93247  0.56500  1.0000
  H   H667      1.0  0.79624  0.95281  0.61217  1.0000
  H   H668      1.0  0.85344  0.61639  0.35413  1.0000
  H   H669      1.0  0.80865  0.94281  0.52488  1.0000
  H   H670      1.0  0.71564  0.83650  0.56333  1.0000
  H   H671      1.0  0.77001  0.82678  0.56232  1.0000
  N   N21       1.0  0.77017  0.95289  0.56544  1.0000
  H   H672      1.0  0.72470  0.89364  0.52655  1.0000
  H   H673      1.0  0.96444  0.68362  0.46913  1.0000
  S   S83       1.0  0.61904  0.97651  0.63560  1.0000
  C   C380      1.0  0.88513  0.93434  0.54485  1.0000
  C   C381      1.0  0.73875  0.97765  0.54783  1.0000
  C   C382      1.0  0.98167  0.74353  0.45616  1.0000
  H   H674      1.0  0.85459  0.94674  0.58773  1.0000
  H   H675      1.0  0.72071  0.94913  0.62161  1.0000
  H   H676      1.0  0.97752  0.71652  0.50137  1.0000
  C   C383      1.0  0.86130  0.62763  0.33050  1.0000
  H   H677      1.0  0.98019  0.63134  0.49829  1.0000
  H   H678      1.0  0.87285  0.65910  0.33273  1.0000
  C   C384      1.0  0.73636  0.97816  0.61684  1.0000
  C   C385      1.0  0.71619  0.50658  0.82689  1.0000
  S   S84       1.0  0.96434  0.94148  0.94715  1.0000
  Fe  Fe42      1.0  0.90946  0.90025  0.94745  1.0000
  S   S85       1.0  0.87643  0.87430  0.90502  1.0000
  C   C386      1.0  0.68140  0.59477  0.82769  1.0000
  S   S86       1.0  0.57499  0.54882  0.72931  1.0000
  Fe  Fe43      1.0  0.64284  0.82627  0.87291  1.0000
  S   S87       1.0  0.60195  0.87702  0.85849  1.0000
  S   S88       1.0  0.68562  0.84138  0.91346  1.0000
  Fe  Fe44      1.0  0.59607  0.76541  0.83118  1.0000
  S   S89       1.0  0.55223  0.81404  0.81439  1.0000
  S   S90       1.0  0.58724  0.69611  0.82700  1.0000
  Fe  Fe45      1.0  0.60839  0.85355  0.80929  1.0000
  S   S91       1.0  0.62522  0.90595  0.77597  1.0000
  Fe  Fe46      1.0  0.54971  0.83402  0.86489  1.0000
  H   H679      1.0  0.64613  0.50759  0.76594  1.0000
  S   S92       1.0  0.65261  0.80394  0.82378  1.0000
  S   S93       1.0  0.59024  0.78424  0.88179  1.0000
  C   C387      1.0  0.62256  0.92484  0.73670  1.0000
  C   C388      1.0  0.60780  0.90176  0.71161  1.0000
  H   H680      1.0  0.88130  0.73132  0.92536  1.0000
  H   H681      1.0  0.62881  0.75319  0.95268  1.0000
  C   C389      1.0  0.79341  0.76141  0.96504  1.0000
  H   H682      1.0  0.59722  0.87129  0.71572  1.0000
  C   C390      1.0  0.60696  0.91807  0.68103  1.0000
  H   H683      1.0  0.74781  0.74954  0.91306  1.0000
  H   H684      1.0  0.67458  0.69131  0.91342  1.0000
  H   H685      1.0  0.74430  0.51421  0.81372  1.0000
  C   C391      1.0  0.57763  0.58949  0.75675  1.0000
  C   C392      1.0  0.59226  0.62745  0.74692  1.0000
  C   C393      1.0  0.59506  0.66050  0.76782  1.0000
  C   C394      1.0  0.58365  0.65596  0.79907  1.0000
  C   C395      1.0  0.56905  0.61799  0.80888  1.0000
  C   C396      1.0  0.56576  0.58513  0.78787  1.0000
  H   H686      1.0  0.60154  0.63130  0.72290  1.0000
  H   H687      1.0  0.60661  0.68929  0.75983  1.0000
  H   H688      1.0  0.55997  0.61401  0.83293  1.0000
  H   H689      1.0  0.55397  0.55636  0.79574  1.0000
  C   C397      1.0  0.73869  0.84955  0.91024  1.0000
  C   C398      1.0  0.76006  0.86394  0.93647  1.0000
  C   C399      1.0  0.80228  0.87072  0.93528  1.0000
  C   C400      1.0  0.82369  0.86349  0.90772  1.0000
  C   C401      1.0  0.80250  0.84834  0.88159  1.0000
  C   C402      1.0  0.76007  0.84154  0.88276  1.0000
  H   H690      1.0  0.74391  0.87014  0.95782  1.0000
  H   H691      1.0  0.81819  0.88160  0.95574  1.0000
  H   H692      1.0  0.81887  0.84239  0.86019  1.0000
  H   H693      1.0  0.74399  0.83014  0.86246  1.0000
  H   H694      1.0  0.67292  0.64638  0.79657  1.0000
  C   C403      1.0  0.78603  0.95422  0.85108  1.0000
  H   H695      1.0  0.75587  0.93703  0.90271  1.0000
  N   N22       1.0  0.75566  0.74349  0.97949  1.0000
  H   H696      1.0  0.91391  0.96312  0.89050  1.0000
  H   H697      1.0  0.61787  0.53880  0.82147  1.0000
  H   H698      1.0  0.94305  0.76555  0.97663  1.0000
  C   C404      1.0  0.51083  0.76072  0.74486  1.0000
  H   H699      1.0  0.70430  0.70561  0.96710  1.0000
  H   H700      1.0  0.72292  0.93083  0.85611  1.0000
  H   H701      1.0  0.57462  0.75747  0.95804  1.0000
  H   H702      1.0  0.87543  0.77173  0.95327  1.0000
  N   N23       1.0  0.67875  0.51969  0.80890  1.0000
  N   N24       1.0  0.57395  0.87851  0.98743  1.0000
  H   H703      1.0  0.63975  0.82027  0.97609  1.0000
  H   H704      1.0  0.71895  0.52377  0.84908  1.0000
  H   H705      1.0  0.71377  0.90685  0.80268  1.0000
  H   H706      1.0  0.50943  0.73628  0.82262  1.0000
  C   C405      1.0  0.68406  0.56380  0.80036  1.0000
  H   H707      1.0  0.68713  0.65936  0.83591  1.0000
  H   H708      1.0  0.65001  0.59608  0.83721  1.0000
  H   H709      1.0  0.66058  0.57298  0.78278  1.0000
  H   H710      1.0  0.50855  0.88105  0.99199  1.0000
  H   H711      1.0  0.97898  0.56472  0.88669  1.0000
  C   C406      1.0  0.64086  0.51599  0.82875  1.0000
  S   S94       1.0  0.87485  0.93672  0.98267  1.0000
  H   H712      1.0  0.64810  0.52300  0.85362  1.0000
  H   H713      1.0  0.55806  0.95731  0.96402  1.0000
  H   H714      1.0  0.50164  0.78983  0.93381  1.0000
  H   H715      1.0  0.72122  0.79732  0.96840  1.0000
  H   H716      1.0  0.76722  0.97799  0.66214  1.0000
  H   H717      1.0  0.72447  0.68080  0.89720  1.0000
  C   C407      1.0  0.73330  0.71643  0.95673  1.0000
  H   H718      1.0  0.84911  0.77394  0.91621  1.0000
  C   C408      1.0  0.57548  0.83282  0.98776  1.0000
  C   C409      1.0  0.71020  0.49749  0.75598  1.0000
  H   H719      1.0  0.51539  0.92889  0.94989  1.0000
  H   H720      1.0  0.51384  0.69677  0.73938  1.0000
  H   H721      1.0  0.71407  0.56878  0.78903  1.0000
  H   H722      1.0  0.80024  0.92507  0.85822  1.0000
  C   C410      1.0  0.82306  0.73115  0.94935  1.0000
  C   C411      1.0  0.72128  0.73599  0.92508  1.0000
  H   H723      1.0  0.87428  0.48467  0.96409  1.0000
  H   H724      1.0  0.60645  0.82271  0.94271  1.0000
  H   H725      1.0  0.72483  0.63887  0.80973  1.0000
  C   C412      1.0  0.85940  0.75345  0.93524  1.0000
  C   C413      1.0  0.70221  0.70499  0.90290  1.0000
  C   C414      1.0  0.69231  0.63736  0.81671  1.0000
  H   H726      1.0  0.83494  0.70906  0.96660  1.0000
  H   H727      1.0  0.75122  0.68849  0.95204  1.0000
  C   C415      1.0  0.60882  0.81277  0.96731  1.0000
  H   H728      1.0  0.70248  0.58702  0.84704  1.0000
  H   H729      1.0  0.75950  0.88531  0.81910  1.0000
  H   H730      1.0  0.72104  0.94188  0.95589  1.0000
  H   H731      1.0  0.78518  0.78472  0.94743  1.0000
  C   C416      1.0  0.63630  0.96446  0.73056  1.0000
  H   H732      1.0  0.80798  0.71426  0.93014  1.0000
  H   H733      1.0  0.59561  0.89978  0.66193  1.0000
  H   H734      1.0  0.69822  0.75988  0.92888  1.0000
  H   H735      1.0  0.56126  0.49959  0.84758  1.0000
  H   H736      1.0  0.81159  0.77792  0.98298  1.0000
  H   H737      1.0  0.54560  0.82033  0.98021  1.0000
  S   S95       1.0  0.93903  0.85876  0.98201  1.0000
  C   C417      1.0  0.74276  0.94435  0.83800  1.0000
  Fe  Fe47      1.0  0.93082  0.97639  0.98433  1.0000
  H   H738      1.0  0.71677  0.52881  0.74832  1.0000
  H   H739      1.0  0.69298  0.72022  0.88084  1.0000
  C   C418      1.0  0.74505  0.91391  0.81117  1.0000
  H   H740      1.0  0.49320  0.76409  0.72284  1.0000
  C   C419      1.0  0.57117  0.89249  0.95378  1.0000
  H   H741      1.0  0.83847  0.95254  0.89905  1.0000
  H   H742      1.0  0.54524  0.92698  0.89695  1.0000
  H   H743      1.0  0.67436  0.48502  0.71401  1.0000
  C   C420      1.0  0.60479  0.76672  0.96759  1.0000
  C   C421      1.0  0.97439  0.75344  0.97419  1.0000
  S   S96       1.0  0.49217  0.85733  0.88970  1.0000
  H   H744      1.0  0.60212  0.89404  0.94320  1.0000
  H   H745      1.0  0.97017  0.52370  0.91347  1.0000
  H   H746      1.0  0.76270  0.92656  0.79140  1.0000
  H   H747      1.0  0.63938  0.88448  0.98845  1.0000
  H   H748      1.0  0.58988  0.95387  0.91084  1.0000
  H   H749      1.0  0.52764  0.71315  0.77708  1.0000
  H   H750      1.0  0.97272  0.72446  0.96111  1.0000
  H   H751      1.0  0.80416  0.96507  0.83089  1.0000
  C   C422      1.0  0.62046  0.95779  0.67494  1.0000
  C   C423      1.0  0.67359  0.49633  0.77877  1.0000
  H   H752      1.0  0.55425  0.86993  0.93934  1.0000
  H   H753      1.0  0.86635  0.97691  0.84716  1.0000
  H   H754      1.0  0.79349  0.96302  0.94563  1.0000
  C   C424      1.0  0.75806  0.97065  0.90250  1.0000
  H   H755      1.0  0.57528  0.76453  0.75788  1.0000
  H   H756      1.0  0.72756  0.97187  0.82886  1.0000
  H   H757      1.0  0.96046  0.50268  0.85842  1.0000
  H   H758      1.0  0.50133  0.78442  0.76159  1.0000
  C   C425      1.0  0.55561  0.76812  0.73686  1.0000
  C   C426      1.0  0.50472  0.71783  0.75835  1.0000
  C   C427      1.0  0.63512  0.98088  0.70004  1.0000
  H   H759      1.0  0.50170  0.63214  0.74668  1.0000
  C   C428      1.0  0.55678  0.94883  0.91456  1.0000
  H   H760      1.0  0.55945  0.79942  0.72794  1.0000
  H   H761      1.0  0.56593  0.74659  0.71859  1.0000
  C   C429      1.0  0.72783  0.77769  0.98884  1.0000
  C   C430      1.0  0.54885  0.93325  0.94752  1.0000
  C   C431      1.0  0.73115  0.97382  0.95804  1.0000
  H   H762      1.0  0.48811  0.65901  0.79800  1.0000
  H   H763      1.0  0.61977  0.95453  0.98350  1.0000
  Fe  Fe48      1.0  0.55344  0.48256  0.73272  1.0000
  H   H764      1.0  0.60831  0.75483  0.99168  1.0000
  H   H765      1.0  0.54050  0.97791  0.91099  1.0000
  H   H766      1.0  0.72678  0.98155  0.89672  1.0000
  H   H767      1.0  0.73981  0.97968  0.98274  1.0000
  C   C432      1.0  0.76773  0.98188  0.93699  1.0000
  H   H768      1.0  0.73790  0.48453  0.76708  1.0000
