data_image0
_chemical_formula_structural       HC2H2NC2HC2H4C2HCH3CHC2H5C2H4CH8C2HC2HC3H2CHCHSH5CSCH2CHNH3CHCHSH2FeS2FeS2FeSFeS3FeS2FeHSFeCS3H2C4HCHCH7C2H6C6H7SH2NCH2C2HNC3HC2FeH6C2HCH4C3HCH2CHCH6C3NHCSH2CHC2H13C2HCH3CHCHCH7CHC2HCHCHCH2CHCHFeS2FeS2FeSFeS3FeHSHFe2S2FeSFeS3HFeSHC8H3CH3C6H4C2H3SC6H4C2H2CSH4CH5SHC2H6C3HC3H3NH4CHCHC3HC2H3C2HCHCH3CH11CH2C2NH3C2H2NC8H14CH3NHCHCHC2H7CHC2H3CH5CHCHCNH5SFeSFeSC3H2C7H4CHCH2CH3CSH4CSHCH3C2H2CH5CH4FeH3CH3SHC2H6CHNC2NHCH2CHC3H4CHC3HCHCHCFeH7CH4CHSH5C2FeCH2CH2CHCH6C2HCHSH4SH4C6HCH2CHC2H2CNH2CH2CH3SH3CH4CH4CHC2HCHCH5CHCH6CFeS2FeSHFeSFeS3FeCSFeHSFeCSCHC3H2C2H4C2H3NCNC6H2CHC2H9C2HSH2C2H7C2H4CH2CHC2H4S2HCHC4H6CHNHC4HC3H2CH9C2HSH2C3H5CH5C3H2S2HCH5CHFeS2FeS2FeSFeS3HCHC2H3C6H4C6H4C3HCHCH13CH5SCH2CH7CHCH3CH4C2H2C2H4NCHC2H3CH6CH9C2H2NC9HCHFeHCHCH8SHFeS2FeSHFeSFeS3FeS2FeS2FeSFeS2FeSC6H4C6H4C2HC3H5C2H2CH4NC2HC3NHCH11CHC2SH4NC5HC2HC3H8CH7CH4CHCHC3H2CH2CNH3C3NH7CHCHCH4CH3CHC2H4CH2CH2SH3CH2SCHCH3CHC2H6CH2CHCH2CH6CH5CH4C3HCHC2H3CH4C2H5CFeH2FeCH3CHSHC2H3C2H2SHS2CHCSH2CH2CH4FeC3HCH2CHCH3CH3CH5CNCH2CH5C2H2SFeH4CH4SCFeS2FeS2FeSFeS3HFeCSHC2HC3H4C6H5C3H4C4H3C2H2CH6CHCHC2HCHNHCH3CH2CH3CH11SH3CHCNC4HCHC2H3CH4CH4C2HC2HCH3CH3C2H3CHCH10CHCHC2HCHCH4CH3CH3NC3H3C2H8C2H4FeS2FeS2FeSFeCS2FeS2FeS2FeSFeS2FeSC6H4C6H5NH2C2HC3H4C3HCH3CSCHCH2C2H5CH4FeNH2CH3C3H2CH2CHCHCHCH5CHCH2SHCHCH2C3H3C2HC2H10CH3CHNH2CH2CH3CHNHCH9CH4CHCH2C3HCH3SCH6CH3CH5C2HCSC2H6NH2CHCH4FeH3C
_chemical_formula_sum              "H1024 C576 N32 S128 Fe64"
_cell_length_a       45.3636
_cell_length_b       60.04
_cell_length_c       30.1594
_cell_angle_alpha    89.6896
_cell_angle_beta     108.959
_cell_angle_gamma    90.4303

_space_group_name_H-M_alt    "P 1"
_space_group_IT_number       1

loop_
  _space_group_symop_operation_xyz
  'x, y, z'

loop_
  _atom_site_type_symbol
  _atom_site_label
  _atom_site_symmetry_multiplicity
  _atom_site_fract_x
  _atom_site_fract_y
  _atom_site_fract_z
  _atom_site_occupancy
  H   H1        1.0  0.11404  0.27131  0.06281  1.0000
  C   C1        1.0  0.12882  0.22906  0.09735  1.0000
  C   C2        1.0  0.40418  0.31319  0.00479  1.0000
  H   H2        1.0  0.07551  0.20939  0.11035  1.0000
  H   H3        1.0  0.09310  0.21103  0.04036  1.0000
  N   N1        1.0  0.14355  0.24251  0.06742  1.0000
  C   C3        1.0  0.31922  0.31558  0.38561  1.0000
  C   C4        1.0  0.09050  0.25164  0.00350  1.0000
  H   H4        1.0  0.09202  0.03740  0.10025  1.0000
  C   C5        1.0  0.32075  0.29846  0.41866  1.0000
  C   C6        1.0  0.12140  0.25999  0.03939  1.0000
  H   H5        1.0  0.49227  0.25895  0.99681  1.0000
  H   H6        1.0  0.13358  0.27076  0.02062  1.0000
  H   H7        1.0  0.12654  0.19480  0.07022  1.0000
  H   H8        1.0  0.21465  0.26540  0.00520  1.0000
  C   C7        1.0  0.17200  0.25451  0.09916  1.0000
  C   C8        1.0  0.19636  0.27989  0.16892  1.0000
  H   H9        1.0  0.08100  0.18207  0.08995  1.0000
  C   C9        1.0  0.23570  0.30888  0.08291  1.0000
  H   H10       1.0  0.25700  0.27754  0.07694  1.0000
  H   H11       1.0  0.13607  0.06507  0.01635  1.0000
  H   H12       1.0  0.31083  0.28228  0.40656  1.0000
  C   C10       1.0  0.09801  0.01625  0.02697  1.0000
  H   H13       1.0  0.07475  0.24528  0.02227  1.0000
  C   C11       1.0  0.18296  0.19291  0.02649  1.0000
  C   C12       1.0  0.23717  0.28826  0.06164  1.0000
  H   H14       1.0  0.07575  0.01428  0.03482  1.0000
  H   H15       1.0  0.08298  0.06946  0.14469  1.0000
  H   H16       1.0  0.11935  0.05971  0.10290  1.0000
  H   H17       1.0  0.13478  0.21837  0.01090  1.0000
  H   H18       1.0  0.39635  0.31367  0.03599  1.0000
  C   C13       1.0  0.21320  0.28131  0.02097  1.0000
  C   C14       1.0  0.01307  0.99878  0.01307  1.0000
  H   H19       1.0  0.16160  0.18241  0.01850  1.0000
  H   H20       1.0  0.11674  0.01314  0.06095  1.0000
  H   H21       1.0  0.18858  0.24244  0.12226  1.0000
  H   H22       1.0  0.23071  0.29605  0.47314  1.0000
  C   C15       1.0  0.18566  0.31539  0.02274  1.0000
  H   H23       1.0  0.18531  0.19923  0.99316  1.0000
  H   H24       1.0  0.18501  0.26275  0.07801  1.0000
  H   H25       1.0  0.05202  0.17920  0.99914  1.0000
  H   H26       1.0  0.10979  0.19333  0.14132  1.0000
  H   H27       1.0  0.17919  0.20503  0.09125  1.0000
  H   H28       1.0  0.11288  0.23976  0.10922  1.0000
  H   H29       1.0  0.19162  0.29354  0.19034  1.0000
  H   H30       1.0  0.14980  0.26649  0.14983  1.0000
  C   C16       1.0  0.13446  0.04692  0.02321  1.0000
  C   C17       1.0  0.09318  0.19760  0.10624  1.0000
  H   H31       1.0  0.14604  0.04499  0.06162  1.0000
  C   C18       1.0  0.09469  0.05438  0.08728  1.0000
  C   C19       1.0  0.18143  0.21219  0.05849  1.0000
  H   H32       1.0  0.42975  0.31612  0.01632  1.0000
  C   C20       1.0  0.07498  0.07007  0.10577  1.0000
  C   C21       1.0  0.16600  0.27262  0.13169  1.0000
  C   C22       1.0  0.11046  0.20771  0.07503  1.0000
  H   H33       1.0  0.15595  0.28772  0.11097  1.0000
  H   H34       1.0  0.14684  0.22341  0.13028  1.0000
  C   C23       1.0  0.15423  0.22831  0.03438  1.0000
  H   H35       1.0  0.16208  0.23909  0.01001  1.0000
  C   C24       1.0  0.09775  0.99658  0.99358  1.0000
  H   H36       1.0  0.20395  0.22143  0.06775  1.0000
  S   S1        1.0  0.01304  0.02419  0.04213  1.0000
  H   H37       1.0  0.07711  0.08750  0.09456  1.0000
  H   H38       1.0  0.05005  0.06495  0.09270  1.0000
  H   H39       1.0  0.21331  0.28618  0.15218  1.0000
  H   H40       1.0  0.05881  0.05175  0.01990  1.0000
  H   H41       1.0  0.20694  0.26578  0.19257  1.0000
  C   C25       1.0  0.08430  0.05523  0.03287  1.0000
  S   S2        1.0  0.26602  0.31615  0.13530  1.0000
  C   C26       1.0  0.18721  0.29484  0.00139  1.0000
  H   H42       1.0  0.19912  0.04642  0.04899  1.0000
  H   H43       1.0  0.15938  0.01707  0.01468  1.0000
  C   C27       1.0  0.18698  0.04551  0.01056  1.0000
  H   H44       1.0  0.20342  0.18232  0.04409  1.0000
  N   N2        1.0  0.10082  0.03966  0.00957  1.0000
  H   H45       1.0  0.18435  0.06260  0.99551  1.0000
  H   H46       1.0  0.30827  0.31248  0.34855  1.0000
  H   H47       1.0  0.20166  0.03578  0.99459  1.0000
  C   C28       1.0  0.15515  0.03419  0.00010  1.0000
  H   H48       1.0  0.08720  0.07288  0.02369  1.0000
  C   C29       1.0  0.33474  0.30215  0.46711  1.0000
  H   H49       1.0  0.06850  0.28437  0.99241  1.0000
  S   S3        1.0  0.02325  0.13633  0.99737  1.0000
  H   H50       1.0  0.23328  0.30798  0.40425  1.0000
  H   H51       1.0  0.27164  0.29361  0.48666  1.0000
  Fe  Fe1       1.0  0.14762  0.25620  0.90353  1.0000
  S   S4        1.0  0.17848  0.22658  0.90860  1.0000
  S   S5        1.0  0.15612  0.28705  0.95043  1.0000
  Fe  Fe2       1.0  0.09893  0.23882  0.81330  1.0000
  S   S6        1.0  0.12737  0.20866  0.81092  1.0000
  S   S7        1.0  0.05141  0.24679  0.76021  1.0000
  Fe  Fe3       1.0  0.13401  0.20611  0.88809  1.0000
  S   S8        1.0  0.12882  0.17141  0.91624  1.0000
  Fe  Fe4       1.0  0.16934  0.23169  0.83091  1.0000
  S   S9        1.0  0.21148  0.22754  0.80499  1.0000
  S   S10       1.0  0.10386  0.23536  0.88951  1.0000
  S   S11       1.0  0.14021  0.26220  0.82689  1.0000
  Fe  Fe5       1.0  0.38488  0.24981  0.67271  1.0000
  S   S12       1.0  0.40126  0.27469  0.63033  1.0000
  S   S13       1.0  0.41026  0.21692  0.69372  1.0000
  Fe  Fe6       1.0  0.32946  0.27859  0.67553  1.0000
  H   H52       1.0  0.37736  0.30137  0.81270  1.0000
  S   S14       1.0  0.28515  0.28568  0.69464  1.0000
  Fe  Fe7       1.0  0.35109  0.27985  0.58779  1.0000
  C   C30       1.0  0.47477  0.24961  0.90166  1.0000
  S   S15       1.0  0.34345  0.30640  0.63510  1.0000
  S   S16       1.0  0.33462  0.25224  0.62561  1.0000
  S   S17       1.0  0.37846  0.27400  0.72521  1.0000
  H   H53       1.0  0.37795  0.20792  0.53878  1.0000
  H   H54       1.0  0.45260  0.30280  0.91380  1.0000
  C   C31       1.0  0.44859  0.20998  0.73004  1.0000
  C   C32       1.0  0.45555  0.18732  0.73680  1.0000
  C   C33       1.0  0.42586  0.21845  0.57257  1.0000
  C   C34       1.0  0.01936  0.22826  0.75102  1.0000
  H   H55       1.0  0.04199  0.23786  0.61433  1.0000
  C   C35       1.0  0.47228  0.22566  0.75050  1.0000
  H   H56       1.0  0.43759  0.17503  0.72141  1.0000
  C   C36       1.0  0.08451  0.04130  0.95726  1.0000
  H   H57       1.0  0.50196  0.20963  0.68800  1.0000
  H   H58       1.0  0.46710  0.24323  0.74577  1.0000
  H   H59       1.0  0.49665  0.21405  0.56039  1.0000
  H   H60       1.0  0.42851  0.24175  0.85268  1.0000
  H   H61       1.0  0.20057  0.28937  0.83517  1.0000
  H   H62       1.0  0.05698  0.11471  0.94163  1.0000
  H   H63       1.0  0.04677  0.20060  0.78722  1.0000
  C   C37       1.0  0.09765  0.16234  0.93552  1.0000
  C   C38       1.0  0.50279  0.21843  0.77683  1.0000
  H   H64       1.0  0.27327  0.29051  0.94389  1.0000
  H   H65       1.0  0.46706  0.27970  0.69846  1.0000
  H   H66       1.0  0.33248  0.30850  0.84902  1.0000
  H   H67       1.0  0.01613  0.18216  0.64332  1.0000
  H   H68       1.0  0.01159  0.15353  0.88137  1.0000
  H   H69       1.0  0.06972  0.08056  0.86632  1.0000
  C   C39       1.0  0.26483  0.26911  0.72499  1.0000
  C   C40       1.0  0.27609  0.24858  0.74547  1.0000
  C   C41       1.0  0.25942  0.23623  0.76968  1.0000
  C   C42       1.0  0.23127  0.24411  0.77387  1.0000
  C   C43       1.0  0.21999  0.26467  0.75345  1.0000
  C   C44       1.0  0.23674  0.27709  0.72938  1.0000
  H   H70       1.0  0.29760  0.24216  0.74257  1.0000
  H   H71       1.0  0.26838  0.22033  0.78512  1.0000
  H   H72       1.0  0.19827  0.27091  0.75587  1.0000
  H   H73       1.0  0.22772  0.29291  0.71366  1.0000
  H   H74       1.0  0.14451  0.03335  0.96148  1.0000
  H   H75       1.0  0.09827  0.12882  0.91064  1.0000
  H   H76       1.0  0.01237  0.01390  0.94795  1.0000
  S   S18       1.0  0.33405  0.28035  0.50729  1.0000
  H   H77       1.0  0.45717  0.24219  0.65673  1.0000
  H   H78       1.0  0.05940  0.03681  0.94903  1.0000
  N   N3        1.0  0.48447  0.22527  0.62013  1.0000
  C   C45       1.0  0.24894  0.28778  0.92030  1.0000
  H   H79       1.0  0.40611  0.18598  0.54586  1.0000
  H   H80       1.0  0.25586  0.25555  0.57330  1.0000
  C   C46       1.0  0.08420  0.17650  0.96012  1.0000
  C   C47       1.0  0.01287  0.99842  0.96665  1.0000
  H   H81       1.0  0.42822  0.22344  0.53844  1.0000
  N   N4        1.0  0.47822  0.27461  0.90037  1.0000
  C   C48       1.0  0.25516  0.26376  0.53985  1.0000
  C   C49       1.0  0.00793  0.21092  0.59881  1.0000
  C   C50       1.0  0.07355  0.27061  0.97152  1.0000
  H   H82       1.0  0.44100  0.20550  0.82648  1.0000
  C   C51       1.0  0.49350  0.22996  0.57707  1.0000
  C   C52       1.0  0.48583  0.28282  0.68296  1.0000
  Fe  Fe8       1.0  0.39243  0.29910  0.68030  1.0000
  H   H83       1.0  0.00469  0.15822  0.57892  1.0000
  H   H84       1.0  0.28529  0.24960  0.95341  1.0000
  H   H85       1.0  0.47617  0.29258  0.65007  1.0000
  H   H86       1.0  0.49280  0.30072  0.86226  1.0000
  H   H87       1.0  0.04327  0.05995  0.87562  1.0000
  H   H88       1.0  0.24820  0.29341  0.82567  1.0000
  C   C53       1.0  0.48543  0.18021  0.76332  1.0000
  C   C54       1.0  0.47414  0.24633  0.63816  1.0000
  H   H89       1.0  0.15203  0.30470  0.77757  1.0000
  C   C55       1.0  0.06827  0.06390  0.88174  1.0000
  H   H90       1.0  0.05104  0.21586  0.65751  1.0000
  H   H91       1.0  0.46119  0.25723  0.60824  1.0000
  H   H92       1.0  0.49008  0.16254  0.76814  1.0000
  H   H93       1.0  0.23458  0.28702  0.94394  1.0000
  C   C56       1.0  0.05184  0.14586  0.97293  1.0000
  C   C57       1.0  0.44790  0.28604  0.89705  1.0000
  C   C58       1.0  0.49946  0.26081  0.67361  1.0000
  H   H94       1.0  0.39599  0.19576  0.59578  1.0000
  C   C59       1.0  0.26003  0.24656  0.93559  1.0000
  H   H95       1.0  0.43427  0.30379  0.82979  1.0000
  H   H96       1.0  0.02049  0.23552  0.65477  1.0000
  C   C60       1.0  0.45708  0.20924  0.60643  1.0000
  H   H97       1.0  0.05118  0.26439  0.94674  1.0000
  C   C61       1.0  0.02359  0.20639  0.76783  1.0000
  H   H98       1.0  0.07580  0.99673  0.96334  1.0000
  H   H99       1.0  0.11740  0.99740  0.97953  1.0000
  H   H100      1.0  0.14086  0.31425  0.82679  1.0000
  H   H101      1.0  0.46241  0.19421  0.58914  1.0000
  H   H102      1.0  0.45198  0.20609  0.88952  1.0000
  H   H103      1.0  0.23316  0.29284  0.55422  1.0000
  C   C62       1.0  0.29195  0.30629  0.87188  1.0000
  C   C63       1.0  0.39337  0.29859  0.84895  1.0000
  C   C64       1.0  0.08789  0.13993  0.92944  1.0000
  N   N5        1.0  0.23844  0.30681  0.88610  1.0000
  H   H104      1.0  0.11101  0.06861  0.93822  1.0000
  C   C65       1.0  0.02195  0.21952  0.89888  1.0000
  S   S19       1.0  0.00945  0.07314  0.94811  1.0000
  H   H105      1.0  0.03359  0.22697  0.87504  1.0000
  H   H106      1.0  0.48142  0.20863  0.86103  1.0000
  C   C66       1.0  0.25443  0.28903  0.54526  1.0000
  H   H107      1.0  0.46498  0.24462  0.92959  1.0000
  C   C67       1.0  0.20417  0.30381  0.85945  1.0000
  C   C68       1.0  0.03182  0.22586  0.63357  1.0000
  H   H108      1.0  0.01172  0.18956  0.85852  1.0000
  H   H109      1.0  0.47203  0.27897  0.82611  1.0000
  H   H110      1.0  0.09373  0.02905  0.93782  1.0000
  H   H111      1.0  0.38267  0.28598  0.86621  1.0000
  H   H112      1.0  0.29973  0.29040  0.89091  1.0000
  H   H113      1.0  0.09418  0.23836  0.98067  1.0000
  H   H114      1.0  0.43526  0.27648  0.91709  1.0000
  H   H115      1.0  0.22163  0.25996  0.88028  1.0000
  H   H116      1.0  0.07810  0.05138  0.86352  1.0000
  H   H117      1.0  0.04001  0.21217  0.92951  1.0000
  H   H118      1.0  0.25707  0.22991  0.91870  1.0000
  H   H119      1.0  0.09169  0.19367  0.96519  1.0000
  H   H120      1.0  0.23409  0.25784  0.51165  1.0000
  C   C69       1.0  0.06470  0.13182  0.94731  1.0000
  C   C70       1.0  0.40001  0.20087  0.56271  1.0000
  H   H121      1.0  0.27536  0.29361  0.57498  1.0000
  C   C71       1.0  0.42478  0.29054  0.84719  1.0000
  H   H122      1.0  0.41776  0.23304  0.58770  1.0000
  H   H123      1.0  0.45224  0.20304  0.63832  1.0000
  H   H124      1.0  0.42058  0.27562  0.82476  1.0000
  C   C72       1.0  0.24644  0.26431  0.89820  1.0000
  H   H125      1.0  0.19096  0.29926  0.88357  1.0000
  C   C73       1.0  0.45325  0.23842  0.85654  1.0000
  H   H126      1.0  0.45808  0.24434  0.82484  1.0000
  C   C74       1.0  0.45725  0.21313  0.85878  1.0000
  H   H127      1.0  0.25904  0.26330  0.87236  1.0000
  H   H128      1.0  0.01960  0.20328  0.57553  1.0000
  H   H129      1.0  0.47424  0.23856  0.54995  1.0000
  H   H130      1.0  0.24772  0.24641  0.96198  1.0000
  H   H131      1.0  0.00974  0.23298  0.91095  1.0000
  H   H132      1.0  0.27631  0.25877  0.53149  1.0000
  H   H133      1.0  0.01395  0.11729  0.84577  1.0000
  C   C75       1.0  0.25335  0.30106  0.49917  1.0000
  H   H134      1.0  0.39627  0.31463  0.86799  1.0000
  C   C76       1.0  0.06184  0.16820  0.97942  1.0000
  C   C77       1.0  0.30677  0.30789  0.83314  1.0000
  H   H135      1.0  0.30039  0.29311  0.80985  1.0000
  C   C78       1.0  0.25590  0.30730  0.85116  1.0000
  H   H136      1.0  0.08791  0.27719  0.95065  1.0000
  C   C79       1.0  0.48958  0.28225  0.86086  1.0000
  H   H137      1.0  0.07653  0.07767  0.94973  1.0000
  C   C80       1.0  0.08647  0.06422  0.93422  1.0000
  H   H138      1.0  0.49805  0.24153  0.91182  1.0000
  H   H139      1.0  0.47179  0.28502  0.98981  1.0000
  C   C81       1.0  0.50240  0.28175  0.94585  1.0000
  H   H140      1.0  0.50416  0.29302  0.70818  1.0000
  C   C82       1.0  0.49410  0.27711  0.99125  1.0000
  H   H141      1.0  0.39949  0.29629  0.98919  1.0000
  Fe  Fe9       1.0  0.25591  0.60490  0.17802  1.0000
  S   S20       1.0  0.29491  0.62434  0.22868  1.0000
  S   S21       1.0  0.21169  0.62461  0.14147  1.0000
  Fe  Fe10      1.0  0.29367  0.56131  0.19554  1.0000
  S   S22       1.0  0.33551  0.57831  0.24622  1.0000
  S   S23       1.0  0.30235  0.52588  0.17434  1.0000
  Fe  Fe11      1.0  0.30172  0.59469  0.27653  1.0000
  S   S24       1.0  0.31361  0.59402  0.35664  1.0000
  Fe  Fe12      1.0  0.32517  0.60653  0.19460  1.0000
  S   S25       1.0  0.35808  0.62698  0.16837  1.0000
  S   S26       1.0  0.26008  0.57600  0.22856  1.0000
  S   S27       1.0  0.28595  0.58876  0.14137  1.0000
  Fe  Fe13      1.0  0.46174  0.58049  0.04039  1.0000
  H   H142      1.0  0.35221  0.39445  0.02813  1.0000
  S   S28       1.0  0.45924  0.57244  0.11212  1.0000
  H   H143      1.0  0.26714  0.59313  0.41833  1.0000
  Fe  Fe14      1.0  0.28155  0.34841  0.17774  1.0000
  Fe  Fe15      1.0  0.27639  0.39710  0.20691  1.0000
  S   S29       1.0  0.32465  0.39655  0.25781  1.0000
  S   S30       1.0  0.24945  0.42956  0.20349  1.0000
  Fe  Fe16      1.0  0.33762  0.37966  0.20098  1.0000
  S   S31       1.0  0.37686  0.39619  0.18195  1.0000
  Fe  Fe17      1.0  0.31335  0.36265  0.28061  1.0000
  S   S32       1.0  0.32867  0.35949  0.36113  1.0000
  S   S33       1.0  0.28964  0.38168  0.14820  1.0000
  S   S34       1.0  0.26354  0.36391  0.23242  1.0000
  H   H144      1.0  0.46421  0.42842  0.11817  1.0000
  Fe  Fe18      1.0  0.48367  0.36047  0.04767  1.0000
  S   S35       1.0  0.46603  0.34194  0.09949  1.0000
  H   H145      1.0  0.32485  0.51062  0.37311  1.0000
  C   C83       1.0  0.36668  0.44755  0.40950  1.0000
  C   C84       1.0  0.44252  0.35689  0.12494  1.0000
  C   C85       1.0  0.42243  0.34545  0.14419  1.0000
  C   C86       1.0  0.40199  0.35727  0.16181  1.0000
  C   C87       1.0  0.40231  0.38056  0.16138  1.0000
  C   C88       1.0  0.42315  0.39194  0.14354  1.0000
  C   C89       1.0  0.44299  0.38012  0.12493  1.0000
  C   C90       1.0  0.48247  0.51146  0.20466  1.0000
  H   H146      1.0  0.38614  0.34841  0.17590  1.0000
  H   H147      1.0  0.42350  0.40994  0.14345  1.0000
  H   H148      1.0  0.45864  0.38887  0.11044  1.0000
  C   C91       1.0  0.34563  0.34036  0.44909  1.0000
  H   H149      1.0  0.41532  0.42209  0.04521  1.0000
  H   H150      1.0  0.31588  0.42480  0.35823  1.0000
  H   H151      1.0  0.36253  0.51280  0.09555  1.0000
  C   C92       1.0  0.28658  0.49941  0.18198  1.0000
  C   C93       1.0  0.26106  0.49705  0.19815  1.0000
  C   C94       1.0  0.24984  0.47560  0.20424  1.0000
  C   C95       1.0  0.26407  0.45627  0.19461  1.0000
  C   C96       1.0  0.28952  0.45867  0.17835  1.0000
  C   C97       1.0  0.30065  0.48008  0.17210  1.0000
  H   H152      1.0  0.24987  0.51172  0.20572  1.0000
  H   H153      1.0  0.23001  0.47397  0.21649  1.0000
  H   H154      1.0  0.30067  0.44400  0.17062  1.0000
  H   H155      1.0  0.32041  0.48165  0.15965  1.0000
  C   C98       1.0  0.31937  0.61640  0.39736  1.0000
  C   C99       1.0  0.31395  0.33981  0.06907  1.0000
  H   H156      1.0  0.24627  0.43661  0.31972  1.0000
  H   H157      1.0  0.47029  0.54534  0.21707  1.0000
  H   H158      1.0  0.28063  0.32790  0.44911  1.0000
  S   S36       1.0  0.33111  0.34562  0.22777  1.0000
  C   C100      1.0  0.38782  0.61213  0.15625  1.0000
  C   C101      1.0  0.40509  0.62254  0.13096  1.0000
  C   C102      1.0  0.42675  0.61040  0.11665  1.0000
  C   C103      1.0  0.43231  0.58806  0.12963  1.0000
  C   C104      1.0  0.41638  0.57801  0.15734  1.0000
  C   C105      1.0  0.39381  0.58991  0.17001  1.0000
  H   H159      1.0  0.40119  0.63994  0.12151  1.0000
  H   H160      1.0  0.43955  0.61846  0.09636  1.0000
  H   H161      1.0  0.42089  0.56086  0.16813  1.0000
  H   H162      1.0  0.38091  0.58184  0.19016  1.0000
  C   C106      1.0  0.21740  0.62971  0.05283  1.0000
  C   C107      1.0  0.20146  0.63562  0.08366  1.0000
  H   H163      1.0  0.23636  0.61797  0.06402  1.0000
  H   H164      1.0  0.36629  0.54962  0.03040  1.0000
  C   C108      1.0  0.37153  0.38740  0.01766  1.0000
  S   S37       1.0  0.46433  0.39213  0.01000  1.0000
  H   H165      1.0  0.34712  0.33323  0.01481  1.0000
  H   H166      1.0  0.24079  0.58988  0.33419  1.0000
  H   H167      1.0  0.39356  0.46301  0.32271  1.0000
  H   H168      1.0  0.29836  0.46640  0.36864  1.0000
  C   C109      1.0  0.39425  0.45110  0.45432  1.0000
  H   H169      1.0  0.27216  0.57508  0.48431  1.0000
  H   H170      1.0  0.45971  0.52802  0.13803  1.0000
  H   H171      1.0  0.37307  0.52867  0.14903  1.0000
  H   H172      1.0  0.37634  0.63081  0.03751  1.0000
  H   H173      1.0  0.13265  0.58722  0.42589  1.0000
  S   S38       1.0  0.44495  0.61152  0.99864  1.0000
  H   H174      1.0  0.42743  0.47116  0.06015  1.0000
  C   C110      1.0  0.37047  0.52941  0.11111  1.0000
  C   C111      1.0  0.33543  0.62856  0.47948  1.0000
  H   H175      1.0  0.36581  0.58740  0.04623  1.0000
  H   H176      1.0  0.34699  0.44128  0.42036  1.0000
  H   H177      1.0  0.34909  0.48059  0.40484  1.0000
  H   H178      1.0  0.47155  0.49382  0.04738  1.0000
  H   H179      1.0  0.23516  0.57784  0.02544  1.0000
  H   H180      1.0  0.21410  0.33186  0.33483  1.0000
  C   C112      1.0  0.15660  0.58327  0.44907  1.0000
  C   C113      1.0  0.42610  0.48950  0.05562  1.0000
  C   C114      1.0  0.33204  0.61173  0.44563  1.0000
  H   H181      1.0  0.30047  0.64217  0.34643  1.0000
  C   C115      1.0  0.23306  0.33807  0.36592  1.0000
  C   C116      1.0  0.32789  0.35861  0.04768  1.0000
  C   C117      1.0  0.20981  0.32245  0.06308  1.0000
  H   H182      1.0  0.33938  0.59494  0.45689  1.0000
  H   H183      1.0  0.38848  0.46361  0.47720  1.0000
  H   H184      1.0  0.50305  0.43038  0.16041  1.0000
  N   N6        1.0  0.23664  0.61498  0.48137  1.0000
  H   H185      1.0  0.35529  0.35661  0.46120  1.0000
  H   H186      1.0  0.17795  0.60526  0.41215  1.0000
  H   H187      1.0  0.38533  0.48598  0.99361  1.0000
  H   H188      1.0  0.48205  0.49487  0.22090  1.0000
  C   C118      1.0  0.35743  0.46962  0.38190  1.0000
  H   H189      1.0  0.47769  0.45759  0.06937  1.0000
  C   C119      1.0  0.35428  0.35002  0.03000  1.0000
  H   H190      1.0  0.29505  0.34650  0.08095  1.0000
  C   C120      1.0  0.21210  0.59792  0.48173  1.0000
  C   C121      1.0  0.26673  0.42829  0.34504  1.0000
  C   C122      1.0  0.46403  0.51068  0.15140  1.0000
  H   H191      1.0  0.15588  0.58018  0.48507  1.0000
  C   C123      1.0  0.34007  0.58992  0.03168  1.0000
  C   C124      1.0  0.34263  0.54918  0.03430  1.0000
  H   H192      1.0  0.37646  0.43317  0.03308  1.0000
  H   H193      1.0  0.44306  0.52425  0.22331  1.0000
  H   H194      1.0  0.25798  0.63065  0.43434  1.0000
  C   C125      1.0  0.34660  0.54721  0.08728  1.0000
  C   C126      1.0  0.33146  0.33674  0.40064  1.0000
  H   H195      1.0  0.35422  0.56314  0.10571  1.0000
  C   C127      1.0  0.40858  0.49420  0.00392  1.0000
  H   H196      1.0  0.21738  0.35676  0.99321  1.0000
  C   C128      1.0  0.23818  0.61924  0.43277  1.0000
  H   H197      1.0  0.22714  0.58457  0.40656  1.0000
  H   H198      1.0  0.41193  0.49618  0.07625  1.0000
  H   H199      1.0  0.33288  0.59427  0.06259  1.0000
  C   C129      1.0  0.23527  0.60436  0.35284  1.0000
  H   H200      1.0  0.33201  0.33249  0.09993  1.0000
  H   H201      1.0  0.28166  0.54999  0.00289  1.0000
  H   H202      1.0  0.42220  0.32743  0.14457  1.0000
  H   H203      1.0  0.16566  0.32601  0.00789  1.0000
  H   H204      1.0  0.37497  0.34719  0.06161  1.0000
  H   H205      1.0  0.29791  0.54304  0.32798  1.0000
  H   H206      1.0  0.45613  0.46753  0.13712  1.0000
  H   H207      1.0  0.41515  0.45677  0.44576  1.0000
  H   H208      1.0  0.32421  0.54228  0.09218  1.0000
  H   H209      1.0  0.26877  0.43326  0.38133  1.0000
  H   H210      1.0  0.28304  0.64526  0.06698  1.0000
  C   C130      1.0  0.45908  0.50028  0.07087  1.0000
  H   H211      1.0  0.41146  0.35530  0.02104  1.0000
  H   H212      1.0  0.37364  0.43461  0.38887  1.0000
  C   C131      1.0  0.31022  0.63826  0.38336  1.0000
  C   C132      1.0  0.17851  0.60272  0.44887  1.0000
  N   N7        1.0  0.47847  0.49726  0.12173  1.0000
  H   H213      1.0  0.16883  0.61767  0.46046  1.0000
  H   H214      1.0  0.23022  0.35632  0.36867  1.0000
  H   H215      1.0  0.26288  0.40999  0.34170  1.0000
  C   C133      1.0  0.24254  0.59867  0.40479  1.0000
  C   C134      1.0  0.20838  0.63870  0.00711  1.0000
  H   H216      1.0  0.44056  0.50398  0.14848  1.0000
  H   H217      1.0  0.39352  0.53346  0.10749  1.0000
  N   N8        1.0  0.33332  0.46813  0.33382  1.0000
  C   C135      1.0  0.34387  0.45340  0.30151  1.0000
  C   C136      1.0  0.30228  0.45991  0.33649  1.0000
  C   C137      1.0  0.32881  0.49132  0.31291  1.0000
  C   C138      1.0  0.37338  0.46103  0.29021  1.0000
  C   C139      1.0  0.31214  0.50833  0.33527  1.0000
  C   C140      1.0  0.29642  0.43432  0.33415  1.0000
  C   C141      1.0  0.38220  0.44396  0.25930  1.0000
  C   C142      1.0  0.31012  0.53118  0.31186  1.0000
  H   H218      1.0  0.32476  0.45175  0.26749  1.0000
  H   H219      1.0  0.34822  0.43618  0.31528  1.0000
  H   H220      1.0  0.28285  0.46657  0.30628  1.0000
  H   H221      1.0  0.31518  0.49045  0.27495  1.0000
  H   H222      1.0  0.35161  0.49902  0.31495  1.0000
  H   H223      1.0  0.36921  0.47701  0.27053  1.0000
  H   H224      1.0  0.28795  0.50292  0.33111  1.0000
  H   H225      1.0  0.29318  0.42837  0.29816  1.0000
  H   H226      1.0  0.38770  0.42762  0.27751  1.0000
  H   H227      1.0  0.36278  0.44163  0.22582  1.0000
  H   H228      1.0  0.40305  0.44982  0.25089  1.0000
  H   H229      1.0  0.29691  0.53007  0.27383  1.0000
  H   H230      1.0  0.39140  0.38566  0.05064  1.0000
  H   H231      1.0  0.33378  0.53796  0.31646  1.0000
  C   C143      1.0  0.47945  0.47320  0.13661  1.0000
  H   H232      1.0  0.37900  0.47786  0.37983  1.0000
  H   H233      1.0  0.33734  0.37133  0.07547  1.0000
  H   H234      1.0  0.20820  0.33826  0.07919  1.0000
  N   N9        1.0  0.36286  0.36480  0.99528  1.0000
  H   H235      1.0  0.45567  0.51832  0.06213  1.0000
  C   C144      1.0  0.25864  0.33372  0.45389  1.0000
  H   H236      1.0  0.24953  0.61875  0.34829  1.0000
  C   C145      1.0  0.23158  0.32612  0.41009  1.0000
  H   H237      1.0  0.16433  0.56789  0.43580  1.0000
  C   C146      1.0  0.39333  0.42638  0.01700  1.0000
  C   C147      1.0  0.29160  0.56692  0.01327  1.0000
  H   H238      1.0  0.33177  0.53316  0.01894  1.0000
  H   H239      1.0  0.25573  0.33490  0.36040  1.0000
  H   H240      1.0  0.21710  0.62839  0.41121  1.0000
  H   H241      1.0  0.50083  0.53607  0.08653  1.0000
  H   H242      1.0  0.34415  0.63287  0.06061  1.0000
  H   H243      1.0  0.30883  0.36628  0.01896  1.0000
  H   H244      1.0  0.21020  0.60838  0.33646  1.0000
  C   C148      1.0  0.46808  0.52816  0.22962  1.0000
  H   H245      1.0  0.39993  0.43514  0.47398  1.0000
  C   C149      1.0  0.35062  0.63156  0.02824  1.0000
  C   C150      1.0  0.34751  0.32318  0.48208  1.0000
  H   H246      1.0  0.29297  0.56854  0.05063  1.0000
  H   H247      1.0  0.49514  0.47120  0.17339  1.0000
  H   H248      1.0  0.20861  0.32959  0.41417  1.0000
  C   C151      1.0  0.49134  0.45658  0.10716  1.0000
  H   H249      1.0  0.30375  0.32655  0.04294  1.0000
  H   H250      1.0  0.21815  0.58118  0.47211  1.0000
  H   H251      1.0  0.25948  0.35223  0.45219  1.0000
  H   H252      1.0  0.48054  0.52755  0.26797  1.0000
  H   H253      1.0  0.34245  0.64674  0.00699  1.0000
  C   C152      1.0  0.32549  0.65026  0.46559  1.0000
  H   H254      1.0  0.40515  0.51239  0.99768  1.0000
  C   C153      1.0  0.48888  0.43266  0.12298  1.0000
  H   H255      1.0  0.49765  0.42106  0.10163  1.0000
  C   C154      1.0  0.33590  0.61100  0.00003  1.0000
  N   N10       1.0  0.32371  0.56875  0.00878  1.0000
  H   H256      1.0  0.20527  0.64287  0.47585  1.0000
  H   H257      1.0  0.27367  0.60095  0.00356  1.0000
  H   H258      1.0  0.22467  0.35366  0.49185  1.0000
  H   H259      1.0  0.20765  0.32712  0.49197  1.0000
  H   H260      1.0  0.39864  0.43945  0.99445  1.0000
  S   S39       1.0  0.37790  0.59974  0.68961  1.0000
  Fe  Fe19      1.0  0.42002  0.58844  0.94043  1.0000
  S   S40       1.0  0.37104  0.59564  0.89412  1.0000
  Fe  Fe20      1.0  0.46319  0.37349  0.94533  1.0000
  S   S41       1.0  0.41854  0.37417  0.88505  1.0000
  C   C155      1.0  0.42233  0.35970  0.83704  1.0000
  C   C156      1.0  0.45189  0.35522  0.83433  1.0000
  C   C157      1.0  0.45479  0.34414  0.79523  1.0000
  H   H261      1.0  0.47252  0.36056  0.86194  1.0000
  H   H262      1.0  0.47766  0.34092  0.79285  1.0000
  C   C158      1.0  0.37229  0.59534  0.74379  1.0000
  C   C159      1.0  0.34980  0.60758  0.75548  1.0000
  C   C160      1.0  0.34850  0.60685  0.80119  1.0000
  C   C161      1.0  0.36947  0.59370  0.83530  1.0000
  C   C162      1.0  0.39023  0.58000  0.82256  1.0000
  C   C163      1.0  0.39169  0.58085  0.77679  1.0000
  C   C164      1.0  0.31262  0.37456  0.86341  1.0000
  H   H263      1.0  0.40530  0.56884  0.84799  1.0000
  H   H264      1.0  0.40849  0.57085  0.76742  1.0000
  H   H265      1.0  0.21808  0.59151  0.96977  1.0000
  H   H266      1.0  0.33366  0.61792  0.72941  1.0000
  C   C165      1.0  0.23118  0.34108  0.56091  1.0000
  H   H267      1.0  0.49505  0.63426  0.70624  1.0000
  C   C166      1.0  0.39858  0.34076  0.76293  1.0000
  H   H268      1.0  0.20198  0.35128  0.60153  1.0000
  H   H269      1.0  0.23902  0.32621  0.58334  1.0000
  C   C167      1.0  0.15373  0.31870  0.80225  1.0000
  H   H270      1.0  0.30172  0.39029  0.86932  1.0000
  H   H271      1.0  0.28708  0.61678  0.50577  1.0000
  H   H272      1.0  0.19938  0.32868  0.80340  1.0000
  C   C168      1.0  0.48183  0.58375  0.80546  1.0000
  S   S42       1.0  0.43229  0.32252  0.71179  1.0000
  H   H273      1.0  0.22054  0.63379  0.98331  1.0000
  H   H274      1.0  0.21124  0.59594  0.51809  1.0000
  H   H275      1.0  0.31796  0.36045  0.61283  1.0000
  H   H276      1.0  0.39949  0.36502  0.96363  1.0000
  C   C169      1.0  0.24467  0.32836  0.91316  1.0000
  S   S43       1.0  0.43284  0.55771  0.98421  1.0000
  H   H277      1.0  0.33239  0.38015  0.57934  1.0000
  C   C170      1.0  0.26813  0.60802  0.51472  1.0000
  H   H278      1.0  0.31477  0.64456  0.91521  1.0000
  H   H279      1.0  0.39718  0.40030  0.97138  1.0000
  H   H280      1.0  0.34761  0.60870  0.97325  1.0000
  C   C171      1.0  0.26743  0.58444  0.98660  1.0000
  C   C172      1.0  0.49407  0.49992  0.96559  1.0000
  H   H281      1.0  0.14247  0.33351  0.78160  1.0000
  H   H282      1.0  0.34546  0.35172  0.58431  1.0000
  C   C173      1.0  0.32301  0.56769  0.95838  1.0000
  H   H283      1.0  0.31489  0.58633  0.58433  1.0000
  H   H284      1.0  0.28709  0.32852  0.57336  1.0000
  H   H285      1.0  0.22697  0.56227  0.97143  1.0000
  H   H286      1.0  0.44545  0.59841  0.66222  1.0000
  H   H287      1.0  0.29572  0.36061  0.85908  1.0000
  C   C174      1.0  0.22919  0.33701  0.50914  1.0000
  H   H288      1.0  0.40149  0.63939  0.83181  1.0000
  H   H289      1.0  0.37278  0.35588  0.80353  1.0000
  H   H290      1.0  0.27873  0.36845  0.53363  1.0000
  H   H291      1.0  0.45676  0.47978  0.92092  1.0000
  Fe  Fe21      1.0  0.36254  0.63466  0.66718  1.0000
  H   H292      1.0  0.32057  0.35117  0.94577  1.0000
  H   H293      1.0  0.47145  0.62896  0.85966  1.0000
  H   H294      1.0  0.49769  0.60508  0.72247  1.0000
  C   C175      1.0  0.34239  0.36998  0.90420  1.0000
  H   H295      1.0  0.36265  0.32565  0.95222  1.0000
  H   H296      1.0  0.31465  0.56083  0.55293  1.0000
  H   H297      1.0  0.47331  0.57976  0.76748  1.0000
  S   S44       1.0  0.31534  0.64296  0.61799  1.0000
  H   H298      1.0  0.26568  0.58565  0.94917  1.0000
  C   C176      1.0  0.33523  0.36646  0.95079  1.0000
  C   C177      1.0  0.31582  0.64965  0.88024  1.0000
  H   H299      1.0  0.37799  0.33502  0.73553  1.0000
  H   H300      1.0  0.30647  0.32156  0.53369  1.0000
  H   H301      1.0  0.24800  0.35472  0.57627  1.0000
  H   H302      1.0  0.35314  0.35491  0.89501  1.0000
  H   H303      1.0  0.31079  0.58222  0.93794  1.0000
  H   H304      1.0  0.33203  0.61719  0.81019  1.0000
  C   C178      1.0  0.22671  0.33146  0.94858  1.0000
  H   H305      1.0  0.29867  0.60624  0.85334  1.0000
  N   N11       1.0  0.25693  0.32612  0.50092  1.0000
  C   C179      1.0  0.50263  0.64711  0.80223  1.0000
  C   C180      1.0  0.30742  0.54685  0.92995  1.0000
  N   N12       1.0  0.48162  0.62674  0.79444  1.0000
  H   H306      1.0  0.29561  0.53374  0.85922  1.0000
  C   C181      1.0  0.38743  0.33059  0.96819  1.0000
  H   H307      1.0  0.32083  0.53156  0.94404  1.0000
  H   H308      1.0  0.35861  0.38408  0.90630  1.0000
  C   C182      1.0  0.48929  0.45964  0.97391  1.0000
  H   H309      1.0  0.29194  0.56353  0.86176  1.0000
  C   C183      1.0  0.48158  0.61924  0.70985  1.0000
  C   C184      1.0  0.45899  0.62997  0.82120  1.0000
  C   C185      1.0  0.30623  0.54899  0.87881  1.0000
  H   H310      1.0  0.33011  0.55105  0.87663  1.0000
  H   H311      1.0  0.31111  0.61464  0.98146  1.0000
  H   H312      1.0  0.44457  0.61119  0.73862  1.0000
  H   H313      1.0  0.12330  0.63824  0.73439  1.0000
  C   C186      1.0  0.29818  0.35679  0.53684  1.0000
  H   H314      1.0  0.24002  0.34289  0.88880  1.0000
  C   C187      1.0  0.46289  0.62425  0.74327  1.0000
  C   C188      1.0  0.47783  0.47982  0.95095  1.0000
  C   C189      1.0  0.42815  0.33685  0.75965  1.0000
  H   H315      1.0  0.39790  0.32990  0.93966  1.0000
  C   C190      1.0  0.49302  0.43934  0.85352  1.0000
  H   H316      1.0  0.44408  0.62746  0.64559  1.0000
  C   C191      1.0  0.39566  0.35254  0.80132  1.0000
  H   H317      1.0  0.18219  0.33438  0.55140  1.0000
  C   C192      1.0  0.27856  0.61712  0.85118  1.0000
  Fe  Fe22      1.0  0.48628  0.60740  0.97334  1.0000
  H   H318      1.0  0.19117  0.36333  0.54357  1.0000
  H   H319      1.0  0.18798  0.33866  0.85166  1.0000
  H   H320      1.0  0.48849  0.54879  0.82451  1.0000
  H   H321      1.0  0.28836  0.64232  0.80684  1.0000
  H   H322      1.0  0.26120  0.57397  0.53648  1.0000
  H   H323      1.0  0.28316  0.54468  0.93014  1.0000
  H   H324      1.0  0.31958  0.38015  0.95390  1.0000
  C   C193      1.0  0.19963  0.34795  0.56433  1.0000
  H   H325      1.0  0.23640  0.32019  0.97909  1.0000
  H   H326      1.0  0.46148  0.58423  0.81787  1.0000
  H   H327      1.0  0.26973  0.32981  0.93424  1.0000
  H   H328      1.0  0.21964  0.36727  0.93836  1.0000
  C   C194      1.0  0.32512  0.36256  0.58113  1.0000
  H   H329      1.0  0.44104  0.61654  0.81306  1.0000
  S   S45       1.0  0.45986  0.58614  0.91246  1.0000
  H   H330      1.0  0.27071  0.61328  0.55119  1.0000
  H   H331      1.0  0.31843  0.37632  0.83048  1.0000
  H   H332      1.0  0.33515  0.63965  0.87574  1.0000
  H   H333      1.0  0.47680  0.44422  0.96202  1.0000
  H   H334      1.0  0.34731  0.56874  0.95715  1.0000
  C   C195      1.0  0.22994  0.35525  0.96729  1.0000
  C   C196      1.0  0.45980  0.61333  0.66087  1.0000
  Fe  Fe23      1.0  0.47487  0.55674  0.96095  1.0000
  C   C197      1.0  0.28749  0.33221  0.53756  1.0000
  H   H335      1.0  0.25805  0.61113  0.82206  1.0000
  H   H336      1.0  0.27312  0.61574  0.88445  1.0000
  C   C198      1.0  0.50026  0.60610  0.81421  1.0000
  H   H337      1.0  0.20148  0.32786  0.93280  1.0000
  H   H338      1.0  0.47369  0.60968  0.63752  1.0000
  C   C199      1.0  0.27598  0.58283  0.51891  1.0000
  H   H339      1.0  0.35842  0.41109  0.95912  1.0000
  C   C200      1.0  0.18780  0.32400  0.82934  1.0000
  H   H340      1.0  0.44975  0.63976  0.72951  1.0000
  H   H341      1.0  0.22492  0.63383  0.53431  1.0000
  H   H342      1.0  0.34545  0.62471  0.51641  1.0000
  H   H343      1.0  0.35859  0.32629  0.51909  1.0000
  H   H344      1.0  0.30664  0.35962  0.50655  1.0000
  H   H345      1.0  0.32600  0.58653  0.53193  1.0000
  C   C201      1.0  0.28567  0.64134  0.84212  1.0000
  C   C202      1.0  0.30993  0.57898  0.54885  1.0000
  H   H346      1.0  0.29920  0.32320  0.81170  1.0000
  C   C203      1.0  0.50235  0.56449  0.83103  1.0000
  H   H347      1.0  0.47764  0.40467  0.84052  1.0000
  S   S46       1.0  0.48321  0.52393  0.93022  1.0000
  H   H348      1.0  0.25019  0.32267  0.82940  1.0000
  H   H349      1.0  0.25477  0.35954  0.98512  1.0000
  H   H350      1.0  0.46404  0.41877  0.88309  1.0000
  H   H351      1.0  0.49688  0.44103  0.81916  1.0000
  S   S47       1.0  0.47856  0.34121  0.98226  1.0000
  H   H352      1.0  0.44694  0.42486  0.82158  1.0000
  H   H353      1.0  0.30132  0.32021  0.89636  1.0000
  H   H354      1.0  0.42167  0.48760  0.98148  1.0000
  H   H355      1.0  0.48251  0.45495  0.86100  1.0000
  C   C204      1.0  0.46907  0.42074  0.84959  1.0000
  C   C205      1.0  0.23499  0.57857  0.98851  1.0000
  C   C206      1.0  0.22795  0.63659  0.49940  1.0000
  C   C207      1.0  0.39131  0.35476  0.98788  1.0000
  C   C208      1.0  0.37979  0.40582  0.98745  1.0000
  C   C209      1.0  0.28486  0.73174  0.11285  1.0000
  H   H356      1.0  0.29094  0.66076  0.02077  1.0000
  C   C210      1.0  0.20070  0.72580  0.08740  1.0000
  H   H357      1.0  0.19126  0.74210  0.01943  1.0000
  H   H358      1.0  0.00927  0.79514  0.38223  1.0000
  C   C211      1.0  0.30354  0.75191  0.13807  1.0000
  H   H359      1.0  0.26695  0.73805  0.08081  1.0000
  C   C212      1.0  0.09920  0.97417  0.01848  1.0000
  C   C213      1.0  0.01413  0.97860  0.03722  1.0000
  H   H360      1.0  0.24565  0.67669  0.03537  1.0000
  H   H361      1.0  0.25832  0.73112  0.16119  1.0000
  C   C214      1.0  0.22233  0.70722  0.08027  1.0000
  N   N13       1.0  0.24844  0.69994  0.12333  1.0000
  H   H362      1.0  0.00924  0.82513  0.38509  1.0000
  H   H363      1.0  0.22139  0.70524  0.17007  1.0000
  C   C215      1.0  0.23385  0.69162  0.15889  1.0000
  H   H364      1.0  0.18623  0.71945  0.10822  1.0000
  H   H365      1.0  0.25609  0.66498  0.26848  1.0000
  C   C216      1.0  0.27021  0.71891  0.14521  1.0000
  H   H366      1.0  0.29021  0.71273  0.17495  1.0000
  H   H367      1.0  0.27255  0.69490  0.22558  1.0000
  H   H368      1.0  0.27743  0.69604  0.05166  1.0000
  S   S48       1.0  0.01820  0.88130  0.03072  1.0000
  H   H369      1.0  0.21592  0.67861  0.14279  1.0000
  H   H370      1.0  0.21427  0.74048  0.10536  1.0000
  H   H371      1.0  0.32246  0.74661  0.17015  1.0000
  C   C217      1.0  0.01385  0.95813  0.01458  1.0000
  H   H372      1.0  0.25503  0.66451  0.11527  1.0000
  H   H373      1.0  0.31427  0.76062  0.11447  1.0000
  H   H374      1.0  0.28809  0.76383  0.14787  1.0000
  H   H375      1.0  0.30135  0.72086  0.10303  1.0000
  C   C218      1.0  0.17824  0.73380  0.04043  1.0000
  H   H376      1.0  0.23129  0.71297  0.05203  1.0000
  H   H377      1.0  0.01424  0.94262  0.03326  1.0000
  H   H378      1.0  0.29020  0.67978  0.13738  1.0000
  H   H379      1.0  0.20723  0.69268  0.06510  1.0000
  C   C219      1.0  0.25672  0.68178  0.20489  1.0000
  H   H380      1.0  0.16447  0.71965  0.02014  1.0000
  C   C220      1.0  0.29081  0.66167  0.05744  1.0000
  C   C221      1.0  0.26619  0.68074  0.11164  1.0000
  H   H381      1.0  0.27109  0.66839  0.19753  1.0000
  C   C222      1.0  0.26884  0.68013  0.06158  1.0000
  H   H382      1.0  0.22349  0.65817  0.21753  1.0000
  C   C223      1.0  0.31310  0.65502  0.41730  1.0000
  H   H383      1.0  0.22516  0.68488  0.24587  1.0000
  H   H384      1.0  0.30557  0.67178  0.40607  1.0000
  H   H385      1.0  0.16178  0.74612  0.04643  1.0000
  H   H386      1.0  0.12181  0.97235  0.04708  1.0000
  H   H387      1.0  0.07989  0.97260  0.03341  1.0000
  C   C224      1.0  0.16808  0.66016  0.02293  1.0000
  H   H388      1.0  0.01463  0.97877  0.07333  1.0000
  C   C225      1.0  0.23916  0.67190  0.23597  1.0000
  H   H389      1.0  0.31491  0.66508  0.08099  1.0000
  H   H390      1.0  0.14881  0.67166  0.01152  1.0000
  H   H391      1.0  0.25056  0.66242  0.46913  1.0000
  H   H392      1.0  0.09678  0.96040  0.99303  1.0000
  H   H393      1.0  0.40006  0.66444  0.99985  1.0000
  H   H394      1.0  0.16402  0.65533  0.09176  1.0000
  C   C226      1.0  0.17670  0.65081  0.06836  1.0000
  Fe  Fe24      1.0  0.10783  0.72433  0.82019  1.0000
  S   S49       1.0  0.14041  0.75366  0.83507  1.0000
  S   S50       1.0  0.06835  0.73043  0.75114  1.0000
  Fe  Fe25      1.0  0.15341  0.69806  0.90308  1.0000
  S   S51       1.0  0.18738  0.72666  0.92214  1.0000
  H   H395      1.0  0.15084  0.73201  0.74648  1.0000
  Fe  Fe26      1.0  0.14476  0.74806  0.91036  1.0000
  S   S52       1.0  0.14504  0.77937  0.95300  1.0000
  Fe  Fe27      1.0  0.17939  0.72936  0.84478  1.0000
  S   S53       1.0  0.21851  0.73570  0.81375  1.0000
  S   S54       1.0  0.11066  0.71932  0.89595  1.0000
  S   S55       1.0  0.14693  0.70033  0.82568  1.0000
  Fe  Fe28      1.0  0.31438  0.66994  0.66935  1.0000
  C   C227      1.0  0.01399  0.95775  0.96830  1.0000
  S   S56       1.0  0.27032  0.66943  0.69130  1.0000
  Fe  Fe29      1.0  0.38341  0.68294  0.68369  1.0000
  H   H396      1.0  0.11599  0.70093  0.72109  1.0000
  S   S57       1.0  0.42267  0.70131  0.73890  1.0000
  Fe  Fe30      1.0  0.34105  0.66731  0.58695  1.0000
  C   C228      1.0  0.18391  0.65415  0.99205  1.0000
  S   S58       1.0  0.33693  0.69539  0.63502  1.0000
  C   C229      1.0  0.38211  0.67018  0.92429  1.0000
  H   H397      1.0  0.10045  0.79173  0.76765  1.0000
  C   C230      1.0  0.10076  0.70078  0.61912  1.0000
  C   C231      1.0  0.46105  0.70714  0.73850  1.0000
  C   C232      1.0  0.46825  0.70841  0.69686  1.0000
  H   H398      1.0  0.33354  0.69988  0.75501  1.0000
  H   H399      1.0  0.07095  0.68664  0.52675  1.0000
  C   C233      1.0  0.01403  0.97797  0.94473  1.0000
  C   C234      1.0  0.48457  0.71187  0.78116  1.0000
  H   H400      1.0  0.45030  0.70510  0.66376  1.0000
  H   H401      1.0  0.34531  0.67362  0.95443  1.0000
  H   H402      1.0  0.47922  0.71102  0.81356  1.0000
  H   H403      1.0  0.17953  0.70987  0.67811  1.0000
  C   C235      1.0  0.29546  0.68812  0.87978  1.0000
  C   C236      1.0  0.11182  0.78934  0.96534  1.0000
  H   H404      1.0  0.30193  0.70610  0.88354  1.0000
  H   H405      1.0  0.04837  0.85865  0.92216  1.0000
  H   H406      1.0  0.05988  0.87835  0.88553  1.0000
  N   N14       1.0  0.32296  0.67422  0.87940  1.0000
  C   C237      1.0  0.35006  0.67973  0.92264  1.0000
  N   N15       1.0  0.12927  0.70746  0.65930  1.0000
  C   C238      1.0  0.23239  0.71698  0.77964  1.0000
  C   C239      1.0  0.25484  0.72452  0.75996  1.0000
  C   C240      1.0  0.26683  0.71023  0.73308  1.0000
  C   C241      1.0  0.25662  0.68811  0.72578  1.0000
  C   C242      1.0  0.23397  0.68058  0.74520  1.0000
  C   C243      1.0  0.22201  0.69488  0.77214  1.0000
  H   H407      1.0  0.26298  0.74160  0.76539  1.0000
  H   H408      1.0  0.28363  0.71646  0.71747  1.0000
  C   C244      1.0  0.10692  0.80568  0.79300  1.0000
  H   H409      1.0  0.20516  0.68871  0.78772  1.0000
  C   C245      1.0  0.11017  0.81198  0.97618  1.0000
  C   C246      1.0  0.02792  0.73410  0.74228  1.0000
  H   H410      1.0  0.31017  0.67559  0.80379  1.0000
  H   H411      1.0  0.15533  0.69446  0.72780  1.0000
  H   H412      1.0  0.35905  0.70975  0.86067  1.0000
  H   H413      1.0  0.22585  0.66351  0.73971  1.0000
  H   H414      1.0  0.08454  0.85492  0.91013  1.0000
  H   H415      1.0  0.19948  0.66846  0.60023  1.0000
  H   H416      1.0  0.11561  0.71261  0.56018  1.0000
  H   H417      1.0  0.34926  0.66810  0.83211  1.0000
  H   H418      1.0  0.02913  0.74911  0.90536  1.0000
  C   C247      1.0  0.25259  0.69653  0.91434  1.0000
  C   C248      1.0  0.19226  0.68526  0.60784  1.0000
  H   H419      1.0  0.31963  0.71493  0.82422  1.0000
  S   S59       1.0  0.01490  0.93243  0.93937  1.0000
  H   H420      1.0  0.01945  0.85415  0.83541  1.0000
  H   H421      1.0  0.45641  0.66683  0.82149  1.0000
  C   C249      1.0  0.41885  0.65319  0.84129  1.0000
  C   C250      1.0  0.15894  0.70588  0.64706  1.0000
  H   H422      1.0  0.24602  0.67069  0.56744  1.0000
  H   H423      1.0  0.10123  0.68290  0.61053  1.0000
  H   H424      1.0  0.05611  0.84867  0.82674  1.0000
  H   H425      1.0  0.37346  0.69791  0.79298  1.0000
  H   H426      1.0  0.35475  0.72455  0.78129  1.0000
  H   H427      1.0  0.23401  0.69273  0.88071  1.0000
  H   H428      1.0  0.09473  0.81900  0.84997  1.0000
  C   C251      1.0  0.35103  0.70661  0.78713  1.0000
  C   C252      1.0  0.49834  0.71510  0.69780  1.0000
  H   H429      1.0  0.02704  0.71505  0.80241  1.0000
  H   H430      1.0  0.26025  0.68961  0.53254  1.0000
  H   H431      1.0  0.13192  0.80409  0.81425  1.0000
  H   H432      1.0  0.07953  0.70267  0.62981  1.0000
  C   C253      1.0  0.33996  0.70383  0.82959  1.0000
  H   H433      1.0  0.39059  0.67885  0.89823  1.0000
  H   H434      1.0  0.10372  0.82173  0.77356  1.0000
  C   C254      1.0  0.09513  0.71375  0.57249  1.0000
  H   H435      1.0  0.15932  0.71880  0.62063  1.0000
  C   C255      1.0  0.01337  0.72445  0.77210  1.0000
  C   C256      1.0  0.08734  0.77510  0.96539  1.0000
  H   H436      1.0  0.09019  0.73154  0.57656  1.0000
  H   H437      1.0  0.40626  0.66922  0.83409  1.0000
  H   H438      1.0  0.12534  0.74257  0.64081  1.0000
  H   H439      1.0  0.13192  0.66018  0.67174  1.0000
  S   S60       1.0  0.32723  0.67169  0.50713  1.0000
  S   S61       1.0  0.17278  0.66419  0.93347  1.0000
  H   H440      1.0  0.42617  0.65365  0.77483  1.0000
  C   C257      1.0  0.05856  0.80636  0.98286  1.0000
  H   H441      1.0  0.04563  0.70541  0.54419  1.0000
  C   C258      1.0  0.12520  0.73153  0.67043  1.0000
  C   C259      1.0  0.04292  0.84677  0.85165  1.0000
  C   C260      1.0  0.15030  0.74127  0.71433  1.0000
  C   C261      1.0  0.14347  0.76561  0.72141  1.0000
  H   H442      1.0  0.17385  0.74080  0.71079  1.0000
  H   H443      1.0  0.16131  0.77210  0.75353  1.0000
  H   H444      1.0  0.14420  0.77592  0.69111  1.0000
  H   H445      1.0  0.12015  0.76701  0.72562  1.0000
  H   H446      1.0  0.35288  0.69807  0.92768  1.0000
  H   H447      1.0  0.11700  0.66280  0.76385  1.0000
  C   C262      1.0  0.06120  0.78352  0.97506  1.0000
  H   H448      1.0  0.09203  0.78913  0.84550  1.0000
  N   N16       1.0  0.02958  0.80602  0.82410  1.0000
  H   H449      1.0  0.24339  0.69251  0.94341  1.0000
  C   C263      1.0  0.03961  0.82202  0.86463  1.0000
  C   C264      1.0  0.05184  0.80648  0.79622  1.0000
  C   C265      1.0  0.02919  0.78272  0.84302  1.0000
  C   C266      1.0  0.13127  0.69371  0.70239  1.0000
  H   H450      1.0  0.10207  0.73384  0.67544  1.0000
  C   C267      1.0  0.08699  0.80491  0.82517  1.0000
  C   C268      1.0  0.05996  0.86045  0.89509  1.0000
  C   C269      1.0  0.12120  0.66883  0.69481  1.0000
  H   H451      1.0  0.29879  0.68629  0.95422  1.0000
  H   H452      1.0  0.14601  0.67548  0.60316  1.0000
  C   C270      1.0  0.28155  0.68263  0.91936  1.0000
  H   H453      1.0  0.09545  0.66764  0.67851  1.0000
  H   H454      1.0  0.21299  0.69381  0.63214  1.0000
  H   H455      1.0  0.27658  0.68709  0.84545  1.0000
  H   H456      1.0  0.06183  0.81645  0.89051  1.0000
  H   H457      1.0  0.04843  0.82170  0.77392  1.0000
  H   H458      1.0  0.04674  0.79238  0.77091  1.0000
  H   H459      1.0  0.04253  0.77234  0.97556  1.0000
  H   H460      1.0  0.05215  0.77884  0.86945  1.0000
  H   H461      1.0  0.08867  0.75755  0.95838  1.0000
  C   C271      1.0  0.08354  0.82052  0.98460  1.0000
  C   C272      1.0  0.33059  0.67931  0.83528  1.0000
  H   H462      1.0  0.02632  0.77011  0.81493  1.0000
  S   S62       1.0  0.02296  0.81611  0.98804  1.0000
  H   H463      1.0  0.02050  0.75328  0.67896  1.0000
  H   H464      1.0  0.40949  0.69161  0.98129  1.0000
  C   C273      1.0  0.16639  0.68305  0.62986  1.0000
  C   C274      1.0  0.25124  0.65623  0.50423  1.0000
  C   C275      1.0  0.06698  0.70431  0.53388  1.0000
  H   H465      1.0  0.25818  0.71461  0.91549  1.0000
  H   H466      1.0  0.12930  0.82305  0.97718  1.0000
  H   H467      1.0  0.02267  0.82195  0.88426  1.0000
  H   H468      1.0  0.49108  0.66062  0.77719  1.0000
  H   H469      1.0  0.15532  0.65713  0.75999  1.0000
  C   C276      1.0  0.40665  0.67362  0.97236  1.0000
  H   H470      1.0  0.06315  0.71404  0.50107  1.0000
  H   H471      1.0  0.01460  0.97777  0.90915  1.0000
  H   H472      1.0  0.18399  0.69489  0.57458  1.0000
  H   H473      1.0  0.17498  0.67154  0.66022  1.0000
  H   H474      1.0  0.42944  0.66713  0.97186  1.0000
  C   C277      1.0  0.44065  0.65213  0.81209  1.0000
  C   C278      1.0  0.24357  0.67573  0.53090  1.0000
  C   C279      1.0  0.00957  0.74591  0.70254  1.0000
  H   H475      1.0  0.50318  0.71689  0.66519  1.0000
  H   H476      1.0  0.08227  0.83801  0.99206  1.0000
  S   S63       1.0  0.38891  0.65702  0.63341  1.0000
  S   S64       1.0  0.36014  0.65954  0.72058  1.0000
  H   H477      1.0  0.27440  0.66491  0.91879  1.0000
  C   C280      1.0  0.12983  0.65606  0.74120  1.0000
  H   H478      1.0  0.43231  0.65218  0.87930  1.0000
  H   H479      1.0  0.00772  0.78864  0.89777  1.0000
  H   H480      1.0  0.21956  0.68178  0.51299  1.0000
  H   H481      1.0  0.38082  0.65207  0.91686  1.0000
  H   H482      1.0  0.26495  0.65120  0.84125  1.0000
  C   C281      1.0  0.00525  0.75370  0.88301  1.0000
  H   H483      1.0  0.27535  0.65119  0.52354  1.0000
  Fe  Fe31      1.0  0.75926  0.08901  0.15559  1.0000
  S   S65       1.0  0.79236  0.11517  0.19659  1.0000
  S   S66       1.0  0.71980  0.09626  0.08770  1.0000
  Fe  Fe32      1.0  0.79171  0.05114  0.22362  1.0000
  S   S67       1.0  0.82683  0.07520  0.26937  1.0000
  S   S68       1.0  0.79949  0.01536  0.25138  1.0000
  Fe  Fe33      1.0  0.78713  0.09870  0.26110  1.0000
  S   S69       1.0  0.77321  0.11706  0.31785  1.0000
  Fe  Fe34      1.0  0.82891  0.08937  0.20126  1.0000
  S   S70       1.0  0.87541  0.09652  0.19172  1.0000
  S   S71       1.0  0.75146  0.07373  0.21952  1.0000
  S   S72       1.0  0.79634  0.06413  0.15623  1.0000
  H   H484      1.0  0.84376  0.04764  0.11946  1.0000
  C   C282      1.0  0.80697  0.08466  0.46235  1.0000
  H   H485      1.0  0.94212  0.03435  0.15733  1.0000
  C   C283      1.0  0.89540  0.02936  0.10584  1.0000
  C   C284      1.0  0.87723  0.99518  0.13488  1.0000
  H   H486      1.0  0.78288  0.02759  0.00622  1.0000
  H   H487      1.0  0.89233  0.04804  0.18219  1.0000
  H   H488      1.0  0.70543  0.16034  0.35706  1.0000
  C   C285      1.0  0.79600  0.13063  0.37027  1.0000
  C   C286      1.0  0.78110  0.13838  0.40148  1.0000
  C   C287      1.0  0.79806  0.14928  0.44347  1.0000
  C   C288      1.0  0.83019  0.15271  0.45473  1.0000
  C   C289      1.0  0.84507  0.14510  0.42336  1.0000
  C   C290      1.0  0.82816  0.13401  0.38152  1.0000
  H   H489      1.0  0.75623  0.13598  0.39307  1.0000
  H   H490      1.0  0.79563  0.06939  0.37152  1.0000
  H   H491      1.0  0.86984  0.14789  0.43136  1.0000
  H   H492      1.0  0.83995  0.12829  0.35779  1.0000
  C   C291      1.0  0.87800  0.09414  0.13489  1.0000
  C   C292      1.0  0.90729  0.09555  0.12868  1.0000
  C   C293      1.0  0.91010  0.09323  0.08387  1.0000
  C   C294      1.0  0.88358  0.08949  0.04501  1.0000
  C   C295      1.0  0.85427  0.08812  0.05119  1.0000
  C   C296      1.0  0.85146  0.09051  0.09595  1.0000
  H   H493      1.0  0.92790  0.09842  0.15867  1.0000
  H   H494      1.0  0.93277  0.09444  0.07945  1.0000
  H   H495      1.0  0.83193  0.00839  0.05011  1.0000
  H   H496      1.0  0.82877  0.08947  0.10031  1.0000
  C   C297      1.0  0.72698  0.16164  0.05487  1.0000
  C   C298      1.0  0.73358  0.14051  0.07620  1.0000
  C   C299      1.0  0.71250  0.12291  0.06076  1.0000
  H   H497      1.0  0.91243  0.03114  0.28183  1.0000
  C   C300      1.0  0.89016  0.02954  0.18373  1.0000
  H   H498      1.0  0.75510  0.13767  0.10423  1.0000
  C   C301      1.0  0.67866  0.14756  0.00092  1.0000
  H   H499      1.0  0.91762  0.17087  0.01068  1.0000
  H   H500      1.0  0.70663  0.20998  0.09351  1.0000
  H   H501      1.0  0.84811  0.02913  0.20584  1.0000
  H   H502      1.0  0.93542  0.00667  0.13261  1.0000
  H   H503      1.0  0.66873  0.11291  0.01028  1.0000
  H   H504      1.0  0.69435  0.10060  0.16274  1.0000
  H   H505      1.0  0.97230  0.02864  0.10441  1.0000
  H   H506      1.0  0.84172  0.15099  0.11324  1.0000
  H   H507      1.0  0.78618  0.15552  0.46663  1.0000
  H   H508      1.0  0.93759  0.02231  0.05640  1.0000
  H   H509      1.0  0.87476  0.03236  0.28988  1.0000
  H   H510      1.0  0.84086  0.13658  0.03829  1.0000
  H   H511      1.0  0.76419  0.16219  0.25459  1.0000
  C   C302      1.0  0.82074  0.06985  0.39285  1.0000
  H   H512      1.0  0.75490  0.19057  0.24267  1.0000
  H   H513      1.0  0.80905  0.19361  0.23255  1.0000
  H   H514      1.0  0.70447  0.18787  0.33266  1.0000
  H   H515      1.0  0.81644  0.17727  0.18726  1.0000
  H   H516      1.0  0.80093  0.15793  0.09141  1.0000
  S   S73       1.0  0.98097  0.08498  0.03266  1.0000
  C   C303      1.0  0.79050  0.98927  0.22233  1.0000
  H   H517      1.0  0.94345  0.04988  0.08162  1.0000
  H   H518      1.0  0.52029  0.30455  0.03351  1.0000
  C   C304      1.0  0.79316  0.03004  0.04466  1.0000
  H   H519      1.0  0.88696  0.02239  0.06974  1.0000
  H   H520      1.0  0.70727  0.19225  0.25194  1.0000
  H   H521      1.0  0.51378  0.28124  0.06669  1.0000
  H   H522      1.0  0.81404  0.16374  0.23942  1.0000
  H   H523      1.0  0.69054  0.23329  0.11502  1.0000
  H   H524      1.0  0.82768  0.02254  0.13154  1.0000
  H   H525      1.0  0.78869  0.04747  0.05288  1.0000
  C   C305      1.0  0.84360  0.02937  0.11361  1.0000
  H   H526      1.0  0.67647  0.17337  0.22771  1.0000
  C   C306      1.0  0.81873  0.14603  0.08815  1.0000
  H   H527      1.0  0.83274  0.05631  0.38063  1.0000
  H   H528      1.0  0.78148  0.01842  0.06256  1.0000
  H   H529      1.0  0.74334  0.17522  0.06742  1.0000
  C   C307      1.0  0.93090  0.02466  0.12490  1.0000
  H   H530      1.0  0.83368  0.08509  0.02133  1.0000
  H   H531      1.0  0.65755  0.10089  0.17317  1.0000
  H   H532      1.0  0.78209  0.08276  0.44050  1.0000
  H   H533      1.0  0.87442  0.00604  0.22747  1.0000
  C   C308      1.0  0.69761  0.17021  0.32407  1.0000
  C   C309      1.0  0.69083  0.21482  0.11327  1.0000
  H   H534      1.0  0.82370  0.16391  0.02939  1.0000
  H   H535      1.0  0.72500  0.13811  0.17106  1.0000
  C   C310      1.0  0.68177  0.10749  0.18550  1.0000
  C   C311      1.0  0.82819  0.02563  0.06015  1.0000
  H   H536      1.0  0.79042  0.11798  0.01067  1.0000
  H   H537      1.0  0.71024  0.17332  0.13342  1.0000
  H   H538      1.0  0.69325  0.10179  0.22215  1.0000
  H   H539      1.0  0.59740  0.28607  0.99755  1.0000
  N   N17       1.0  0.87617  0.02038  0.13471  1.0000
  C   C312      1.0  0.87287  0.02409  0.21912  1.0000
  H   H540      1.0  0.66686  0.20887  0.09383  1.0000
  C   C313      1.0  0.68512  0.12648  0.02278  1.0000
  C   C314      1.0  0.69950  0.16530  0.01712  1.0000
  H   H541      1.0  0.88707  0.05465  0.25952  1.0000
  H   H542      1.0  0.54252  0.27935  0.03722  1.0000
  H   H543      1.0  0.70626  0.14328  0.28383  1.0000
  C   C315      1.0  0.80435  0.17739  0.21392  1.0000
  H   H544      1.0  0.66876  0.13766  0.14598  1.0000
  H   H545      1.0  0.76632  0.00246  0.15378  1.0000
  H   H546      1.0  0.83090  0.08601  0.38678  1.0000
  H   H547      1.0  0.66768  0.13864  0.20509  1.0000
  H   H548      1.0  0.73846  0.16230  0.30659  1.0000
  H   H549      1.0  0.67181  0.16893  0.30916  1.0000
  C   C316      1.0  0.77389  0.98752  0.17445  1.0000
  H   H550      1.0  0.67594  0.17464  0.14849  1.0000
  H   H551      1.0  0.72600  0.21154  0.18054  1.0000
  H   H552      1.0  0.68675  0.21129  0.18194  1.0000
  H   H553      1.0  0.76592  0.15820  0.17057  1.0000
  H   H554      1.0  0.89260  0.04776  0.10166  1.0000
  H   H555      1.0  0.85042  0.06754  0.46422  1.0000
  H   H556      1.0  0.83839  0.03735  0.04036  1.0000
  H   H557      1.0  0.72928  0.13357  0.23041  1.0000
  H   H558      1.0  0.81397  0.10133  0.45284  1.0000
  C   C317      1.0  0.88783  0.03634  0.26537  1.0000
  C   C318      1.0  0.94688  0.03180  0.08955  1.0000
  H   H559      1.0  0.91417  0.02317  0.20044  1.0000
  H   H560      1.0  0.76110  0.18766  0.16385  1.0000
  N   N18       1.0  0.71742  0.16758  0.20709  1.0000
  C   C319      1.0  0.70111  0.17921  0.16135  1.0000
  C   C320      1.0  0.71489  0.14275  0.19872  1.0000
  C   C321      1.0  0.70232  0.17436  0.24272  1.0000
  C   C322      1.0  0.75157  0.17385  0.22591  1.0000
  C   C323      1.0  0.76935  0.17404  0.18984  1.0000
  C   C324      1.0  0.70219  0.20503  0.16279  1.0000
  C   C325      1.0  0.71284  0.16114  0.28958  1.0000
  C   C326      1.0  0.68132  0.13289  0.18292  1.0000
  C   C327      1.0  0.82506  0.06672  0.44492  1.0000
  H   H561      1.0  0.81643  0.04979  0.44928  1.0000
  C   C328      1.0  0.51928  0.28610  0.03465  1.0000
  H   H562      1.0  0.94475  0.15008  0.00539  1.0000
  Fe  Fe35      1.0  0.99115  0.05413  0.99817  1.0000
  H   H563      1.0  0.81290  0.12910  0.09790  1.0000
  C   C329      1.0  0.79015  0.13618  0.00291  1.0000
  H   H564      1.0  0.87996  0.98890  0.10173  1.0000
  C   C330      1.0  0.82015  0.14637  0.03815  1.0000
  H   H565      1.0  0.95666  0.12328  0.47660  1.0000
  H   H566      1.0  0.89840  0.98927  0.16306  1.0000
  H   H567      1.0  0.77017  0.14273  0.01223  1.0000
  H   H568      1.0  0.75241  0.10641  0.46252  1.0000
  H   H569      1.0  0.91248  0.98945  0.00937  1.0000
  H   H570      1.0  0.97262  0.15006  0.46911  1.0000
  H   H571      1.0  0.95011  0.98885  0.00218  1.0000
  H   H572      1.0  0.84117  0.98891  0.16924  1.0000
  S   S74       1.0  0.69225  0.19236  0.99227  1.0000
  H   H573      1.0  0.82824  0.98402  0.10770  1.0000
  Fe  Fe36      1.0  0.59504  0.19981  0.84070  1.0000
  S   S75       1.0  0.61159  0.22218  0.79415  1.0000
  S   S76       1.0  0.54646  0.18450  0.81533  1.0000
  Fe  Fe37      1.0  0.65800  0.20162  0.92036  1.0000
  S   S77       1.0  0.67822  0.22549  0.87967  1.0000
  H   H574      1.0  0.73235  0.28855  0.82979  1.0000
  Fe  Fe38      1.0  0.63153  0.24260  0.85971  1.0000
  S   S78       1.0  0.62170  0.27974  0.85063  1.0000
  Fe  Fe39      1.0  0.65678  0.20309  0.81798  1.0000
  S   S79       1.0  0.68044  0.18673  0.76974  1.0000
  S   S80       1.0  0.61304  0.22083  0.90548  1.0000
  S   S81       1.0  0.63837  0.17853  0.85953  1.0000
  Fe  Fe40      1.0  0.88661  0.17685  0.67922  1.0000
  S   S82       1.0  0.87903  0.14830  0.62934  1.0000
  S   S83       1.0  0.93600  0.18057  0.72968  1.0000
  Fe  Fe41      1.0  0.81651  0.18536  0.65278  1.0000
  S   S84       1.0  0.80354  0.15764  0.59911  1.0000
  S   S85       1.0  0.78532  0.20928  0.67621  1.0000
  Fe  Fe42      1.0  0.83974  0.13824  0.65423  1.0000
  S   S86       1.0  0.83454  0.10171  0.66592  1.0000
  Fe  Fe43      1.0  0.84394  0.16944  0.57684  1.0000
  S   S87       1.0  0.84985  0.16470  0.70887  1.0000
  S   S88       1.0  0.85424  0.19922  0.62566  1.0000
  Fe  Fe44      1.0  0.95972  0.07224  0.90067  1.0000
  S   S89       1.0  0.94934  0.06129  0.82615  1.0000
  C   C331      1.0  0.86621  0.09101  0.71167  1.0000
  C   C332      1.0  0.88216  0.10395  0.75083  1.0000
  C   C333      1.0  0.90716  0.09480  0.78718  1.0000
  C   C334      1.0  0.91685  0.07298  0.78349  1.0000
  C   C335      1.0  0.90111  0.06025  0.74406  1.0000
  C   C336      1.0  0.87554  0.06908  0.70871  1.0000
  H   H575      1.0  0.87497  0.12087  0.75343  1.0000
  H   H576      1.0  0.91930  0.10475  0.81742  1.0000
  H   H577      1.0  0.90860  0.04342  0.74102  1.0000
  H   H578      1.0  0.86335  0.05902  0.67863  1.0000
  C   C337      1.0  0.71153  0.19287  0.74744  1.0000
  C   C338      1.0  0.72042  0.17662  0.72085  1.0000
  C   C339      1.0  0.74384  0.18104  0.70047  1.0000
  C   C340      1.0  0.75820  0.20202  0.70550  1.0000
  C   C341      1.0  0.74951  0.21821  0.73248  1.0000
  C   C342      1.0  0.72676  0.21352  0.75401  1.0000
  H   H579      1.0  0.70892  0.16054  0.71560  1.0000
  H   H580      1.0  0.75011  0.16844  0.67969  1.0000
  H   H581      1.0  0.76055  0.23444  0.73680  1.0000
  H   H582      1.0  0.72077  0.22591  0.77519  1.0000
  C   C343      1.0  0.75814  0.10438  0.50099  1.0000
  C   C344      1.0  0.79628  0.06219  0.52362  1.0000
  H   H583      1.0  0.80340  0.11930  0.51543  1.0000
  C   C345      1.0  0.86375  0.10406  0.53428  1.0000
  C   C346      1.0  0.60469  0.29250  0.88933  1.0000
  C   C347      1.0  0.60747  0.28290  0.93280  1.0000
  H   H584      1.0  0.89478  0.23498  0.58279  1.0000
  H   H585      1.0  0.62029  0.26759  0.94329  1.0000
  H   H586      1.0  0.77707  0.03626  0.61499  1.0000
  H   H587      1.0  0.85602  0.06865  0.54158  1.0000
  H   H588      1.0  0.65705  0.29757  0.67389  1.0000
  C   C348      1.0  0.96749  0.19917  0.73496  1.0000
  C   C349      1.0  0.96318  0.22097  0.71762  1.0000
  H   H589      1.0  0.95421  0.18695  0.97397  1.0000
  H   H590      1.0  0.95884  0.13275  0.55655  1.0000
  C   C350      1.0  0.93491  0.17628  0.95215  1.0000
  H   H591      1.0  0.93994  0.22685  0.69901  1.0000
  H   H592      1.0  0.73543  0.17284  0.92916  1.0000
  H   H593      1.0  0.91569  0.01468  0.85606  1.0000
  H   H594      1.0  0.56038  0.16845  0.67592  1.0000
  N   N19       1.0  0.95473  0.17573  0.88053  1.0000
  C   C351      1.0  0.94575  0.16258  0.91691  1.0000
  C   C352      1.0  0.96150  0.15964  0.84689  1.0000
  H   H595      1.0  0.98561  0.25231  0.71220  1.0000
  C   C353      1.0  0.92868  0.19093  0.85327  1.0000
  C   C354      1.0  0.89593  0.18006  0.83267  1.0000
  C   C355      1.0  0.67173  0.28345  0.59729  1.0000
  N   N20       1.0  0.96948  0.17821  0.59414  1.0000
  H   H596      1.0  0.75346  0.14000  0.51068  1.0000
  C   C356      1.0  0.87163  0.19756  0.80828  1.0000
  H   H597      1.0  0.96585  0.15273  0.93869  1.0000
  H   H598      1.0  0.92740  0.15007  0.89984  1.0000
  H   H599      1.0  0.94083  0.14889  0.83013  1.0000
  H   H600      1.0  0.73471  0.11333  0.97036  1.0000
  H   H601      1.0  0.70120  0.27421  0.66576  1.0000
  H   H602      1.0  0.54029  0.27721  0.88960  1.0000
  H   H603      1.0  0.92667  0.20536  0.87510  1.0000
  H   H604      1.0  0.93395  0.19837  0.82280  1.0000
  H   H605      1.0  0.88802  0.17216  0.86015  1.0000
  H   H606      1.0  0.89604  0.16719  0.80650  1.0000
  H   H607      1.0  0.77287  0.05932  0.49726  1.0000
  C   C357      1.0  0.99337  0.12809  0.83014  1.0000
  H   H608      1.0  0.88325  0.21154  0.54382  1.0000
  C   C358      1.0  0.88561  0.99636  0.91668  1.0000
  C   C359      1.0  0.69953  0.11712  0.90312  1.0000
  S   S90       1.0  0.85233  0.16750  0.50592  1.0000
  H   H609      1.0  0.51913  0.25332  0.85933  1.0000
  H   H610      1.0  0.87728  0.20515  0.77828  1.0000
  H   H611      1.0  0.84821  0.18964  0.79465  1.0000
  H   H612      1.0  0.87062  0.21086  0.83318  1.0000
  N   N21       1.0  0.65547  0.26791  0.71378  1.0000
  C   C360      1.0  0.65345  0.27927  0.66809  1.0000
  C   C361      1.0  0.63204  0.27774  0.73421  1.0000
  C   C362      1.0  0.68777  0.27239  0.74774  1.0000
  C   C363      1.0  0.65124  0.24299  0.70811  1.0000
  C   C364      1.0  0.62012  0.23474  0.67268  1.0000
  H   H613      1.0  0.75816  0.20526  0.90161  1.0000
  C   C365      1.0  0.69324  0.26585  0.79974  1.0000
  C   C366      1.0  0.62050  0.20958  0.66546  1.0000
  H   H614      1.0  0.96598  0.16888  0.81799  1.0000
  C   C367      1.0  0.72691  0.27049  0.83013  1.0000
  C   C368      1.0  0.57748  0.29123  0.72541  1.0000
  C   C369      1.0  0.85662  0.99055  0.93119  1.0000
  H   H615      1.0  0.62720  0.26581  0.75943  1.0000
  H   H616      1.0  0.82051  0.00719  0.95123  1.0000
  H   H617      1.0  0.69194  0.12931  0.87378  1.0000
  H   H618      1.0  0.70563  0.26330  0.73698  1.0000
  H   H619      1.0  0.67076  0.23551  0.69871  1.0000
  H   H620      1.0  0.65283  0.23498  0.74203  1.0000
  H   H621      1.0  0.61536  0.24269  0.63787  1.0000
  H   H622      1.0  0.60068  0.23810  0.68640  1.0000
  C   C370      1.0  0.77871  0.03749  0.57908  1.0000
  H   H623      1.0  0.67357  0.25309  0.63556  1.0000
  H   H624      1.0  0.68861  0.24793  0.80289  1.0000
  H   H625      1.0  0.67800  0.27534  0.81500  1.0000
  H   H626      1.0  0.59841  0.20420  0.63870  1.0000
  H   H627      1.0  0.64025  0.20482  0.65335  1.0000
  H   H628      1.0  0.62269  0.20062  0.69868  1.0000
  H   H629      1.0  0.94696  0.99753  0.92912  1.0000
  C   C371      1.0  0.67670  0.27114  0.64363  1.0000
  H   H630      1.0  0.74655  0.08905  0.50784  1.0000
  H   H631      1.0  0.64190  0.29288  0.75531  1.0000
  H   H632      1.0  0.73016  0.26539  0.86688  1.0000
  H   H633      1.0  0.80708  0.17235  0.95408  1.0000
  C   C372      1.0  0.99558  0.19254  0.62470  1.0000
  H   H634      1.0  0.83411  0.02270  0.91022  1.0000
  C   C373      1.0  0.79400  0.10361  0.52534  1.0000
  H   H635      1.0  0.56752  0.19522  0.70433  1.0000
  C   C374      1.0  0.89757  0.10261  0.56632  1.0000
  C   C375      1.0  0.95596  0.00250  0.84200  1.0000
  C   C376      1.0  0.84054  0.11814  0.88383  1.0000
  H   H636      1.0  0.94874  0.22175  0.61195  1.0000
  H   H637      1.0  0.98897  0.22178  0.57726  1.0000
  C   C377      1.0  0.98964  0.14391  0.86749  1.0000
  H   H638      1.0  0.74835  0.12260  0.55697  1.0000
  H   H639      1.0  0.53826  0.17670  0.71291  1.0000
  C   C378      1.0  0.98341  0.14631  0.65582  1.0000
  N   N22       1.0  0.78568  0.13976  0.95149  1.0000
  H   H640      1.0  0.67534  0.30166  0.60334  1.0000
  H   H641      1.0  0.74794  0.13511  0.88583  1.0000
  H   H642      1.0  0.79128  0.12284  0.86614  1.0000
  C   C379      1.0  0.50937  0.19554  0.78321  1.0000
  C   C380      1.0  0.95861  0.16256  0.62498  1.0000
  C   C381      1.0  0.75920  0.17818  0.95069  1.0000
  N   N23       1.0  0.81033  0.08375  0.51377  1.0000
  H   H643      1.0  0.68877  0.27743  0.58071  1.0000
  H   H644      1.0  0.98872  0.20033  0.65323  1.0000
  H   H645      1.0  0.50656  0.17994  0.63016  1.0000
  H   H646      1.0  0.91055  0.11748  0.56067  1.0000
  H   H647      1.0  0.95006  0.01131  0.80777  1.0000
  H   H648      1.0  0.84003  0.11946  0.84681  1.0000
  H   H649      1.0  0.89992  0.00920  0.94096  1.0000
  C   C382      1.0  0.78397  0.16415  0.93841  1.0000
  H   H650      1.0  0.74345  0.26091  0.81747  1.0000
  C   C383      1.0  0.81284  0.13060  0.88997  1.0000
  H   H651      1.0  0.99692  0.13756  0.80056  1.0000
  C   C384      1.0  0.76211  0.20281  0.93967  1.0000
  H   H652      1.0  0.98156  0.21009  0.84234  1.0000
  H   H653      1.0  0.95697  0.13785  0.70265  1.0000
  H   H654      1.0  0.92202  0.20136  0.62108  1.0000
  H   H655      1.0  0.68045  0.11523  0.91846  1.0000
  C   C385      1.0  0.60040  0.28571  0.69952  1.0000
  H   H656      1.0  0.90514  0.15004  0.96543  1.0000
  H   H657      1.0  0.51935  0.26468  0.66136  1.0000
  H   H658      1.0  0.62987  0.27751  0.64197  1.0000
  C   C386      1.0  0.81363  0.12993  0.94190  1.0000
  H   H659      1.0  0.83545  0.13876  0.96223  1.0000
  C   C387      1.0  0.59449  0.29345  0.96358  1.0000
  C   C388      1.0  0.72902  0.12541  0.94074  1.0000
  H   H660      1.0  0.81054  0.04785  0.51949  1.0000
  H   H661      1.0  0.85449  0.12024  0.54104  1.0000
  H   H662      1.0  0.91484  0.18707  0.93411  1.0000
  H   H663      1.0  0.98549  0.17719  0.53410  1.0000
  C   C389      1.0  0.90300  0.22281  0.56184  1.0000
  H   H664      1.0  0.81683  0.11225  0.95403  1.0000
  H   H665      1.0  0.97246  0.11722  0.81651  1.0000
  C   C390      1.0  0.94204  0.19211  0.56614  1.0000
  H   H666      1.0  0.91030  0.23210  0.53516  1.0000
  H   H667      1.0  0.50734  0.29994  0.94473  1.0000
  S   S91       1.0  0.94264  0.05080  0.94834  1.0000
  H   H668      1.0  0.87649  0.00503  0.88226  1.0000
  H   H669      1.0  0.95020  0.17215  0.64960  1.0000
  H   H670      1.0  0.93792  0.15281  0.60384  1.0000
  C   C391      1.0  0.93025  0.20956  0.59420  1.0000
  H   H671      1.0  0.54256  0.23959  0.61491  1.0000
  H   H672      1.0  0.57142  0.27600  0.74180  1.0000
  S   S92       1.0  0.94635  0.10423  0.92640  1.0000
  C   C392      1.0  0.53378  0.24381  0.54131  1.0000
  H   H673      1.0  0.89877  0.10219  0.60373  1.0000
  C   C393      1.0  0.98295  0.18984  0.90488  1.0000
  H   H674      1.0  0.76254  0.10993  0.91555  1.0000
  H   H675      1.0  0.86293  0.12529  0.90675  1.0000
  H   H676      1.0  0.75485  0.03599  0.55340  1.0000
  C   C394      1.0  0.52718  0.27885  0.81485  1.0000
  H   H677      1.0  0.65742  0.15013  0.97187  1.0000
  C   C395      1.0  0.84144  0.01167  0.94157  1.0000
  C   C396      1.0  0.96863  0.12933  0.68033  1.0000
  H   H678      1.0  0.81662  0.06074  0.60073  1.0000
  H   H679      1.0  0.83947  0.10021  0.89255  1.0000
  H   H680      1.0  0.84604  0.08591  0.58161  1.0000
  H   H681      1.0  0.52115  0.23039  0.79208  1.0000
  H   H682      1.0  0.81423  0.14804  0.87836  1.0000
  H   H683      1.0  0.58924  0.27323  0.67235  1.0000
  C   C397      1.0  0.74377  0.12398  0.51855  1.0000
  H   H684      1.0  0.69370  0.29044  0.74743  1.0000
  H   H685      1.0  0.60410  0.30114  0.68142  1.0000
  C   C398      1.0  0.79338  0.05985  0.57337  1.0000
  H   H686      1.0  0.79323  0.02351  0.57412  1.0000
  C   C399      1.0  0.75682  0.12747  0.92146  1.0000
  H   H687      1.0  0.55585  0.29824  0.70038  1.0000
  H   H688      1.0  0.77863  0.16612  0.89988  1.0000
  C   C400      1.0  0.84413  0.08452  0.54401  1.0000
  H   H689      1.0  0.52890  0.29727  0.81299  1.0000
  H   H690      1.0  0.97666  0.20300  0.92596  1.0000
  H   H691      1.0  0.55410  0.25513  0.54658  1.0000
  H   H692      1.0  0.52500  0.27331  0.95091  1.0000
  H   H693      1.0  0.94723  0.20100  0.53702  1.0000
  H   H694      1.0  0.79909  0.10502  0.56392  1.0000
  C   C401      1.0  0.98908  0.23541  0.72544  1.0000
  H   H695      1.0  0.97236  0.01318  0.86899  1.0000
  H   H696      1.0  0.54960  0.27153  0.81489  1.0000
  H   H697      1.0  0.77857  0.07310  0.58039  1.0000
  H   H698      1.0  0.71816  0.12406  0.50078  1.0000
  H   H699      1.0  0.95125  0.11885  0.65424  1.0000
  C   C402      1.0  0.98143  0.16556  0.56044  1.0000
  H   H700      1.0  0.90881  0.08745  0.55839  1.0000
  H   H701      1.0  0.70361  0.10071  0.88939  1.0000
  H   H702      1.0  0.72344  0.14143  0.95376  1.0000
  H   H703      1.0  0.92165  0.18123  0.54852  1.0000
  C   C403      1.0  0.52035  0.27176  0.85928  1.0000
  C   C404      1.0  0.54918  0.18281  0.68702  1.0000
  C   C405      1.0  0.93346  0.98567  0.90172  1.0000
  H   H704      1.0  0.53031  0.22568  0.67386  1.0000
  C   C406      1.0  0.57799  0.31346  0.95100  1.0000
  H   H705      1.0  0.64786  0.28032  0.57272  1.0000
  C   C407      1.0  0.95992  0.14662  0.53268  1.0000
  C   C408      1.0  0.58839  0.31266  0.87672  1.0000
  H   H706      1.0  0.58767  0.30378  0.75328  1.0000
  H   H707      1.0  0.93589  0.15263  0.51484  1.0000
  H   H708      1.0  0.74423  0.21244  0.94921  1.0000
  C   C409      1.0  0.99873  0.20172  0.87247  1.0000
  H   H709      1.0  0.98677  0.13346  0.89604  1.0000
  H   H710      1.0  0.91011  0.98872  0.82482  1.0000
  H   H711      1.0  0.54104  0.22663  0.53621  1.0000
  H   H712      1.0  0.53593  0.19700  0.61796  1.0000
  C   C410      1.0  0.92626  0.99822  0.85421  1.0000
  C   C411      1.0  0.92499  0.16083  0.98534  1.0000
  H   H713      1.0  0.51491  0.24919  0.50923  1.0000
  H   H714      1.0  0.50845  0.27281  0.78340  1.0000
  H   H715      1.0  0.50877  0.25199  0.70772  1.0000
  H   H716      1.0  0.00133  0.15564  0.68365  1.0000
  H   H717      1.0  0.98694  0.11831  0.70317  1.0000
  C   C412      1.0  0.52452  0.19296  0.64448  1.0000
  Fe  Fe45      1.0  0.93336  0.08296  0.97878  1.0000
  H   H718      1.0  0.78546  0.20943  0.96021  1.0000
  H   H719      1.0  0.76164  0.17698  0.98837  1.0000
  Fe  Fe46      1.0  0.99526  0.10393  0.97787  1.0000
  C   C413      1.0  0.52275  0.24474  0.58407  1.0000
  H   H720      1.0  0.51692  0.26237  0.58819  1.0000
  H   H721      1.0  0.85797  0.02096  0.97122  1.0000
  H   H722      1.0  0.99518  0.13696  0.63487  1.0000
  C   C414      1.0  0.99784  0.19193  0.75951  1.0000
  H   H723      1.0  0.96746  0.98655  0.83914  1.0000
  S   S93       1.0  0.88606  0.08643  0.98832  1.0000
  H   H724      1.0  0.99606  0.13033  0.51152  1.0000
  C   C415      1.0  0.51042  0.21420  0.65847  1.0000
  C   C416      1.0  0.97220  0.13705  0.49526  1.0000
  H   H725      1.0  0.86394  0.10403  0.49761  1.0000
  H   H726      1.0  0.00100  0.17971  0.93071  1.0000
  H   H727      1.0  0.00155  0.17506  0.77268  1.0000
  C   C417      1.0  0.54943  0.53593  0.12645  1.0000
  C   C418      1.0  0.51563  0.53031  0.12165  1.0000
  H   H728      1.0  0.52021  0.49652  0.10218  1.0000
  H   H729      1.0  0.55659  0.52717  0.09930  1.0000
  S   S94       1.0  0.53563  0.43420  0.03573  1.0000
  H   H730      1.0  0.53460  0.51506  0.01467  1.0000
  S   S95       1.0  0.53331  0.36999  0.05805  1.0000
  S   S96       1.0  0.56338  0.32603  0.99258  1.0000
  C   C419      1.0  0.51782  0.45934  0.01034  1.0000
  H   H731      1.0  0.55174  0.55416  0.12172  1.0000
  C   C420      1.0  0.53360  0.47950  0.02568  1.0000
  S   S97       1.0  0.50539  0.57768  0.02036  1.0000
  H   H732      1.0  0.52757  0.49985  0.16273  1.0000
  H   H733      1.0  0.56522  0.53118  0.16178  1.0000
  C   C421      1.0  0.52159  0.49975  0.00384  1.0000
  H   H734      1.0  0.61504  0.42485  0.02310  1.0000
  H   H735      1.0  0.55569  0.47938  0.05381  1.0000
  C   C422      1.0  0.51131  0.50497  0.12790  1.0000
  H   H736      1.0  0.62090  0.39868  0.99834  1.0000
  H   H737      1.0  0.51622  0.45986  0.11146  1.0000
  H   H738      1.0  0.50709  0.51652  0.21165  1.0000
  H   H739      1.0  0.50962  0.53998  0.14870  1.0000
  Fe  Fe47      1.0  0.51350  0.40020  0.01405  1.0000
  C   C423      1.0  0.52404  0.43447  0.89329  1.0000
  C   C424      1.0  0.57463  0.32296  0.90713  1.0000
  C   C425      1.0  0.59333  0.64180  0.95115  1.0000
  H   H740      1.0  0.52957  0.41671  0.88947  1.0000
  C   C426      1.0  0.53943  0.64830  0.94585  1.0000
  H   H741      1.0  0.61033  0.43433  0.88005  1.0000
  H   H742      1.0  0.51921  0.43535  0.92708  1.0000
  C   C427      1.0  0.55486  0.51435  0.90197  1.0000
  H   H743      1.0  0.58617  0.32023  0.84319  1.0000
  C   C428      1.0  0.57712  0.44439  0.94050  1.0000
  H   H744      1.0  0.56210  0.33842  0.89715  1.0000
  H   H745      1.0  0.53241  0.51786  0.87403  1.0000
  H   H746      1.0  0.58809  0.45881  0.78519  1.0000
  C   C429      1.0  0.56509  0.63410  0.95612  1.0000
  H   H747      1.0  0.51191  0.60811  0.85277  1.0000
  H   H748      1.0  0.51951  0.60364  0.79975  1.0000
  H   H749      1.0  0.53319  0.47597  0.92478  1.0000
  C   C430      1.0  0.60097  0.44550  0.80934  1.0000
  H   H750      1.0  0.57027  0.45068  0.97051  1.0000
  H   H751      1.0  0.57220  0.52712  0.89993  1.0000
  H   H752      1.0  0.52258  0.56242  0.81838  1.0000
  H   H753      1.0  0.59298  0.42897  0.79336  1.0000
  H   H754      1.0  0.51089  0.56745  0.86948  1.0000
  C   C431      1.0  0.58549  0.41946  0.95092  1.0000
  N   N24       1.0  0.55164  0.44910  0.89476  1.0000
  C   C432      1.0  0.59596  0.44737  0.85690  1.0000
  H   H755      1.0  0.52193  0.47698  0.86263  1.0000
  H   H756      1.0  0.58850  0.48850  0.92554  1.0000
  C   C433      1.0  0.56663  0.49112  0.89609  1.0000
  H   H757      1.0  0.62618  0.44737  0.81395  1.0000
  H   H758      1.0  0.60525  0.46370  0.87209  1.0000
  H   H759      1.0  0.53661  0.63353  0.77028  1.0000
  H   H760      1.0  0.68376  0.64597  0.76089  1.0000
  H   H761      1.0  0.55145  0.51582  0.93667  1.0000
  C   C434      1.0  0.56103  0.44412  0.85207  1.0000
  C   C435      1.0  0.54178  0.47309  0.89469  1.0000
  H   H762      1.0  0.55547  0.42650  0.84072  1.0000
  H   H763      1.0  0.56723  0.41106  0.96223  1.0000
  S   S98       1.0  0.51127  0.38352  0.94629  1.0000
  Fe  Fe48      1.0  0.52717  0.35254  0.98967  1.0000
  H   H764      1.0  0.55077  0.63573  0.83301  1.0000
  H   H765      1.0  0.54681  0.45424  0.82166  1.0000
  H   H766      1.0  0.57164  0.49121  0.86244  1.0000
  H   H767      1.0  0.61344  0.63102  0.96069  1.0000
  C   C436      1.0  0.53612  0.64394  0.80014  1.0000
  H   H768      1.0  0.56359  0.61756  0.96964  1.0000
  H   H769      1.0  0.58707  0.41069  0.91949  1.0000
  H   H770      1.0  0.59881  0.45365  0.94301  1.0000
  H   H771      1.0  0.63586  0.42399  0.98092  1.0000
  S   S99       1.0  0.50466  0.64084  0.95699  1.0000
  C   C437      1.0  0.61628  0.41669  0.99076  1.0000
  Fe  Fe49      1.0  0.77902  0.88566  0.18234  1.0000
  S   S100      1.0  0.82771  0.87414  0.22055  1.0000
  S   S101      1.0  0.76492  0.92049  0.15220  1.0000
  Fe  Fe50      1.0  0.75307  0.83794  0.17136  1.0000
  S   S102      1.0  0.79962  0.82314  0.21000  1.0000
  S   S103      1.0  0.71313  0.81369  0.14081  1.0000
  Fe  Fe51      1.0  0.80569  0.85118  0.26097  1.0000
  S   S104      1.0  0.83335  0.84716  0.33898  1.0000
  Fe  Fe52      1.0  0.81772  0.84682  0.16734  1.0000
  S   S105      1.0  0.84856  0.83164  0.13068  1.0000
  S   S106      1.0  0.75718  0.86455  0.22597  1.0000
  S   S107      1.0  0.77087  0.85978  0.12551  1.0000
  H   H772      1.0  0.68568  0.93351  0.00335  1.0000
  Fe  Fe53      1.0  0.96950  0.88114  0.03516  1.0000
  C   C438      1.0  0.91518  0.85702  0.26317  1.0000
  S   S108      1.0  0.95613  0.89045  0.09860  1.0000
  H   H773      1.0  0.73556  0.91519  0.23134  1.0000
  C   C439      1.0  0.82836  0.82692  0.37942  1.0000
  C   C440      1.0  0.85294  0.82344  0.42143  1.0000
  H   H774      1.0  0.86164  0.85887  0.48078  1.0000
  C   C441      1.0  0.82143  0.79750  0.44970  1.0000
  C   C442      1.0  0.79723  0.80027  0.40678  1.0000
  C   C443      1.0  0.80056  0.81498  0.37192  1.0000
  H   H775      1.0  0.87476  0.83213  0.42683  1.0000
  H   H776      1.0  0.94440  0.80978  0.15827  1.0000
  H   H777      1.0  0.77555  0.79125  0.40080  1.0000
  H   H778      1.0  0.78147  0.81729  0.33963  1.0000
  C   C444      1.0  0.87735  0.84866  0.12056  1.0000
  C   C445      1.0  0.88153  0.87084  0.13542  1.0000
  C   C446      1.0  0.90585  0.88361  0.12872  1.0000
  C   C447      1.0  0.92549  0.87442  0.10611  1.0000
  C   C448      1.0  0.92099  0.85232  0.09094  1.0000
  C   C449      1.0  0.89709  0.83946  0.09836  1.0000
  H   H779      1.0  0.86624  0.87809  0.15236  1.0000
  H   H780      1.0  0.90932  0.90069  0.14065  1.0000
  H   H781      1.0  0.93654  0.84491  0.07476  1.0000
  H   H782      1.0  0.89411  0.82226  0.08717  1.0000
  H   H783      1.0  0.57326  0.69714  0.07845  1.0000
  C   C450      1.0  0.76650  0.96633  0.15351  1.0000
  C   C451      1.0  0.77581  0.94671  0.18003  1.0000
  C   C452      1.0  0.79289  0.94848  0.22767  1.0000
  H   H784      1.0  0.94316  0.84702  0.19572  1.0000
  H   H785      1.0  0.75329  0.96515  0.11660  1.0000
  H   H786      1.0  0.80023  0.93356  0.24850  1.0000
  H   H787      1.0  0.66932  0.93074  0.17573  1.0000
  C   C453      1.0  0.69172  0.78458  0.06702  1.0000
  C   C454      1.0  0.70181  0.80643  0.08073  1.0000
  C   C455      1.0  0.69996  0.82250  0.04618  1.0000
  C   C456      1.0  0.80010  0.96964  0.24865  1.0000
  H   H788      1.0  0.69332  0.77212  0.09363  1.0000
  H   H789      1.0  0.70742  0.83940  0.05617  1.0000
  H   H790      1.0  0.60546  0.96109  0.05819  1.0000
  C   C457      1.0  0.99417  0.81001  0.37819  1.0000
  C   C458      1.0  0.86351  0.78928  0.29858  1.0000
  H   H791      1.0  0.98431  0.81072  0.30383  1.0000
  H   H792      1.0  0.85421  0.79959  0.32143  1.0000
  C   C459      1.0  0.67969  0.77884  0.01919  1.0000
  H   H793      1.0  0.75864  0.77453  0.08215  1.0000
  H   H794      1.0  0.93539  0.86521  0.25641  1.0000
  H   H795      1.0  0.66658  0.73642  0.06488  1.0000
  H   H796      1.0  0.92473  0.87001  0.33521  1.0000
  H   H797      1.0  0.62685  0.90722  0.12026  1.0000
  H   H798      1.0  0.95959  0.95151  0.04426  1.0000
  C   C460      1.0  0.92787  0.82138  0.23568  1.0000
  H   H799      1.0  0.93406  0.80366  0.24364  1.0000
  C   C461      1.0  0.96437  0.81622  0.18768  1.0000
  H   H800      1.0  0.55395  0.65829  0.05813  1.0000
  C   C462      1.0  0.97077  0.81068  0.32856  1.0000
  C   C463      1.0  0.63136  0.75364  0.10670  1.0000
  H   H801      1.0  0.88403  0.86762  0.30204  1.0000
  C   C464      1.0  0.90732  0.87190  0.29979  1.0000
  H   H802      1.0  0.59354  0.72971  0.09405  1.0000
  N   N25       1.0  0.92223  0.83286  0.27661  1.0000
  H   H803      1.0  0.65004  0.86891  0.05740  1.0000
  C   C465      1.0  0.89527  0.79806  0.29876  1.0000
  H   H804      1.0  0.64769  0.82646  0.09368  1.0000
  H   H805      1.0  0.84668  0.78933  0.26240  1.0000
  H   H806      1.0  0.68386  0.88280  0.01907  1.0000
  C   C466      1.0  0.78317  0.78057  0.09440  1.0000
  H   H807      1.0  0.81299  0.97082  0.28568  1.0000
  H   H808      1.0  0.93009  0.90229  0.28699  1.0000
  C   C467      1.0  0.81269  0.88735  0.44164  1.0000
  H   H809      1.0  0.65680  0.75341  0.12606  1.0000
  H   H810      1.0  0.89913  0.90666  0.31128  1.0000
  H   H811      1.0  0.96600  0.84614  0.32294  1.0000
  C   C468      1.0  0.67097  0.70649  0.02971  1.0000
  H   H812      1.0  0.63187  0.68543  0.09308  1.0000
  H   H813      1.0  0.90295  0.78730  0.27496  1.0000
  H   H814      1.0  0.62770  0.76271  0.07318  1.0000
  H   H815      1.0  0.97694  0.80202  0.20913  1.0000
  H   H816      1.0  0.86582  0.77190  0.31198  1.0000
  H   H817      1.0  0.87299  0.82494  0.25142  1.0000
  H   H818      1.0  0.70855  0.72986  0.03176  1.0000
  H   H819      1.0  0.62109  0.68372  0.03094  1.0000
  H   H820      1.0  0.65208  0.90173  0.01042  1.0000
  H   H821      1.0  0.90593  0.82079  0.20522  1.0000
  H   H822      1.0  0.89538  0.85821  0.22970  1.0000
  S   S109      1.0  0.95536  0.84966  0.99416  1.0000
  H   H823      1.0  0.83438  0.88445  0.43314  1.0000
  H   H824      1.0  0.60078  0.94373  0.10437  1.0000
  H   H825      1.0  0.61952  0.75840  0.17054  1.0000
  C   C469      1.0  0.62933  0.83742  0.09827  1.0000
  H   H826      1.0  0.86871  0.80626  0.48842  1.0000
  C   C470      1.0  0.77344  0.80663  0.02485  1.0000
  N   N26       1.0  0.66803  0.89620  0.10563  1.0000
  C   C471      1.0  0.70526  0.71182  0.03721  1.0000
  C   C472      1.0  0.68486  0.89860  0.15757  1.0000
  C   C473      1.0  0.66250  0.87159  0.09541  1.0000
  C   C474      1.0  0.63699  0.90801  0.09122  1.0000
  H   H827      1.0  0.67195  0.76206  0.00868  1.0000
  C   C475      1.0  0.84954  0.80890  0.45643  1.0000
  H   H828      1.0  0.65498  0.94289  0.10094  1.0000
  C   C476      1.0  0.69148  0.92262  0.17694  1.0000
  C   C477      1.0  0.64354  0.85911  0.12261  1.0000
  H   H829      1.0  0.88983  0.89929  0.25040  1.0000
  H   H830      1.0  0.75964  0.82809  0.44784  1.0000
  H   H831      1.0  0.73766  0.82919  0.48796  1.0000
  C   C478      1.0  0.57464  0.73772  0.00505  1.0000
  H   H832      1.0  0.70165  0.91302  0.25038  1.0000
  H   H833      1.0  0.67149  0.89058  0.17840  1.0000
  H   H834      1.0  0.70748  0.88969  0.16702  1.0000
  H   H835      1.0  0.81463  0.92317  0.43014  1.0000
  C   C479      1.0  0.79845  0.90891  0.41702  1.0000
  H   H836      1.0  0.74855  0.80142  0.01481  1.0000
  H   H837      1.0  0.65919  0.85472  0.15835  1.0000
  H   H838      1.0  0.81847  0.79218  0.06677  1.0000
  H   H839      1.0  0.77591  0.91231  0.42271  1.0000
  C   C480      1.0  0.67773  0.90008  0.02589  1.0000
  C   C481      1.0  0.94189  0.96349  0.04758  1.0000
  H   H840      1.0  0.61971  0.89926  0.06133  1.0000
  C   C482      1.0  0.60705  0.72746  0.01076  1.0000
  C   C483      1.0  0.71257  0.92258  0.22812  1.0000
  H   H841      1.0  0.71998  0.70697  0.07313  1.0000
  C   C484      1.0  0.57903  0.66272  0.06686  1.0000
  H   H842      1.0  0.71665  0.93998  0.24120  1.0000
  H   H843      1.0  0.71249  0.89628  0.09360  1.0000
  H   H844      1.0  0.77599  0.82043  0.05038  1.0000
  C   C485      1.0  0.68928  0.90443  0.07951  1.0000
  H   H845      1.0  0.57736  0.75310  0.02627  1.0000
  H   H846      1.0  0.79824  0.76702  0.11458  1.0000
  H   H847      1.0  0.91146  0.79624  0.33515  1.0000
  C   C486      1.0  0.61651  0.69302  0.05983  1.0000
  C   C487      1.0  0.89346  0.82287  0.28389  1.0000
  H   H848      1.0  0.95276  0.97394  0.07901  1.0000
  H   H849      1.0  0.79595  0.87368  0.42616  1.0000
  H   H850      1.0  0.88749  0.83180  0.31196  1.0000
  C   C488      1.0  0.94996  0.83174  0.32105  1.0000
  H   H851      1.0  0.71888  0.91523  0.01558  1.0000
  C   C489      1.0  0.90658  0.89652  0.28614  1.0000
  H   H852      1.0  0.67271  0.71243  0.10134  1.0000
  H   H853      1.0  0.61198  0.84093  0.06336  1.0000
  H   H854      1.0  0.94205  0.83354  0.35219  1.0000
  H   H855      1.0  0.86190  0.95012  0.12019  1.0000
  H   H856      1.0  0.62658  0.78373  0.14309  1.0000
  H   H857      1.0  0.71307  0.70234  0.01154  1.0000
  H   H858      1.0  0.70325  0.93292  0.15709  1.0000
  H   H859      1.0  0.81234  0.84408  0.47029  1.0000
  H   H860      1.0  0.92219  0.95395  0.05282  1.0000
  H   H861      1.0  0.68517  0.86272  0.10315  1.0000
  C   C490      1.0  0.69307  0.91613  0.00036  1.0000
  H   H862      1.0  0.58611  0.93448  0.04396  1.0000
  C   C491      1.0  0.58229  0.68720  0.05495  1.0000
  H   H863      1.0  0.79406  0.90731  0.37870  1.0000
  C   C492      1.0  0.65923  0.71882  0.06578  1.0000
  C   C493      1.0  0.61872  0.72935  0.09829  1.0000
  H   H864      1.0  0.59059  0.76861  0.11756  1.0000
  C   C494      1.0  0.85521  0.95764  0.14911  1.0000
  H   H865      1.0  0.78511  0.79498  0.11818  1.0000
  C   C495      1.0  0.61596  0.76682  0.13631  1.0000
  H   H866      1.0  0.83137  0.81236  0.01399  1.0000
  H   H867      1.0  0.61741  0.82840  0.11991  1.0000
  H   H868      1.0  0.98183  0.80890  0.40450  1.0000
  H   H869      1.0  0.83397  0.94894  0.15118  1.0000
  C   C496      1.0  0.79356  0.78723  0.05274  1.0000
  H   H870      1.0  0.69448  0.92245  0.08556  1.0000
  H   H871      1.0  0.74890  0.84987  0.01461  1.0000
  H   H872      1.0  0.58936  0.65173  0.04643  1.0000
  C   C497      1.0  0.93041  0.97834  0.00405  1.0000
  H   H873      1.0  0.87422  0.95503  0.18286  1.0000
  H   H874      1.0  0.97355  0.83805  0.24713  1.0000
  H   H875      1.0  0.62952  0.72002  0.13166  1.0000
  N   N27       1.0  0.62460  0.71740  0.05804  1.0000
  C   C498      1.0  0.63668  0.93279  0.07575  1.0000
  C   C499      1.0  0.95309  0.83228  0.21779  1.0000
  C   C500      1.0  0.76151  0.82832  0.48549  1.0000
  H   H876      1.0  0.64055  0.93408  0.04137  1.0000
  H   H877      1.0  0.95707  0.79505  0.32290  1.0000
  H   H878      1.0  0.81575  0.83693  0.02852  1.0000
  C   C501      1.0  0.68703  0.81691  0.99846  1.0000
  C   C502      1.0  0.60528  0.94359  0.07028  1.0000
  H   H879      1.0  0.62423  0.86937  0.12615  1.0000
  H   H880      1.0  0.79149  0.77225  0.03058  1.0000
  H   H881      1.0  0.85679  0.85975  0.01018  1.0000
  H   H882      1.0  0.62097  0.74107  0.00170  1.0000
  H   H883      1.0  0.59083  0.65961  0.10483  1.0000
  H   H884      1.0  0.98054  0.82511  0.17264  1.0000
  H   H885      1.0  0.66917  0.68817  0.03330  1.0000
  H   H886      1.0  0.77881  0.86191  0.99478  1.0000
  C   C503      1.0  0.84852  0.98247  0.14023  1.0000
  C   C504      1.0  0.81335  0.82525  0.99895  1.0000
  H   H887      1.0  0.55939  0.72618  0.01642  1.0000
  H   H888      1.0  0.56727  0.68986  0.01815  1.0000
  H   H889      1.0  0.65737  0.71146  0.99340  1.0000
  H   H890      1.0  0.87355  0.83462  0.99557  1.0000
  Fe  Fe54      1.0  0.60202  0.73055  0.80529  1.0000
  S   S110      1.0  0.63320  0.70076  0.81736  1.0000
  S   S111      1.0  0.55926  0.72870  0.73967  1.0000
  Fe  Fe55      1.0  0.64694  0.75492  0.89070  1.0000
  S   S112      1.0  0.67993  0.72602  0.90906  1.0000
  S   S113      1.0  0.98478  0.87094  0.91753  1.0000
  Fe  Fe56      1.0  0.67350  0.72494  0.83183  1.0000
  S   S114      1.0  0.71473  0.71821  0.80551  1.0000
  Fe  Fe57      1.0  0.63637  0.70471  0.89259  1.0000
  C   C505      1.0  0.88923  0.73739  0.91920  1.0000
  S   S115      1.0  0.64206  0.75454  0.81384  1.0000
  S   S116      1.0  0.60365  0.73376  0.88033  1.0000
  Fe  Fe58      1.0  0.82046  0.78042  0.66426  1.0000
  S   S117      1.0  0.82043  0.80732  0.61158  1.0000
  S   S118      1.0  0.78204  0.78304  0.69835  1.0000
  Fe  Fe59      1.0  0.88502  0.76331  0.66478  1.0000
  S   S119      1.0  0.88917  0.78859  0.61150  1.0000
  S   S120      1.0  0.92146  0.73940  0.71090  1.0000
  Fe  Fe60      1.0  0.87064  0.81246  0.65299  1.0000
  S   S121      1.0  0.89317  0.84575  0.67519  1.0000
  Fe  Fe61      1.0  0.83845  0.78149  0.57319  1.0000
  S   S122      1.0  0.86969  0.78803  0.70832  1.0000
  S   S123      1.0  0.83513  0.75383  0.62329  1.0000
  Fe  Fe62      1.0  0.93911  0.87174  0.93117  1.0000
  S   S124      1.0  0.89126  0.86580  0.87925  1.0000
  C   C506      1.0  0.89203  0.85217  0.73114  1.0000
  C   C507      1.0  0.86684  0.84517  0.74495  1.0000
  C   C508      1.0  0.86628  0.85016  0.79001  1.0000
  C   C509      1.0  0.89137  0.86137  0.82189  1.0000
  C   C510      1.0  0.91640  0.86855  0.80787  1.0000
  C   C511      1.0  0.91657  0.86417  0.76233  1.0000
  H   H891      1.0  0.84763  0.83613  0.72075  1.0000
  H   H892      1.0  0.84665  0.84499  0.80045  1.0000
  H   H893      1.0  0.93542  0.87775  0.83185  1.0000
  H   H894      1.0  0.93596  0.86972  0.75157  1.0000
  C   C512      1.0  0.73233  0.73637  0.77436  1.0000
  C   C513      1.0  0.75425  0.72770  0.75507  1.0000
  C   C514      1.0  0.76924  0.74156  0.73086  1.0000
  C   C515      1.0  0.76285  0.76437  0.72629  1.0000
  C   C516      1.0  0.74069  0.77296  0.74518  1.0000
  C   C517      1.0  0.72549  0.75909  0.76899  1.0000
  H   H895      1.0  0.75965  0.71013  0.75883  1.0000
  H   H896      1.0  0.78577  0.73461  0.71582  1.0000
  H   H897      1.0  0.73537  0.79055  0.74156  1.0000
  H   H898      1.0  0.70874  0.76604  0.78361  1.0000
  H   H899      1.0  0.88299  0.76046  0.78835  1.0000
  N   N28       1.0  0.78124  0.81479  0.98255  1.0000
  H   H900      1.0  0.55971  0.68216  0.69249  1.0000
  H   H901      1.0  0.57122  0.69385  0.90945  1.0000
  C   C518      1.0  0.63965  0.69571  0.61814  1.0000
  C   C519      1.0  0.83612  0.80015  0.85058  1.0000
  H   H902      1.0  0.79678  0.89314  0.50029  1.0000
  C   C520      1.0  0.97707  0.74810  0.69272  1.0000
  C   C521      1.0  0.96245  0.73808  0.72213  1.0000
  C   C522      1.0  0.98079  0.72617  0.76163  1.0000
  H   H903      1.0  0.85662  0.71321  0.93167  1.0000
  H   H904      1.0  0.96326  0.75714  0.66195  1.0000
  H   H905      1.0  0.96968  0.71808  0.78422  1.0000
  H   H906      1.0  0.67038  0.77324  0.68557  1.0000
  C   C523      1.0  0.55139  0.66623  0.79579  1.0000
  C   C524      1.0  0.75590  0.85329  0.98323  1.0000
  C   C525      1.0  0.85599  0.84788  0.98166  1.0000
  H   H907      1.0  0.68599  0.91173  0.96262  1.0000
  C   C526      1.0  0.75684  0.83138  0.95666  1.0000
  H   H908      1.0  0.90371  0.74336  0.83525  1.0000
  H   H909      1.0  0.70838  0.86227  0.94166  1.0000
  H   H910      1.0  0.89079  0.80667  0.81834  1.0000
  C   C527      1.0  0.86495  0.86498  0.51675  1.0000
  S   S125      1.0  0.94953  0.90319  0.97268  1.0000
  C   C528      1.0  0.52182  0.71997  0.74039  1.0000
  H   H911      1.0  0.78566  0.79894  0.81784  1.0000
  C   C529      1.0  0.89991  0.78130  0.87488  1.0000
  H   H912      1.0  0.67872  0.71389  0.60544  1.0000
  H   H913      1.0  0.62254  0.70338  0.58651  1.0000
  C   C530      1.0  0.86401  0.75370  0.88952  1.0000
  C   C531      1.0  0.91663  0.84429  0.53760  1.0000
  H   H914      1.0  0.65446  0.68976  0.53612  1.0000
  H   H915      1.0  0.59799  0.66848  0.65492  1.0000
  H   H916      1.0  0.53912  0.67403  0.76132  1.0000
  H   H917      1.0  0.87608  0.83218  0.55247  1.0000
  H   H918      1.0  0.83459  0.90368  0.50854  1.0000
  C   C532      1.0  0.81563  0.88681  0.58953  1.0000
  H   H919      1.0  0.63294  0.67788  0.61689  1.0000
  H   H920      1.0  0.87789  0.88108  0.51994  1.0000
  H   H921      1.0  0.79117  0.88206  0.57088  1.0000
  H   H922      1.0  0.81703  0.86754  0.65177  1.0000
  Fe  Fe63      1.0  0.99667  0.90118  0.96444  1.0000
  N   N29       1.0  0.83373  0.86859  0.52371  1.0000
  H   H923      1.0  0.93837  0.79199  0.69694  1.0000
  H   H924      1.0  0.86232  0.85713  0.95403  1.0000
  C   C533      1.0  0.67212  0.69655  0.61123  1.0000
  H   H925      1.0  0.91055  0.83644  0.50260  1.0000
  H   H926      1.0  0.99607  0.79435  0.72876  1.0000
  H   H927      1.0  0.73313  0.82389  0.94802  1.0000
  C   C534      1.0  0.73227  0.86948  0.95198  1.0000
  C   C535      1.0  0.88635  0.96126  0.87579  1.0000
  C   C536      1.0  0.98193  0.79644  0.75231  1.0000
  H   H928      1.0  0.86209  0.88122  0.59170  1.0000
  H   H929      1.0  0.80119  0.82603  0.83914  1.0000
  C   C537      1.0  0.90477  0.94262  0.86099  1.0000
  H   H930      1.0  0.57612  0.66364  0.79849  1.0000
  H   H931      1.0  0.94214  0.82457  0.84520  1.0000
  C   C538      1.0  0.58510  0.68405  0.64226  1.0000
  H   H932      1.0  0.84659  0.78639  0.79116  1.0000
  C   C539      1.0  0.88279  0.92610  0.82763  1.0000
  H   H933      1.0  0.84164  0.85611  0.59399  1.0000
  C   C540      1.0  0.84410  0.78002  0.82451  1.0000
  H   H934      1.0  0.93603  0.95253  0.95838  1.0000
  C   C541      1.0  0.95002  0.80492  0.72287  1.0000
  H   H935      1.0  0.73266  0.88514  0.97143  1.0000
  H   H936      1.0  0.86824  0.95284  0.88764  1.0000
  H   H937      1.0  0.93235  0.83284  0.56364  1.0000
  H   H938      1.0  0.95621  0.80449  0.89206  1.0000
  H   H939      1.0  0.93527  0.80826  0.74513  1.0000
  C   C542      1.0  0.85660  0.73193  0.79813  1.0000
  H   H940      1.0  0.57876  0.68450  0.60343  1.0000
  C   C543      1.0  0.51486  0.71805  0.78219  1.0000
  H   H941      1.0  0.91936  0.93313  0.89180  1.0000
  H   H942      1.0  0.92028  0.94976  0.84260  1.0000
  S   S126      1.0  0.81574  0.77938  0.49329  1.0000
  H   H943      1.0  0.83904  0.98157  0.90226  1.0000
  C   C544      1.0  0.54180  0.66978  0.92854  1.0000
  H   H944      1.0  0.53259  0.72179  0.81523  1.0000
  C   C545      1.0  0.88040  0.75097  0.81858  1.0000
  H   H945      1.0  0.78483  0.80253  0.91727  1.0000
  H   H946      1.0  0.69043  0.68950  0.64200  1.0000
  C   C546      1.0  0.88744  0.84843  0.55108  1.0000
  C   C547      1.0  0.86431  0.71944  0.75938  1.0000
  C   C548      1.0  0.64520  0.73118  0.65890  1.0000
  H   H947      1.0  0.86832  0.91713  0.84555  1.0000
  H   H948      1.0  0.86742  0.93475  0.79602  1.0000
  H   H949      1.0  0.89668  0.91357  0.81622  1.0000
  C   C549      1.0  0.60443  0.70515  0.66364  1.0000
  C   C550      1.0  0.87684  0.72356  0.95210  1.0000
  H   H950      1.0  0.89564  0.79158  0.90280  1.0000
  C   C551      1.0  0.91039  0.79687  0.84150  1.0000
  C   C552      1.0  0.82339  0.83780  0.96093  1.0000
  H   H951      1.0  0.55074  0.67775  0.82408  1.0000
  H   H952      1.0  0.85654  0.71965  0.82573  1.0000
  H   H953      1.0  0.83274  0.73850  0.78282  1.0000
  H   H954      1.0  0.84180  0.74426  0.87410  1.0000
  H   H955      1.0  0.73074  0.79173  0.91286  1.0000
  H   H956      1.0  0.63048  0.73833  0.62473  1.0000
  H   H957      1.0  0.95238  0.82037  0.70389  1.0000
  H   H958      1.0  0.54123  0.66787  0.63796  1.0000
  H   H959      1.0  0.77306  0.75121  0.91961  1.0000
  H   H960      1.0  0.63662  0.66772  0.72053  1.0000
  C   C553      1.0  0.55750  0.74421  0.95418  1.0000
  H   H961      1.0  0.92070  0.77110  0.89326  1.0000
  H   H962      1.0  0.82397  0.82638  0.93253  1.0000
  H   H963      1.0  0.84783  0.70528  0.74707  1.0000
  C   C554      1.0  0.91714  0.96415  0.95899  1.0000
  H   H964      1.0  0.92933  0.86016  0.53747  1.0000
  N   N30       1.0  0.63739  0.70679  0.66176  1.0000
  H   H965      1.0  0.97837  0.77988  0.76610  1.0000
  H   H966      1.0  0.86192  0.73067  0.72904  1.0000
  C   C555      1.0  0.78069  0.84837  0.51017  1.0000
  H   H967      1.0  0.88843  0.71282  0.77233  1.0000
  H   H968      1.0  0.60390  0.71481  0.98265  1.0000
  C   C556      1.0  0.83943  0.87242  0.57543  1.0000
  H   H969      1.0  0.57132  0.75661  0.94164  1.0000
  H   H970      1.0  0.66685  0.66527  0.57274  1.0000
  H   H971      1.0  0.73206  0.75337  0.88765  1.0000
  C   C557      1.0  0.67204  0.68311  0.56829  1.0000
  H   H972      1.0  0.82286  0.76930  0.81312  1.0000
  N   N31       1.0  0.87218  0.76652  0.85189  1.0000
  H   H973      1.0  0.84522  0.88999  0.66267  1.0000
  C   C558      1.0  0.93526  0.81334  0.86952  1.0000
  H   H974      1.0  0.85938  0.76531  0.91500  1.0000
  H   H975      1.0  0.82544  0.83312  0.52731  1.0000
  H   H976      1.0  0.70819  0.66824  0.75198  1.0000
  H   H977      1.0  0.68458  0.82960  0.97195  1.0000
  H   H978      1.0  0.92049  0.78700  0.81896  1.0000
  H   H979      1.0  0.59005  0.71939  0.64455  1.0000
  H   H980      1.0  0.75935  0.83565  0.92208  1.0000
  H   H981      1.0  0.99909  0.82921  0.77571  1.0000
  H   H982      1.0  0.83378  0.79507  0.88461  1.0000
  C   C559      1.0  0.65854  0.67193  0.71352  1.0000
  H   H983      1.0  0.89575  0.85539  0.58688  1.0000
  H   H984      1.0  0.52198  0.68083  0.92019  1.0000
  H   H985      1.0  0.64553  0.78100  0.71888  1.0000
  H   H986      1.0  0.62884  0.77652  0.65664  1.0000
  C   C560      1.0  0.64696  0.77073  0.68912  1.0000
  H   H987      1.0  0.69536  0.68426  0.56377  1.0000
  C   C561      1.0  0.75104  0.78155  0.93297  1.0000
  H   H988      1.0  0.65939  0.74171  0.73238  1.0000
  H   H989      1.0  0.60451  0.70677  0.70051  1.0000
  C   C562      1.0  0.75428  0.76289  0.90059  1.0000
  C   C563      1.0  0.80530  0.81072  0.82156  1.0000
  C   C564      1.0  0.56974  0.67726  0.92263  1.0000
  H   H990      1.0  0.80579  0.81533  0.78605  1.0000
  C   C565      1.0  0.64170  0.74622  0.69854  1.0000
  H   H991      1.0  0.85449  0.81320  0.85734  1.0000
  H   H992      1.0  0.89850  0.95320  0.96387  1.0000
  H   H993      1.0  0.78182  0.84743  0.54743  1.0000
  S   S127      1.0  0.63237  0.67332  0.93299  1.0000
  C   C566      1.0  0.68532  0.66425  0.75632  1.0000
  H   H994      1.0  0.68465  0.70177  0.70807  1.0000
  H   H995      1.0  0.65704  0.70514  0.73710  1.0000
  H   H996      1.0  0.61825  0.74472  0.70235  1.0000
  H   H997      1.0  0.75946  0.76982  0.86967  1.0000
  H   H998      1.0  0.81856  0.90461  0.58137  1.0000
  H   H999      1.0  0.90998  0.74672  0.94130  1.0000
  C   C567      1.0  0.66033  0.69732  0.70579  1.0000
  H   H1000     1.0  0.66986  0.73338  0.66024  1.0000
  H   H1001     1.0  0.98185  0.81558  0.81314  1.0000
  H   H1002     1.0  0.92603  0.82378  0.89222  1.0000
  C   C568      1.0  0.59584  0.66348  0.93477  1.0000
  H   H1003     1.0  0.89689  0.72563  0.89701  1.0000
  H   H1004     1.0  0.65996  0.66231  0.68306  1.0000
  H   H1005     1.0  0.80734  0.85166  0.94515  1.0000
  H   H1006     1.0  0.54038  0.69784  0.63977  1.0000
  H   H1007     1.0  0.98023  0.78090  0.84249  1.0000
  C   C569      1.0  0.55478  0.68294  0.65393  1.0000
  C   C570      1.0  0.78125  0.79593  0.94968  1.0000
  H   H1008     1.0  0.68407  0.67250  0.78856  1.0000
  C   C571      1.0  0.99781  0.81282  0.79247  1.0000
  S   S128      1.0  0.65995  0.78913  0.92435  1.0000
  C   C572      1.0  0.82099  0.88496  0.64219  1.0000
  C   C573      1.0  0.67684  0.79508  0.98475  1.0000
  H   H1009     1.0  0.50633  0.65418  0.83775  1.0000
  H   H1010     1.0  0.80455  0.89597  0.65198  1.0000
  H   H1011     1.0  0.94998  0.97193  0.90258  1.0000
  H   H1012     1.0  0.74563  0.77371  0.96284  1.0000
  H   H1013     1.0  0.98913  0.75129  0.90359  1.0000
  H   H1014     1.0  0.87293  0.97059  0.84366  1.0000
  N   N32       1.0  0.90556  0.97690  0.91328  1.0000
  H   H1015     1.0  0.77231  0.81260  0.50243  1.0000
  H   H1016     1.0  0.55297  0.72931  0.93122  1.0000
  C   C574      1.0  0.81405  0.84798  0.50701  1.0000
  H   H1017     1.0  0.89540  0.71228  0.97345  1.0000
  C   C575      1.0  0.00409  0.77792  0.86672  1.0000
  H   H1018     1.0  0.86253  0.97982  0.96284  1.0000
  H   H1019     1.0  0.73828  0.87355  0.91994  1.0000
  H   H1020     1.0  0.53471  0.75178  0.95146  1.0000
  H   H1021     1.0  0.80133  0.78466  0.96556  1.0000
  Fe  Fe64      1.0  0.00255  0.85104  0.98432  1.0000
  H   H1022     1.0  0.99793  0.74240  0.85244  1.0000
  H   H1023     1.0  0.86963  0.73454  0.97623  1.0000
  H   H1024     1.0  0.76787  0.86349  0.49364  1.0000
  C   C576      1.0  0.81926  0.88890  0.49545  1.0000
