data_image0
_chemical_formula_structural       H6SHFeS2FeS2FeSFeS3CSC2SFeSFeSH2CSHCFeS2FeS2FeSFeS4CFeSC3H2CHC2HC6H4C2HC2H4C4NH3C7H4C6H4C6H4CHC2H8C4H5CH4CH3SH3NHCH2CHCSH3CHCH9C4H9CH2CHFeH8CHCH2C3HNHCHC2HCHCH4CH8C2H4C6H9CH3NCHCHC3HSC2H8C2H5CH3CH3C2H3CHCH5CHCH2C2HCHC3H4C2HC2H3CH2C2H5CH6CH2CH3CHCHNC4HC3H2C2H9CH9CNHCSH2CH3CNH3C2H3CH2CH2FeS2FeS2FeSFeS3CHCSC2SHNH3C2H5FeS2FeSFeSFeS3HFeCSNH4C8H4C6H3FeHCHCH2C2HCH3SH3C6H4C2H2C2H7C7H5C2H2NHCHCH2CH2C2HC2HCH7CH5C5HCH3CH2NC7FeHC3H27NC3H2C4HC2H6CH2CH10CHCH2CSHC6H9CH4CH3CH4CH2SH3C2H3C2HC2SCH2CHC2HCH4CH3C3HNHCHCH5CH2FeNH10CH2CH2CH2CH4CHCH2SCH3SHCH4CH2C3HNHCH6CH2CHSHCH6C3H2CH4SHC2HSCHCHCH2CH7FeS2FeS2FeSFeS4H2SHFe2SH2CH2CHFeS2FeS2Fe2S3C6H3C6H4CHCH3C6H4C6H4SC5H2CH4CSCH2CH2C3H3CHC2H6SNCH2CH3CH7CH2CH5CH2CHNH3CHFeCH2CH3C2H5CHCHCSHCHCH3C2HNC7HC2H12CH13CH5CH3CH4CHC2H3C3HCH5CH2CNC2H7CHFeHCH5CNC10NH25SH2CHC4HC2H2CH6C2HCH2C2H3CHCFeNC7H4CH2SH5CSH7SHCH3NC4HCHCHFeCH2SCHSCH3CH2C2H3CSC2SHFeS2FeS2FeSFeS3CSHFeS2FeS2FeSFeS3H2CHNCHNHCH2C6H4C6H6C2HCH2CHC6H4C5H3C6H4CHC4H4C6H9NC11H27FeHNC12H28C2HCH2CH4SH3CH7C3H2CHNC3H9CH14C2NC3FeCHC4HCH6SH5CH9CH2CHCH3C3H5CH4C2HC4H2CH2CH2C2H3FeCHCFeHCH3CH2CH5C4H3CH2NHNH2C2HSH2CHSH15C2HC2H3CFeHSCHFeS3HCFeSHSFeS2FeS2FeSFeS3FeSHSFeSFeS4FeHFeSFeHFe2S3FeSCSHCH4SH2C3H2C6H3NC2H3C4H2CFeC3HC2HC3HCH2C2HCHC6H4C6H4C8H4C6H4CH9SH5CHC2H3CH6CH3CSH2CH8CHCHSCH2CH2CHC4H4N2H3C2HCH3C3NC6H14CSNCH2C2H3CHCH9C2H2CH3CH7NC8H11FeH4CH2FeH2SH2CH3C2H5SC2NHSH4C4NHCHCSHCH6CH4CHCH4C3H3C3H2CHCH4CH6CH2FeH4CH3CH13C2H5FeH2CHC2HFeHCHCH3C3H4SH2SCHC3H7CH4CH2C3H5CH3CH5C2NC12H28NC7HSC3H15CHC2H8C2HC5H2C2H6CSHCH2CSCH3CHCNHFeCH2C2H2C2HFeHSCHCH2CHCH5C2HSH3NH4CNHC2HCH2CSH2C2H11CH4CHC2HCH3CSCH2CH2C5H6C2H5CH2FeH4CH2CHCSH6FeS2HC3FeS2CFeS2FeS2FeSNS2FeS2CH6FeS2FeS2FeSFeS4C3FeHFeS2FeSFeS3CSHSCSH4SHC5H2SCHC6H6SH9C6H4C6H4CHC2HCH4C6H7C6H4C6H4C6H4CHCHC6H4CNH5CH4CHSH4CH2CHSC2H3CH9C2NH7CNHCHC7HCH16NCH3CH2CHC2H3CH3CFeHCSFeH2CHC2HCH3C2HCH2SCSHSH3CH2CH2CH4CH5FeCNHCH5CNCH2SH4C3FeH2CH5CH4C2HCH3CH2CHCH2SCHC2S2H3C3H12C2HC2H4CHCH4NC10H20NH2CH5CH3C4H5FeCH2CSCH4C4HCHCHC2NC2H2C2H2CH3CHSH6CFeHCSH5CH5CHCSCH3C2HC4H2FeH6C4H4C2H2NCH4C4HCHC3HC2HSH5CSHFeCHCHNCHC5H2C3H2SCH11C2HSH4FeHNCSFeH2SC4H4CHSHFeH3CFeCNCFeH5CHC2H6CFeH4C2HCHCH2C2NH2CH3SHC3H2CH2FeH5FeCH2CHFeCH3CH3SH6CH4CH6SH5SH5C2HCH7CH2FeCH2C2FeS2FeS2FeSFeS3FeS2HSFeSFeS2FeS2HCFeSFeS3FeSFeS2HS2H4CSHFeS2FeS2Fe2S3H2SHSH2C7H7C4H2SC6H4C6H4C6H4C6H4CHC5H5SH3CH4FeHCSCHC4H7CHCHCH2CH2C8H5C2HC3H8C3H5CH5CNC5HC4H13CH4NCH2SH3CHCNC10HCH24FeH3NC9HC2H30SH7CHC2H2CHCH2CH7CH6C2HC2HCH3CH2C6H2C2HCSHCHNHC2H3FeHNH5SH2CHCHCH3CHNFeCHCS2C2SCH2CH2CH2CHCHSH5CHFeHNC12H30SCH3C2FeH4CH3SFeNHCH2C2HCNHC6H3CH3CH2CH3SH2C3H3C3H2C2HCHCH2CH2CFeHFeHSH4CHCH2CHC2H3SH2CH2SHCH2CHCHC3HCH4CHC3HC2HC2H3CHC3HCH3C2H5CH7C2H2CH4CH3SNHCSH2CNCHFeHCSH3CHCSHCH10C3NHCH2CH3CH7CNHSH8S3C2H2S2HFeS2FeS2FeSFeS3FeS2FeSHFeSFeS3FeS2FeS2FeS2FeSFeSHS2FeS2FeSFeSHFeSCHFeSFeSCHCHC2HC6H2C6H3C6H3C6H4C6H2SHC6H4C6H4CH3FeC2H3C3H2C7H6C2HCHC7H4CHC4H2CHCH4CFeHCH4SH3CHFeHSH5CH2CHCHCHCH3NCH2CH6SCH2CH2NC12H22CH2CH5CH4SCHCH2CH3CH9CHCH2FeC3HCH4CHCH11CSC5H2CH2CH2CH8NC12H17CH10NC7H17CHNC12H17CH4CSHSH2NC11H19CH6CH3CH3CH3CH4C2HCH2CH2CHNHNC10H8CH10SH6C3HCFe2H2C3H5CSCHSH4SC2H4CHCSNC3SHCH2CH3SH6NH2CH2CH2CHC3H3CFeSCSC2HC2SH3NHCHCHCHCH4C2H7CHSH3CH3FeH3CH2C2H3CH3CH6C2H5CH2S2H6C2H2CHCH4CHSH2CH2CH2FeH3CSH6SHCHCHFeSH2CHCFeS2FeH2FeNFeHS2HCHFeS2FeC2FeSFeCS2HCH2NCSC3SCH2SH2C4H2CH3CHCHCHCH4SHCSHC6H4CHCH2CNH5C6H4CH5CHCH2SH2SHCH5CHCHSHCHCH3C2H2CH2SCH4CH4CSHCHCHCHCH2C2H2CHSH2CH2CHNC12H14CH3C2HCHSC2NH10SCH2CH3C2H2CHSH9CHC3H3CH4CH5C2SH4FeSHFe2S2Fe2S3H3FeS2FeCHCS2C2H10C7H7CHC4HC7H5CH5C6H7S2CHC3H5CH5CH3CFeCH3SH2CHCH2C2H5CH4NH5SH3NCHNC7HC2H10SH2CH7CH4CH4CHCNH6C2H2CH2CHC2NC2HSCHCH3SC2NC12H28CHSH2CH2CHC2H3C3H3C2HCH10FeH2C2H2C3HCHCHCHCHCH2CH4C2H3CHSH3SCHC3HCH2SHFeSFeS2Fe3S3FeS3CHFeHFeS3FeCHC2H2C3H5CH3CHCFeC6H4C6H4C3H2SHC6H4CHCH2CHCHCH6CH6CH3NCHCH5NH5CHCHCHCHCH2C3SCH2CHCH4SHCHCH3C2HC2H5CH7CH5SH6C4H6CH2SH8C2H3CHSH5CH3CH2CH2C2H2CHCH5CH2C3HCH2SHC2HNHCH2CH2CNH2C2H5C2H2CHFeH3CHNCH4CH3CH4CH2FeHC2H3C2HCH6CSH3FeSHC2FeHSCH4SCFeSH2S2FeSH2SHFeS2FeSHFeHFeS3H2FeC3NH2CHCHC4H4CSH4CH4C7H6C3HCH3C6H4NH7C3H4CH6C2H4CHCHCH2CH2CHC2SH3SH2NCHCH2CH7C4H2FeHCHCHCH2SH7CHCHFeC2H16CHCFeNCH2CHCSH2C3H2CH2CHCH2CHNH2C3H3CHCHC2H3CSHC2H2FeH2CH4C2HCH3SHCHCHNH4CH3CH3NHCH3CHCHSCSH2CSCHSH2C2SHFeS2FeS2FeSHFeS3FeS2FeS2FeSFeS4FeS2FeS2FeS2FeSFeS4C2HC2H2C6H4C6H5C4SH2CHCHC3H3C6H6CHC7H4C6H4FeCH2C2H3C2H3C2H2C2H4C4NC6H9CNHCHFeC3HC2H3C3H4SCH3CH4C2HCNH2SCH4FeH4FeCH4C2H3CH6C3SCH2SHSCHCHC3H8NC4H2CHFeH2CH9CHCH2CH4NH6CH2C4HCH6CH3SC2HC2HCHC2H3CH2FeHCH4CH7SH3NC8H20CH5SH6CH4FeHC2H3CHC2H3CHCH3FeH4CHCH5C2HC2H6CH2CHC3HSCHCH3CH2CH2SCH13CH2CH2SH3CHCH2C2H2CHC2H7C2HCNC4HCHC2HCH13CH4CHFeH3NCSCH3CH2CH8CNC4H3CHFeCH2SCSHC2HCH3C3H2CSHC4HCSHCH2CH4CNH5NH3C4H5NH2CH2CH4C2H3C3H4SCH2CHC2HCHCH2CH2C4FeH5C2H2NH3FeHCH5CSCH4CH6CFeH2C2H2C3SC2HCHFeS2FeS2FeSFeS3H2CH4SHCHSC2SHFeS3FeSFeS2FeS2FeS2FeSFeS3HC2H2SH5CH2SH5CFeC6H4CHC2HC6H4C6H4C4HC4H5C3H2C3H2C3H2CHCHSHCHC4FeH4C4H4NC3HFeHC2HCFeCH6C2H12CSH6CHCHCH3CSH3CHCH2CHC2HCFeHCNC11H24CHC2SFeSHC2H3SHSCHCFeCH2NC10H14CH8FeSCH2C2HC2FeHC3HCH3C4H2CHNCH6CH4CHCH2SC2HCHC3H2CH2CHCHCHCHFe2H2CH4SCHSH4CHSCHC2HCHCH3SC2H4CSH3C2SH4NC8H13CHNH2NSHCH3CH2C4H5SH4SH2CHC4H3SH4C2H3CHSHSH2CH4NH3C2H2CHCH2CH2CHFeH2NC11H22CH2C2H4CSC2H2C2HCFeHCHCH4CFeCHCSCH7NHCHC2HNHCHCH2CH4CH3CHNHCH3CHCH3CHCHCH6CH3CFeH14CH4CH3CHFeCHC2FeCSHC5HCSHFeSHCFeH2CHFeS2FeS2FeSFeS3FeS2FeS2H2FeSHSCFeS2H2SHFeS2FeS2FeSFeS3C4SCH2CHC2HC6H4C2HC6H6CHC2H2SC3H2C2H7FeH3C3HC2H4C2HC5H4CHCHC6H5C3H4CH7NC12H28CH2CH2CH3CH2CH5SFeCHCH3NC7H18C3H3CH3SH7CNC8H18C3HCH10FeHCFeHNCH2CS2FeH2SNCH2CH3C3HCSH3C2HCNC12H24CH3C2HCH2SCHC2H3FeCSH7SHNH3CHC2H2SCH5CHCHCH2C2HCH5C2HSHCH6CHC2H4CHCH6CNHC2HCNH2NC12H17FeH10NC2HC2SHC4H12CHCH2CH8SC2HC2H2C3H2NH2CHC2H3CH2C2SCNCHC3HCSHC3HCHSHC2H3CHCH3CHCH2C3HSH2C3HC2HCH4C2H3CHCH11C3HSH2CH2C2H2CH4SHC2H5CSH2C2H3SHC2H5CNFeH2CH2CFeS2FeS2FeHFeS3HSH2CFeS2FeS2FeSFeS3FeS2H2SFeHFeS2FeS3CH4NHCSH3C2H4CHCH2C4H7C2FeHC6H5CH3C6H7SHFeHC6H6FeCHC4HCH4C6H4C2HSC2H3C6HCH3NC2H3CH2SH2SH2CFeHCHCH2CH4SC3H2NC11H29C4SCH2SCH4C2H4SC3HC2NC2H3C2HCHCHCH4C2HCHNH4CH2CHCH3CH2FeNCHC2H2NH4CH2C3H2CHCH2FeHC2H12SCFeH3CH2CH4NH2C2HC3H2CHCHCHC2H2NH2C3HC4HCH8CH5CH3CH10CHCH2C2H4CHC2SNC4HC2HCHFeCH9CH5CH2CH3SC2H3CHCH2CH3CH2C3H3CH2CH6C2H2SCH3CH2C3H3C2H2CH2CH2CH8C2HC2H3CH2CH6C2H3SHSHCH3CH2SCH4CH2C2H3CHSCHCHSHFeHSCHSHFeS2FeS2FeSFeS2FeSCH4SFeSHSHSNFeS2FeS2FeSFeS2HS2HCFeSH3C2H2CH2C6H4CH2CHCHFeCHC6H5C6H2C6H6CHS2H2CHC6H5CH8C2H7SCH5CH2FeH2SC3H3C6FeC2H3CH3CH4CH5CH2C3HCH3NC12H29C3NC7H2CH5FeH3CH4CNC5FeC3FeHCH20CNH12CHSFeSH14CHS2CHN2CH2CNHC7H7SH7NC6HC4H26C4HCH2CH8CH2CHC3HCH2CHCH5C2HCHC3H2CH4CH2CH9CSHCHC2HCH6C2HC2HCH5CH3SHCH2FeS2FeS2FeS3FeSHFeS2FeSFeS3HS2HFeS2H5FeHS2FeSFeS2FeS3FeCSHFeH3SHFeH2SH5SCH2CHC6H5CHFeHC4H5C6H4C7H7SH2C7H4C6H4C2HC4H3C6H4SH8C2HCHCHC2H3CHCHCH5CHNC2H6NC12H28FeH3C3H5NC8HC3H17CH10CHCSH6C2H2CH3FeSH5CH2C3HSCHC2H3NC10FeCH17CHC4HCH4CH2NCHC6H13CSCHC2H3NC8HSFeH5SH5CH3CH3CH3CH4CNHCH3FeCH6CH2SHFeCH10FeSHFeS2FeS2FeS2FeS2FeSFeS3CS2CHSCFeS2FeSFeS5HFeS2FeSFeS2CHC2H2SNH6CHC6H5FeH2C6H4C6H5C2SHCH2NC2HC4H3C6H4C6H5C2H2FeSHCH2C4H3CH5CHCH4C4HSCFeH5CHSH3SCH2FeCH2CH7FeHC2SCSFeH5CHCH10NC11H29CH3C2H2C4HNHC2H3CS2CH2CHC2H9SHC2H4CH5CNSH2FeHCHCH5C3HCSCNC7HC3H17FeH5NC12H30CH3CHNH3CH2CH2C2HCH2C3H5CH7C2H10CH2CHC2H2FeCH2CHCH2C2NH2CHC2S2HCH2CHC4H7C2H4C2H2CH2CH2S2FeSCFeS2FeSFeS3FeS2FeS2Fe2S3FeSHSFeS2FeHFeS2FeSFeS2FeSFeS3HCSC6H4C6H6C2HC6H6C6H2CHC6H4C6H4C6H8CH2C3HSHCH6CH5NC8HCHCH18NH4C2H3NC4H2C2HNCH7CH2CH3C4H3CHCH4CH2C2NH6CHFeCSH2C3HFeHCHCHCH4CH4NHCH8CH2CHC2HSHFeH4CH5C2H6CH6C2HCH2NH2CH5CH4CH3NH2NC12H28C2H3CH3CHC2H2CH4CH5SHCHNH2CHC2HCHCHCSHC2H2CHCHCHC2HSH3CH4CH2CHC2H5FeHC2HC2H2CNH2CH5CH4CHCH12CHCH4SC2H2CSCH4C2H2FeCH
_chemical_formula_sum              "H6144 S768 Fe384 C3456 N192"
_cell_length_a       72.9122
_cell_length_b       72.9264
_cell_length_c       72.734
_cell_angle_alpha    75.0608
_cell_angle_beta     75.2168
_cell_angle_gamma    75.1451

_space_group_name_H-M_alt    "P 1"
_space_group_IT_number       1

loop_
  _space_group_symop_operation_xyz
  'x, y, z'

loop_
  _atom_site_type_symbol
  _atom_site_label
  _atom_site_symmetry_multiplicity
  _atom_site_fract_x
  _atom_site_fract_y
  _atom_site_fract_z
  _atom_site_occupancy
  H   H1        1.0  0.18284  0.46401  0.28226  1.0000
  H   H2        1.0  0.07785  0.14449  0.35152  1.0000
  H   H3        1.0  0.09925  0.33185  0.33574  1.0000
  H   H4        1.0  0.09141  0.24553  0.41654  1.0000
  H   H5        1.0  0.99809  0.23000  0.31957  1.0000
  H   H6        1.0  0.17535  0.06239  0.38551  1.0000
  S   S1        1.0  0.17547  0.34368  0.38267  1.0000
  H   H7        1.0  0.10990  0.35813  0.22654  1.0000
  Fe  Fe1       1.0  0.07953  0.31001  0.25105  1.0000
  S   S2        1.0  0.09826  0.28069  0.24884  1.0000
  S   S3        1.0  0.08864  0.33416  0.25851  1.0000
  Fe  Fe2       1.0  0.04604  0.30137  0.23861  1.0000
  S   S4        1.0  0.06230  0.27162  0.23487  1.0000
  S   S5        1.0  0.01427  0.31318  0.23769  1.0000
  Fe  Fe3       1.0  0.07097  0.26947  0.26292  1.0000
  S   S6        1.0  0.06602  0.24326  0.28640  1.0000
  Fe  Fe4       1.0  0.08814  0.28547  0.22094  1.0000
  S   S7        1.0  0.10924  0.27584  0.19476  1.0000
  S   S8        1.0  0.05307  0.29840  0.26766  1.0000
  S   S9        1.0  0.07108  0.31569  0.22209  1.0000
  C   C1        1.0  0.12880  0.19151  0.46921  1.0000
  S   S10       1.0  0.14589  0.35970  0.34041  1.0000
  C   C2        1.0  0.05904  0.25581  0.34988  1.0000
  C   C3        1.0  0.18838  0.15861  0.44131  1.0000
  S   S11       1.0  0.17276  0.36122  0.29637  1.0000
  Fe  Fe5       1.0  0.16241  0.38072  0.31808  1.0000
  S   S12       1.0  0.14996  0.41305  0.31098  1.0000
  Fe  Fe6       1.0  0.15906  0.33913  0.31993  1.0000
  S   S13       1.0  0.14644  0.31544  0.31590  1.0000
  H   H8        1.0  0.14925  0.21151  0.43414  1.0000
  H   H9        1.0  0.02969  0.23583  0.32076  1.0000
  C   C4        1.0  0.11965  0.35703  0.21222  1.0000
  S   S14       1.0  0.17710  0.32141  0.15498  1.0000
  H   H10       1.0  0.17338  0.43175  0.38657  1.0000
  C   C5        1.0  0.01242  0.23975  0.28911  1.0000
  Fe  Fe7       1.0  0.11009  0.14753  0.39474  1.0000
  S   S15       1.0  0.07992  0.15827  0.41089  1.0000
  S   S16       1.0  0.12540  0.11688  0.40505  1.0000
  Fe  Fe8       1.0  0.11189  0.18592  0.36659  1.0000
  S   S17       1.0  0.08238  0.19962  0.38060  1.0000
  S   S18       1.0  0.12710  0.20454  0.34050  1.0000
  Fe  Fe9       1.0  0.09147  0.18467  0.40871  1.0000
  S   S19       1.0  0.08451  0.20328  0.43081  1.0000
  Fe  Fe10      1.0  0.07370  0.17214  0.38113  1.0000
  S   S20       1.0  0.04708  0.17775  0.36829  1.0000
  S   S21       1.0  0.12197  0.17309  0.39475  1.0000
  S   S22       1.0  0.10298  0.15924  0.36512  1.0000
  S   S23       1.0  0.17101  0.23000  0.45314  1.0000
  C   C6        1.0  0.13594  0.23094  0.41145  1.0000
  Fe  Fe11      1.0  0.15128  0.25722  0.46064  1.0000
  S   S24       1.0  0.13661  0.27512  0.43610  1.0000
  C   C7        1.0  0.10141  0.19831  0.44579  1.0000
  C   C8        1.0  0.10313  0.21315  0.45380  1.0000
  C   C9        1.0  0.18328  0.31990  0.26882  1.0000
  H   H11       1.0  0.01760  0.16718  0.31548  1.0000
  H   H12       1.0  0.07492  0.10667  0.32476  1.0000
  C   C10       1.0  0.11321  0.17990  0.44973  1.0000
  H   H13       1.0  0.09397  0.22738  0.45091  1.0000
  C   C11       1.0  0.16513  0.31952  0.41733  1.0000
  C   C12       1.0  0.01296  0.19630  0.29775  1.0000
  H   H14       1.0  0.11178  0.16832  0.44376  1.0000
  C   C13       1.0  0.12655  0.17639  0.46184  1.0000
  C   C14       1.0  0.16877  0.07749  0.38120  1.0000
  C   C15       1.0  0.15348  0.08657  0.39413  1.0000
  C   C16       1.0  0.14451  0.10600  0.38848  1.0000
  C   C17       1.0  0.15096  0.11639  0.36989  1.0000
  C   C18       1.0  0.16626  0.10730  0.35696  1.0000
  H   H15       1.0  0.13991  0.23771  0.39586  1.0000
  H   H16       1.0  0.14847  0.07845  0.40847  1.0000
  H   H17       1.0  0.14414  0.13140  0.36543  1.0000
  H   H18       1.0  0.99309  0.21147  0.35615  1.0000
  C   C19       1.0  0.16178  0.42899  0.31606  1.0000
  C   C20       1.0  0.15171  0.44773  0.31834  1.0000
  H   H19       1.0  0.17239  0.36469  0.15364  1.0000
  C   C21       1.0  0.06830  0.10500  0.34054  1.0000
  C   C22       1.0  0.06678  0.16778  0.31878  1.0000
  H   H20       1.0  0.13683  0.45248  0.31656  1.0000
  H   H21       1.0  0.03834  0.10937  0.35799  1.0000
  H   H22       1.0  0.08554  0.28134  0.33499  1.0000
  H   H23       1.0  0.10717  0.08607  0.36787  1.0000
  C   C23       1.0  0.15226  0.31721  0.39060  1.0000
  C   C24       1.0  0.14362  0.30202  0.40267  1.0000
  C   C25       1.0  0.14634  0.29508  0.42185  1.0000
  C   C26       1.0  0.15705  0.30388  0.42919  1.0000
  N   N1        1.0  0.10377  0.27205  0.35634  1.0000
  H   H24       1.0  0.15062  0.32210  0.37564  1.0000
  H   H25       1.0  0.13521  0.29531  0.39701  1.0000
  H   H26       1.0  0.17117  0.11534  0.34254  1.0000
  C   C27       1.0  0.18737  0.03845  0.44010  1.0000
  C   C28       1.0  0.08363  0.23267  0.30071  1.0000
  C   C29       1.0  0.08000  0.21735  0.31634  1.0000
  C   C30       1.0  0.09356  0.20849  0.32818  1.0000
  C   C31       1.0  0.11092  0.21487  0.32454  1.0000
  C   C32       1.0  0.11474  0.23012  0.30877  1.0000
  C   C33       1.0  0.10103  0.23910  0.29690  1.0000
  H   H27       1.0  0.06656  0.21237  0.31941  1.0000
  H   H28       1.0  0.09047  0.19671  0.34016  1.0000
  H   H29       1.0  0.12811  0.23515  0.30588  1.0000
  H   H30       1.0  0.10393  0.25092  0.28484  1.0000
  C   C34       1.0  0.12787  0.28873  0.18348  1.0000
  C   C35       1.0  0.12566  0.30798  0.18480  1.0000
  C   C36       1.0  0.14072  0.31802  0.17561  1.0000
  C   C37       1.0  0.15810  0.30882  0.16521  1.0000
  C   C38       1.0  0.16027  0.28961  0.16375  1.0000
  C   C39       1.0  0.14510  0.27965  0.17272  1.0000
  H   H31       1.0  0.11230  0.31514  0.19287  1.0000
  H   H32       1.0  0.13892  0.33294  0.17661  1.0000
  H   H33       1.0  0.17373  0.28231  0.15601  1.0000
  H   H34       1.0  0.14687  0.26473  0.17168  1.0000
  C   C40       1.0  0.10502  0.32866  0.27419  1.0000
  C   C41       1.0  0.11107  0.34384  0.27802  1.0000
  C   C42       1.0  0.12408  0.33996  0.29053  1.0000
  C   C43       1.0  0.13110  0.32084  0.29922  1.0000
  C   C44       1.0  0.12546  0.30562  0.29499  1.0000
  C   C45       1.0  0.11238  0.30951  0.28258  1.0000
  H   H35       1.0  0.10547  0.35868  0.27149  1.0000
  H   H36       1.0  0.12837  0.35177  0.29371  1.0000
  H   H37       1.0  0.13102  0.29078  0.30153  1.0000
  H   H38       1.0  0.10784  0.29772  0.27964  1.0000
  C   C46       1.0  0.15065  0.46845  0.38099  1.0000
  H   H39       1.0  0.07233  0.29198  0.16223  1.0000
  C   C47       1.0  0.00756  0.29173  0.21476  1.0000
  C   C48       1.0  0.01425  0.22709  0.26061  1.0000
  H   H40       1.0  0.13550  0.16211  0.46506  1.0000
  H   H41       1.0  0.10616  0.12010  0.34798  1.0000
  H   H42       1.0  0.16817  0.30855  0.20021  1.0000
  H   H43       1.0  0.02200  0.29250  0.20632  1.0000
  H   H44       1.0  0.17043  0.38566  0.13386  1.0000
  H   H45       1.0  0.17619  0.23775  0.10631  1.0000
  H   H46       1.0  0.11479  0.32729  0.35293  1.0000
  H   H47       1.0  0.08132  0.09173  0.40829  1.0000
  C   C49       1.0  0.01654  0.16793  0.36107  1.0000
  C   C50       1.0  0.02976  0.16324  0.37338  1.0000
  C   C51       1.0  0.02899  0.14721  0.38884  1.0000
  C   C52       1.0  0.01490  0.13602  0.39195  1.0000
  H   H48       1.0  0.17361  0.15412  0.47165  1.0000
  H   H49       1.0  0.10452  0.40509  0.37361  1.0000
  H   H50       1.0  0.03910  0.14357  0.39845  1.0000
  H   H51       1.0  0.01423  0.12369  0.40396  1.0000
  H   H52       1.0  0.07319  0.25983  0.39012  1.0000
  C   C53       1.0  0.14668  0.37707  0.43289  1.0000
  H   H53       1.0  0.01724  0.18016  0.34895  1.0000
  H   H54       1.0  0.04159  0.12664  0.33540  1.0000
  H   H55       1.0  0.05918  0.10997  0.41137  1.0000
  H   H56       1.0  0.05639  0.26554  0.33588  1.0000
  C   C54       1.0  0.10638  0.32181  0.07171  1.0000
  H   H57       1.0  0.15298  0.47309  0.36492  1.0000
  H   H58       1.0  0.07444  0.13296  0.38339  1.0000
  H   H59       1.0  0.16404  0.40578  0.41095  1.0000
  S   S25       1.0  0.17195  0.26375  0.47514  1.0000
  H   H60       1.0  0.03566  0.25190  0.21541  1.0000
  H   H61       1.0  0.16381  0.25158  0.24039  1.0000
  H   H62       1.0  0.00620  0.25505  0.24085  1.0000
  N   N2        1.0  0.17705  0.18410  0.41147  1.0000
  H   H63       1.0  0.18182  0.19014  0.43743  1.0000
  C   C55       1.0  0.08572  0.26140  0.41308  1.0000
  H   H64       1.0  0.14742  0.39713  0.35309  1.0000
  H   H65       1.0  0.00044  0.27775  0.19543  1.0000
  C   C56       1.0  0.11641  0.40336  0.36075  1.0000
  H   H66       1.0  0.07148  0.08911  0.34648  1.0000
  C   C57       1.0  0.15048  0.11810  0.44411  1.0000
  S   S26       1.0  0.18373  0.31116  0.06549  1.0000
  H   H67       1.0  0.17566  0.40693  0.35643  1.0000
  H   H68       1.0  0.15466  0.35398  0.10778  1.0000
  H   H69       1.0  0.17832  0.11387  0.45099  1.0000
  C   C58       1.0  0.07501  0.14595  0.32257  1.0000
  H   H70       1.0  0.14185  0.10995  0.43982  1.0000
  C   C59       1.0  0.08477  0.28363  0.15331  1.0000
  H   H71       1.0  0.13130  0.24251  0.42005  1.0000
  H   H72       1.0  0.04158  0.08354  0.34002  1.0000
  H   H73       1.0  0.14315  0.12103  0.45875  1.0000
  H   H74       1.0  0.00746  0.21896  0.25402  1.0000
  H   H75       1.0  0.05629  0.24141  0.35023  1.0000
  H   H76       1.0  0.09265  0.33241  0.06995  1.0000
  H   H77       1.0  0.15917  0.20466  0.39239  1.0000
  H   H78       1.0  0.15265  0.47440  0.32571  1.0000
  H   H79       1.0  0.16044  0.37661  0.43709  1.0000
  C   C60       1.0  0.18813  0.15605  0.46289  1.0000
  C   C61       1.0  0.01711  0.24810  0.31910  1.0000
  C   C62       1.0  0.08018  0.11715  0.38463  1.0000
  C   C63       1.0  0.07082  0.13700  0.34463  1.0000
  H   H80       1.0  0.01187  0.19522  0.39431  1.0000
  H   H81       1.0  0.18157  0.14715  0.44003  1.0000
  H   H82       1.0  0.12282  0.29148  0.35395  1.0000
  H   H83       1.0  0.98975  0.16350  0.41503  1.0000
  H   H84       1.0  0.08968  0.33895  0.35888  1.0000
  H   H85       1.0  0.13756  0.09551  0.34658  1.0000
  H   H86       1.0  0.09177  0.27102  0.16327  1.0000
  H   H87       1.0  0.15075  0.13219  0.43368  1.0000
  H   H88       1.0  0.18918  0.40909  0.31582  1.0000
  C   C64       1.0  0.01018  0.19127  0.41034  1.0000
  H   H89       1.0  0.15893  0.29875  0.44406  1.0000
  H   H90       1.0  0.05519  0.11385  0.37656  1.0000
  C   C65       1.0  0.07110  0.10913  0.37201  1.0000
  H   H91       1.0  0.16323  0.14453  0.38677  1.0000
  Fe  Fe12      1.0  0.17354  0.34855  0.35140  1.0000
  H   H92       1.0  0.99277  0.38108  0.20928  1.0000
  H   H93       1.0  0.02422  0.19581  0.43153  1.0000
  H   H94       1.0  0.05510  0.14139  0.35041  1.0000
  H   H95       1.0  0.13904  0.47955  0.38743  1.0000
  H   H96       1.0  0.13460  0.38662  0.44092  1.0000
  H   H97       1.0  0.08141  0.11386  0.41483  1.0000
  H   H98       1.0  0.14591  0.19129  0.41338  1.0000
  H   H99       1.0  0.99805  0.17252  0.30266  1.0000
  C   C66       1.0  0.04592  0.11124  0.34254  1.0000
  H   H100      1.0  0.16185  0.17904  0.44140  1.0000
  C   C67       1.0  0.00288  0.24305  0.30988  1.0000
  H   H101      1.0  0.14376  0.36216  0.43715  1.0000
  H   H102      1.0  0.00981  0.25110  0.33371  1.0000
  C   C68       1.0  0.00246  0.15689  0.36425  1.0000
  C   C69       1.0  0.13615  0.39906  0.36637  1.0000
  C   C70       1.0  0.17489  0.25222  0.10939  1.0000
  H   H103      1.0  0.02717  0.23053  0.28943  1.0000
  N   N3        1.0  0.15617  0.41312  0.38281  1.0000
  H   H104      1.0  0.16022  0.37392  0.40393  1.0000
  C   C71       1.0  0.13848  0.41603  0.37425  1.0000
  H   H105      1.0  0.18092  0.29768  0.00368  1.0000
  C   C72       1.0  0.15204  0.40512  0.40442  1.0000
  C   C73       1.0  0.14830  0.38425  0.41097  1.0000
  H   H106      1.0  0.14523  0.34247  0.13225  1.0000
  C   C74       1.0  0.14465  0.44880  0.38749  1.0000
  H   H107      1.0  0.16469  0.26467  0.39056  1.0000
  C   C75       1.0  0.17904  0.37097  0.13854  1.0000
  H   H108      1.0  0.18930  0.17472  0.37310  1.0000
  H   H109      1.0  0.16318  0.18003  0.37897  1.0000
  H   H110      1.0  0.12500  0.42006  0.38499  1.0000
  H   H111      1.0  0.13839  0.42844  0.36149  1.0000
  C   C76       1.0  0.16115  0.43275  0.37961  1.0000
  H   H112      1.0  0.04501  0.10094  0.31721  1.0000
  H   H113      1.0  0.02834  0.21759  0.26320  1.0000
  H   H114      1.0  0.13896  0.41436  0.41165  1.0000
  H   H115      1.0  0.13441  0.38381  0.40768  1.0000
  H   H116      1.0  0.17094  0.33005  0.27579  1.0000
  H   H117      1.0  0.12039  0.37195  0.20377  1.0000
  H   H118      1.0  0.14126  0.44541  0.40361  1.0000
  H   H119      1.0  0.13120  0.45050  0.38222  1.0000
  C   C77       1.0  0.08504  0.27329  0.35035  1.0000
  C   C78       1.0  0.10863  0.29195  0.35062  1.0000
  H   H120      1.0  0.11509  0.39121  0.35494  1.0000
  H   H121      1.0  0.18428  0.24360  0.38988  1.0000
  H   H122      1.0  0.17916  0.25011  0.12353  1.0000
  H   H123      1.0  0.17852  0.03133  0.45358  1.0000
  C   C79       1.0  0.16393  0.32146  0.24374  1.0000
  C   C80       1.0  0.11960  0.25906  0.34479  1.0000
  C   C81       1.0  0.10320  0.26368  0.37777  1.0000
  C   C82       1.0  0.07999  0.25352  0.35160  1.0000
  C   C83       1.0  0.14066  0.25838  0.34622  1.0000
  C   C84       1.0  0.15477  0.24099  0.33908  1.0000
  H   H124      1.0  0.11893  0.26343  0.32906  1.0000
  H   H125      1.0  0.11739  0.24385  0.34942  1.0000
  H   H126      1.0  0.10774  0.24756  0.38051  1.0000
  H   H127      1.0  0.11400  0.26868  0.38271  1.0000
  H   H128      1.0  0.08933  0.24693  0.33940  1.0000
  H   H129      1.0  0.08242  0.24323  0.36535  1.0000
  H   H130      1.0  0.14170  0.25745  0.36139  1.0000
  H   H131      1.0  0.14555  0.27166  0.33697  1.0000
  H   H132      1.0  0.09571  0.26910  0.41596  1.0000
  C   C85       1.0  0.15325  0.21621  0.41816  1.0000
  H   H133      1.0  0.16984  0.24177  0.33882  1.0000
  H   H134      1.0  0.15162  0.22726  0.34896  1.0000
  H   H135      1.0  0.15364  0.24087  0.32416  1.0000
  N   N4        1.0  0.15863  0.31212  0.22999  1.0000
  C   C86       1.0  0.15510  0.29203  0.23988  1.0000
  H   H136      1.0  0.02239  0.10397  0.33453  1.0000
  C   C87       1.0  0.13977  0.32424  0.22481  1.0000
  H   H137      1.0  0.17175  0.33327  0.23540  1.0000
  C   C88       1.0  0.08340  0.26789  0.39193  1.0000
  C   C89       1.0  0.14995  0.28058  0.22724  1.0000
  C   C90       1.0  0.13990  0.34583  0.21494  1.0000
  H   H138      1.0  0.06845  0.13942  0.31431  1.0000
  S   S27       1.0  0.18557  0.32635  0.33290  1.0000
  C   C91       1.0  0.00538  0.17856  0.31070  1.0000
  C   C92       1.0  0.14919  0.25972  0.23803  1.0000
  H   H139      1.0  0.14316  0.29289  0.25294  1.0000
  H   H140      1.0  0.16785  0.28268  0.24557  1.0000
  H   H141      1.0  0.01194  0.36055  0.20480  1.0000
  H   H142      1.0  0.15060  0.32869  0.25281  1.0000
  H   H143      1.0  0.12799  0.32383  0.23800  1.0000
  H   H144      1.0  0.13506  0.31815  0.21476  1.0000
  H   H145      1.0  0.05081  0.17081  0.32395  1.0000
  H   H146      1.0  0.18434  0.11840  0.41580  1.0000
  C   C93       1.0  0.17974  0.45387  0.32631  1.0000
  C   C94       1.0  0.17635  0.16949  0.38260  1.0000
  H   H147      1.0  0.13554  0.28735  0.22359  1.0000
  H   H148      1.0  0.10259  0.07850  0.34807  1.0000
  H   H149      1.0  0.14945  0.34695  0.20030  1.0000
  H   H150      1.0  0.14497  0.35320  0.22370  1.0000
  H   H151      1.0  0.17522  0.41482  0.24565  1.0000
  C   C95       1.0  0.18107  0.42314  0.31813  1.0000
  H   H152      1.0  0.02443  0.23140  0.22005  1.0000
  H   H153      1.0  0.18689  0.28452  0.36571  1.0000
  H   H154      1.0  0.17335  0.32635  0.42307  1.0000
  C   C96       1.0  0.17704  0.16638  0.40436  1.0000
  H   H155      1.0  0.16680  0.29898  0.27006  1.0000
  H   H156      1.0  0.12903  0.35456  0.11561  1.0000
  H   H157      1.0  0.99260  0.16041  0.35447  1.0000
  C   C97       1.0  0.18697  0.05916  0.44139  1.0000
  C   C98       1.0  0.17888  0.40629  0.25973  1.0000
  H   H158      1.0  0.11340  0.34978  0.20428  1.0000
  H   H159      1.0  0.04595  0.22908  0.22938  1.0000
  H   H160      1.0  0.17277  0.09971  0.41659  1.0000
  C   C99       1.0  0.17378  0.31205  0.21147  1.0000
  H   H161      1.0  0.18500  0.25999  0.09766  1.0000
  C   C100      1.0  0.02492  0.19963  0.41560  1.0000
  H   H162      1.0  0.13764  0.38510  0.37695  1.0000
  H   H163      1.0  0.09619  0.11467  0.38033  1.0000
  H   H164      1.0  0.16969  0.09218  0.45480  1.0000
  H   H165      1.0  0.13333  0.08668  0.32728  1.0000
  H   H166      1.0  0.99034  0.25543  0.30934  1.0000
  C   C101      1.0  0.13061  0.08519  0.34328  1.0000
  H   H167      1.0  0.16435  0.15998  0.41307  1.0000
  C   C102      1.0  0.16314  0.32586  0.39791  1.0000
  H   H168      1.0  0.07142  0.26463  0.42290  1.0000
  H   H169      1.0  0.07921  0.27832  0.14321  1.0000
  C   C103      1.0  0.17689  0.17892  0.43306  1.0000
  C   C104      1.0  0.17097  0.10618  0.44465  1.0000
  H   H170      1.0  0.18607  0.39123  0.25820  1.0000
  C   C105      1.0  0.16066  0.46018  0.32346  1.0000
  H   H171      1.0  0.02253  0.26116  0.30998  1.0000
  C   C106      1.0  0.15857  0.19858  0.40817  1.0000
  C   C107      1.0  0.17593  0.15051  0.37758  1.0000
  C   C108      1.0  0.00141  0.14104  0.37979  1.0000
  H   H172      1.0  0.11484  0.41676  0.34927  1.0000
  H   H173      1.0  0.03977  0.19351  0.40828  1.0000
  H   H174      1.0  0.07335  0.17507  0.32639  1.0000
  H   H175      1.0  0.10761  0.33025  0.09732  1.0000
  C   C109      1.0  0.18244  0.10362  0.42398  1.0000
  C   C110      1.0  0.07513  0.10754  0.40607  1.0000
  H   H176      1.0  0.17454  0.25560  0.36844  1.0000
  C   C111      1.0  0.09989  0.32769  0.35142  1.0000
  C   C112      1.0  0.10889  0.08903  0.35184  1.0000
  H   H177      1.0  0.10329  0.11264  0.32783  1.0000
  H   H178      1.0  0.01512  0.25412  0.28039  1.0000
  H   H179      1.0  0.07258  0.28187  0.35893  1.0000
  C   C113      1.0  0.17516  0.08782  0.36256  1.0000
  H   H180      1.0  0.16890  0.31420  0.03165  1.0000
  H   H181      1.0  0.02229  0.21564  0.41065  1.0000
  C   C114      1.0  0.03836  0.09912  0.33295  1.0000
  C   C115      1.0  0.00082  0.29961  0.23143  1.0000
  H   H182      1.0  0.16533  0.22384  0.41494  1.0000
  H   H183      1.0  0.18474  0.28662  0.39833  1.0000
  H   H184      1.0  0.16619  0.43824  0.36382  1.0000
  H   H185      1.0  0.09086  0.14384  0.31670  1.0000
  H   H186      1.0  0.13899  0.25941  0.25230  1.0000
  C   C116      1.0  0.09911  0.11022  0.34396  1.0000
  H   H187      1.0  0.04883  0.26174  0.36215  1.0000
  H   H188      1.0  0.11865  0.32846  0.06247  1.0000
  H   H189      1.0  0.13749  0.07026  0.34974  1.0000
  H   H190      1.0  0.16079  0.27983  0.21351  1.0000
  H   H191      1.0  0.17686  0.32680  0.20507  1.0000
  H   H192      1.0  0.10631  0.30870  0.06663  1.0000
  C   C117      1.0  0.09433  0.30797  0.36047  1.0000
  H   H193      1.0  0.14411  0.25234  0.22924  1.0000
  H   H194      1.0  0.11022  0.29718  0.33461  1.0000
  C   C118      1.0  0.18214  0.30327  0.03110  1.0000
  H   H195      1.0  0.07644  0.28343  0.38951  1.0000
  H   H196      1.0  0.07391  0.09303  0.37644  1.0000
  H   H197      1.0  0.17851  0.36162  0.12889  1.0000
  C   C119      1.0  0.99596  0.21265  0.29162  1.0000
  H   H198      1.0  0.07013  0.17403  0.30297  1.0000
  C   C120      1.0  0.17601  0.30805  0.25866  1.0000
  H   H199      1.0  0.12356  0.22384  0.41364  1.0000
  N   N5        1.0  0.13158  0.29647  0.11598  1.0000
  C   C121      1.0  0.13190  0.31422  0.12285  1.0000
  C   C122      1.0  0.11758  0.28502  0.13064  1.0000
  C   C123      1.0  0.15165  0.28383  0.11472  1.0000
  C   C124      1.0  0.12686  0.30151  0.09600  1.0000
  H   H200      1.0  0.18380  0.43038  0.26806  1.0000
  C   C125      1.0  0.14663  0.32670  0.11001  1.0000
  C   C126      1.0  0.15404  0.26358  0.11010  1.0000
  C   C127      1.0  0.09913  0.29661  0.14200  1.0000
  H   H201      1.0  0.17030  0.38601  0.37341  1.0000
  H   H202      1.0  0.09494  0.30485  0.37609  1.0000
  C   C128      1.0  0.14363  0.34557  0.11689  1.0000
  C   C129      1.0  0.11702  0.20987  0.46514  1.0000
  H   H203      1.0  0.13513  0.30983  0.13771  1.0000
  H   H204      1.0  0.11746  0.32401  0.12449  1.0000
  H   H205      1.0  0.11297  0.27555  0.12360  1.0000
  H   H206      1.0  0.12489  0.27496  0.14227  1.0000
  H   H207      1.0  0.15661  0.28146  0.12858  1.0000
  H   H208      1.0  0.16227  0.29113  0.10317  1.0000
  H   H209      1.0  0.13912  0.30660  0.08478  1.0000
  H   H210      1.0  0.12541  0.28833  0.09194  1.0000
  H   H211      1.0  0.09525  0.31046  0.10149  1.0000
  C   C130      1.0  0.10806  0.31659  0.09306  1.0000
  H   H212      1.0  0.16164  0.31875  0.11088  1.0000
  H   H213      1.0  0.14521  0.33057  0.09460  1.0000
  H   H214      1.0  0.15064  0.26499  0.09572  1.0000
  H   H215      1.0  0.14449  0.25477  0.12129  1.0000
  H   H216      1.0  0.10318  0.30253  0.15272  1.0000
  H   H217      1.0  0.09151  0.30892  0.13241  1.0000
  H   H218      1.0  0.07927  0.30936  0.35894  1.0000
  H   H219      1.0  0.02098  0.20115  0.30609  1.0000
  H   H220      1.0  0.16519  0.40581  0.27072  1.0000
  C   C131      1.0  0.17326  0.40048  0.37224  1.0000
  N   N6        1.0  0.07736  0.11535  0.35029  1.0000
  H   H221      1.0  0.02323  0.19150  0.28494  1.0000
  C   C132      1.0  0.99529  0.28353  0.20855  1.0000
  S   S28       1.0  0.18918  0.37057  0.33052  1.0000
  H   H222      1.0  0.99487  0.18257  0.32377  1.0000
  H   H223      1.0  0.11854  0.22161  0.47075  1.0000
  C   C133      1.0  0.01941  0.24495  0.24485  1.0000
  H   H224      1.0  0.17481  0.15312  0.36212  1.0000
  H   H225      1.0  0.99820  0.37343  0.18630  1.0000
  H   H226      1.0  0.16421  0.46774  0.38571  1.0000
  C   C134      1.0  0.17819  0.25789  0.38147  1.0000
  N   N7        1.0  0.00126  0.23145  0.27947  1.0000
  H   H227      1.0  0.18873  0.29829  0.25183  1.0000
  H   H228      1.0  0.17160  0.06689  0.44304  1.0000
  H   H229      1.0  0.02747  0.25295  0.25000  1.0000
  C   C135      1.0  0.03214  0.23884  0.22633  1.0000
  C   C136      1.0  0.99729  0.36838  0.20221  1.0000
  H   H230      1.0  0.01416  0.17530  0.41487  1.0000
  H   H231      1.0  0.18125  0.03851  0.42756  1.0000
  H   H232      1.0  0.18939  0.13967  0.37972  1.0000
  C   C137      1.0  0.18896  0.29398  0.01520  1.0000
  H   H233      1.0  0.18925  0.41002  0.17498  1.0000
  H   H234      1.0  0.04812  0.24680  0.82718  1.0000
  C   C138      1.0  0.12453  0.20849  0.57928  1.0000
  H   H235      1.0  0.00382  0.15230  0.76990  1.0000
  H   H236      1.0  0.02384  0.25337  0.80673  1.0000
  Fe  Fe13      1.0  0.05253  0.14680  0.72689  1.0000
  S   S29       1.0  0.05259  0.13900  0.75884  1.0000
  S   S30       1.0  0.02704  0.15223  0.71250  1.0000
  Fe  Fe14      1.0  0.09410  0.15352  0.71560  1.0000
  S   S31       1.0  0.09734  0.14678  0.74660  1.0000
  S   S32       1.0  0.11967  0.15938  0.69146  1.0000
  Fe  Fe15      1.0  0.08290  0.12214  0.74995  1.0000
  S   S33       1.0  0.09640  0.09295  0.76596  1.0000
  Fe  Fe16      1.0  0.06716  0.16421  0.75256  1.0000
  S   S34       1.0  0.05660  0.18748  0.77020  1.0000
  S   S35       1.0  0.08152  0.12763  0.71846  1.0000
  S   S36       1.0  0.06518  0.17322  0.72116  1.0000
  C   C139      1.0  0.13479  0.23382  0.61590  1.0000
  H   H237      1.0  0.16829  0.33046  0.68840  1.0000
  C   C140      1.0  0.11199  0.03764  0.73453  1.0000
  S   S37       1.0  0.17997  0.06239  0.71904  1.0000
  C   C141      1.0  0.08290  0.23032  0.73511  1.0000
  C   C142      1.0  0.12896  0.99973  0.71943  1.0000
  S   S38       1.0  0.15150  0.28440  0.92993  1.0000
  H   H238      1.0  0.00230  0.08714  0.72987  1.0000
  N   N8        1.0  0.13376  0.21687  0.60801  1.0000
  H   H239      1.0  0.17157  0.22933  0.89669  1.0000
  H   H240      1.0  0.12363  0.20844  0.77022  1.0000
  H   H241      1.0  0.13942  0.20132  0.57317  1.0000
  C   C143      1.0  0.15688  0.07046  0.73254  1.0000
  C   C144      1.0  0.14188  0.29932  0.67061  1.0000
  H   H242      1.0  0.18781  0.40102  0.80369  1.0000
  H   H243      1.0  0.07413  0.22245  0.74810  1.0000
  H   H244      1.0  0.11533  0.30823  0.72653  1.0000
  H   H245      1.0  0.17077  0.21372  0.61924  1.0000
  H   H246      1.0  0.00475  0.21974  0.78130  1.0000
  Fe  Fe17      1.0  0.10610  0.26780  0.82322  1.0000
  S   S39       1.0  0.13012  0.24177  0.82738  1.0000
  S   S40       1.0  0.10798  0.29638  0.80202  1.0000
  Fe  Fe18      1.0  0.07626  0.24747  0.85303  1.0000
  S   S41       1.0  0.09819  0.22008  0.86018  1.0000
  Fe  Fe19      1.0  0.11786  0.23981  0.85927  1.0000
  S   S42       1.0  0.14129  0.23188  0.87710  1.0000
  Fe  Fe20      1.0  0.10871  0.22433  0.82790  1.0000
  S   S43       1.0  0.11710  0.19904  0.81275  1.0000
  S   S44       1.0  0.09494  0.26696  0.85513  1.0000
  S   S45       1.0  0.08587  0.25056  0.82081  1.0000
  H   H247      1.0  0.11305  0.20164  0.72681  1.0000
  Fe  Fe21      1.0  0.15759  0.24583  0.50258  1.0000
  C   C145      1.0  0.13766  0.23734  0.77305  1.0000
  S   S46       1.0  0.14864  0.25607  0.53112  1.0000
  N   N9        1.0  0.13513  0.20171  0.74176  1.0000
  H   H248      1.0  0.11748  0.99866  0.73276  1.0000
  H   H249      1.0  0.99627  0.06346  0.73791  1.0000
  H   H250      1.0  0.16157  0.04328  0.69137  1.0000
  H   H251      1.0  0.10225  0.23272  0.75150  1.0000
  C   C146      1.0  0.01917  0.25388  0.82198  1.0000
  C   C147      1.0  0.18716  0.09562  0.81219  1.0000
  C   C148      1.0  0.17071  0.30121  0.77466  1.0000
  C   C149      1.0  0.16577  0.28308  0.78250  1.0000
  C   C150      1.0  0.14649  0.28169  0.79045  1.0000
  C   C151      1.0  0.13198  0.29837  0.79087  1.0000
  C   C152      1.0  0.13677  0.31659  0.78253  1.0000
  C   C153      1.0  0.15621  0.31803  0.77444  1.0000
  H   H252      1.0  0.17692  0.27002  0.78256  1.0000
  H   H253      1.0  0.14289  0.26765  0.79606  1.0000
  H   H254      1.0  0.12555  0.32958  0.78273  1.0000
  H   H255      1.0  0.15998  0.33209  0.76830  1.0000
  C   C154      1.0  0.14929  0.27008  0.91463  1.0000
  C   C155      1.0  0.13266  0.27492  0.90657  1.0000
  C   C156      1.0  0.13011  0.26351  0.89482  1.0000
  C   C157      1.0  0.14408  0.24698  0.89128  1.0000
  C   C158      1.0  0.16076  0.24216  0.89929  1.0000
  C   C159      1.0  0.16338  0.25369  0.91087  1.0000
  H   H256      1.0  0.12161  0.28748  0.90957  1.0000
  H   H257      1.0  0.11717  0.26730  0.88884  1.0000
  H   H258      1.0  0.12404  0.00530  0.75921  1.0000
  Fe  Fe22      1.0  0.16854  0.24622  0.65641  1.0000
  H   H259      1.0  0.15728  0.04526  0.75578  1.0000
  C   C160      1.0  0.18252  0.08680  0.75600  1.0000
  H   H260      1.0  0.13580  0.22907  0.63152  1.0000
  C   C161      1.0  0.14753  0.20966  0.72288  1.0000
  H   H261      1.0  0.99404  0.17370  0.84356  1.0000
  H   H262      1.0  0.16886  0.36315  0.69202  1.0000
  C   C162      1.0  0.12934  0.03386  0.71760  1.0000
  C   C163      1.0  0.12283  0.20308  0.62346  1.0000
  H   H263      1.0  0.14828  0.27108  0.56396  1.0000
  C   C164      1.0  0.99383  0.21592  0.73797  1.0000
  H   H264      1.0  0.11262  0.30830  0.85273  1.0000
  H   H265      1.0  0.15463  0.02072  0.73908  1.0000
  H   H266      1.0  0.99871  0.18822  0.80209  1.0000
  S   S47       1.0  0.04430  0.25017  0.86707  1.0000
  H   H267      1.0  0.14874  0.19989  0.76587  1.0000
  H   H268      1.0  0.10230  0.02726  0.73780  1.0000
  H   H269      1.0  0.08283  0.22477  0.72229  1.0000
  C   C165      1.0  0.07292  0.18991  0.78303  1.0000
  C   C166      1.0  0.07002  0.20719  0.78935  1.0000
  C   C167      1.0  0.08323  0.20988  0.79895  1.0000
  C   C168      1.0  0.09937  0.19528  0.80239  1.0000
  C   C169      1.0  0.10214  0.17786  0.79629  1.0000
  C   C170      1.0  0.08889  0.17512  0.78670  1.0000
  H   H270      1.0  0.05768  0.21867  0.78656  1.0000
  H   H271      1.0  0.08099  0.22335  0.80344  1.0000
  H   H272      1.0  0.11461  0.16651  0.79893  1.0000
  H   H273      1.0  0.09106  0.16163  0.78212  1.0000
  C   C171      1.0  0.12398  0.18302  0.68507  1.0000
  C   C172      1.0  0.14204  0.18622  0.67399  1.0000
  H   H274      1.0  0.11668  0.19734  0.58911  1.0000
  H   H275      1.0  0.10553  0.19777  0.75239  1.0000
  C   C173      1.0  0.11430  0.21711  0.68655  1.0000
  C   C174      1.0  0.10995  0.19856  0.69107  1.0000
  H   H276      1.0  0.15277  0.17433  0.66894  1.0000
  H   H277      1.0  0.13321  0.23464  0.57930  1.0000
  H   H278      1.0  0.10355  0.22911  0.69134  1.0000
  H   H279      1.0  0.09585  0.19626  0.69935  1.0000
  H   H280      1.0  0.07042  0.35309  0.75531  1.0000
  H   H281      1.0  0.17592  0.21166  0.93994  1.0000
  H   H282      1.0  0.14828  0.23927  0.60837  1.0000
  C   C175      1.0  0.18401  0.26940  0.72592  1.0000
  C   C176      1.0  0.16741  0.20051  0.61708  1.0000
  C   C177      1.0  0.14910  0.05928  0.75018  1.0000
  C   C178      1.0  0.12781  0.09574  0.73586  1.0000
  C   C179      1.0  0.11984  0.08449  0.75333  1.0000
  C   C180      1.0  0.13056  0.06627  0.76054  1.0000
  C   C181      1.0  0.02716  0.25194  0.85298  1.0000
  H   H283      1.0  0.11973  0.10982  0.73018  1.0000
  H   H284      1.0  0.12445  0.05753  0.77406  1.0000
  H   H285      1.0  0.18782  0.29813  0.71169  1.0000
  H   H286      1.0  0.12681  0.29608  0.70020  1.0000
  H   H287      1.0  0.18652  0.42718  0.70595  1.0000
  C   C182      1.0  0.00453  0.12965  0.74166  1.0000
  C   C183      1.0  0.00602  0.14282  0.72382  1.0000
  H   H288      1.0  0.02016  0.29134  0.82585  1.0000
  H   H289      1.0  0.15093  0.04970  0.81662  1.0000
  N   N10       1.0  0.17304  0.07771  0.79363  1.0000
  H   H290      1.0  0.01667  0.12475  0.74894  1.0000
  C   C184      1.0  0.17539  0.05676  0.79249  1.0000
  H   H291      1.0  0.18173  0.20278  0.96391  1.0000
  C   C185      1.0  0.03298  0.25045  0.83348  1.0000
  H   H292      1.0  0.15504  0.35859  0.71652  1.0000
  H   H293      1.0  0.16896  0.05583  0.78054  1.0000
  C   C186      1.0  0.99338  0.25854  0.84983  1.0000
  H   H294      1.0  0.14586  0.28349  0.67099  1.0000
  H   H295      1.0  0.14764  0.28542  0.74872  1.0000
  C   C187      1.0  0.17453  0.26188  0.83597  1.0000
  C   C188      1.0  0.16244  0.29679  0.83367  1.0000
  H   H296      1.0  0.14183  0.27561  0.73150  1.0000
  C   C189      1.0  0.17326  0.25442  0.57578  1.0000
  C   C190      1.0  0.10356  0.22770  0.73797  1.0000
  H   H297      1.0  0.16061  0.19272  0.63134  1.0000
  C   C191      1.0  0.13867  0.30328  0.69097  1.0000
  H   H298      1.0  0.09893  0.22442  0.56739  1.0000
  H   H299      1.0  0.13176  0.17408  0.76081  1.0000
  H   H300      1.0  0.13880  0.28049  0.84715  1.0000
  H   H301      1.0  0.12584  0.17073  0.72938  1.0000
  H   H302      1.0  0.14694  0.08426  0.78211  1.0000
  H   H303      1.0  0.13725  0.32780  0.71520  1.0000
  H   H304      1.0  0.04416  0.21140  0.72641  1.0000
  C   C192      1.0  0.00728  0.25556  0.86124  1.0000
  H   H305      1.0  0.12963  0.19792  0.63640  1.0000
  H   H306      1.0  0.01910  0.19137  0.73938  1.0000
  H   H307      1.0  0.99256  0.13599  0.68042  1.0000
  H   H308      1.0  0.02772  0.21883  0.74742  1.0000
  H   H309      1.0  0.15215  0.09743  0.71185  1.0000
  C   C193      1.0  0.16086  0.25943  0.56251  1.0000
  C   C194      1.0  0.14812  0.14684  0.73806  1.0000
  C   C195      1.0  0.14254  0.28952  0.73471  1.0000
  C   C196      1.0  0.17567  0.13590  0.68776  1.0000
  C   C197      1.0  0.17921  0.07786  0.81196  1.0000
  H   H310      1.0  0.15606  0.17549  0.75006  1.0000
  C   C198      1.0  0.01513  0.20616  0.73066  1.0000
  H   H311      1.0  0.01133  0.07790  0.63832  1.0000
  H   H312      1.0  0.12925  0.32465  0.84403  1.0000
  H   H313      1.0  0.99288  0.10845  0.69940  1.0000
  C   C199      1.0  0.99029  0.14896  0.71447  1.0000
  H   H314      1.0  0.00311  0.10134  0.66741  1.0000
  H   H315      1.0  0.15836  0.02520  0.79620  1.0000
  N   N11       1.0  0.03964  0.30978  0.80744  1.0000
  C   C200      1.0  0.03876  0.32705  0.79078  1.0000
  C   C201      1.0  0.01962  0.30533  0.81514  1.0000
  C   C202      1.0  0.04708  0.31445  0.82290  1.0000
  C   C203      1.0  0.05317  0.29213  0.80098  1.0000
  C   C204      1.0  0.05007  0.28710  0.78263  1.0000
  C   C205      1.0  0.05848  0.33283  0.78026  1.0000
  C   C206      1.0  0.04654  0.29930  0.84232  1.0000
  Fe  Fe23      1.0  0.15596  0.21523  0.48183  1.0000
  H   H316      1.0  0.16518  0.13242  0.68111  1.0000
  C   C207      1.0  0.06302  0.26774  0.77892  1.0000
  C   C208      1.0  0.05619  0.34904  0.76237  1.0000
  C   C209      1.0  0.05363  0.30600  0.85705  1.0000
  H   H317      1.0  0.02933  0.34010  0.79595  1.0000
  H   H318      1.0  0.03172  0.32475  0.77987  1.0000
  H   H319      1.0  0.17903  0.22148  0.84833  1.0000
  H   H320      1.0  0.01379  0.30314  0.80334  1.0000
  H   H321      1.0  0.03917  0.32886  0.82613  1.0000
  H   H322      1.0  0.06251  0.31581  0.81756  1.0000
  H   H323      1.0  0.06858  0.29331  0.79844  1.0000
  H   H324      1.0  0.05181  0.27924  0.81286  1.0000
  H   H325      1.0  0.05365  0.29839  0.76955  1.0000
  H   H326      1.0  0.03489  0.28588  0.78417  1.0000
  H   H327      1.0  0.06435  0.33821  0.79007  1.0000
  H   H328      1.0  0.06941  0.32047  0.77537  1.0000
  H   H329      1.0  0.05611  0.28528  0.83988  1.0000
  H   H330      1.0  0.03170  0.29680  0.84908  1.0000
  H   H331      1.0  0.12089  0.00545  0.70732  1.0000
  H   H332      1.0  0.17594  0.44283  0.75030  1.0000
  H   H333      1.0  0.01528  0.10249  0.63224  1.0000
  H   H334      1.0  0.12384  0.03842  0.70380  1.0000
  H   H335      1.0  0.14268  0.08061  0.80760  1.0000
  H   H336      1.0  0.06145  0.26509  0.76509  1.0000
  H   H337      1.0  0.07846  0.26773  0.77793  1.0000
  H   H338      1.0  0.05874  0.25566  0.79081  1.0000
  H   H339      1.0  0.14818  0.01139  0.77471  1.0000
  H   H340      1.0  0.15625  0.36818  0.90171  1.0000
  H   H341      1.0  0.04393  0.31958  0.86072  1.0000
  H   H342      1.0  0.05359  0.29463  0.87059  1.0000
  H   H343      1.0  0.06864  0.30845  0.85122  1.0000
  N   N12       1.0  0.02196  0.18140  0.83069  1.0000
  C   C210      1.0  0.01546  0.19965  0.81646  1.0000
  C   C211      1.0  0.03990  0.18253  0.83687  1.0000
  C   C212      1.0  0.02734  0.16474  0.82020  1.0000
  H   H344      1.0  0.14691  0.22710  0.78287  1.0000
  H   H345      1.0  0.17152  0.27540  0.86809  1.0000
  C   C213      1.0  0.15195  0.08718  0.79412  1.0000
  C   C214      1.0  0.03723  0.14483  0.83106  1.0000
  C   C215      1.0  0.04161  0.20255  0.83918  1.0000
  C   C216      1.0  0.05853  0.20053  0.84889  1.0000
  H   H346      1.0  0.17556  0.34719  0.90409  1.0000
  C   C217      1.0  0.16968  0.20304  0.72194  1.0000
  C   C218      1.0  0.04328  0.12986  0.81813  1.0000
  H   H347      1.0  0.02742  0.20182  0.80356  1.0000
  H   H348      1.0  0.01248  0.21278  0.82264  1.0000
  H   H349      1.0  0.04160  0.17201  0.85077  1.0000
  H   H350      1.0  0.05316  0.17816  0.82596  1.0000
  H   H351      1.0  0.03721  0.16844  0.80595  1.0000
  H   H352      1.0  0.01435  0.16205  0.81682  1.0000
  C   C219      1.0  0.00602  0.17722  0.84807  1.0000
  H   H353      1.0  0.16512  0.99764  0.73373  1.0000
  H   H354      1.0  0.05005  0.11565  0.82620  1.0000
  C   C220      1.0  0.99699  0.20046  0.80911  1.0000
  H   H355      1.0  0.99416  0.13400  0.65598  1.0000
  H   H356      1.0  0.11738  0.03684  0.74773  1.0000
  H   H357      1.0  0.02715  0.13922  0.84436  1.0000
  H   H358      1.0  0.05051  0.14575  0.83525  1.0000
  H   H359      1.0  0.04436  0.21216  0.82465  1.0000
  H   H360      1.0  0.02835  0.20995  0.84784  1.0000
  H   H361      1.0  0.07223  0.19283  0.84092  1.0000
  H   H362      1.0  0.06051  0.21509  0.84895  1.0000
  H   H363      1.0  0.17445  0.38137  0.86898  1.0000
  H   H364      1.0  0.16745  0.09406  0.75455  1.0000
  C   C221      1.0  0.00400  0.32089  0.82468  1.0000
  H   H365      1.0  0.17437  0.04091  0.82292  1.0000
  C   C222      1.0  0.15698  0.01323  0.70082  1.0000
  H   H366      1.0  0.15354  0.30635  0.66051  1.0000
  H   H367      1.0  0.16642  0.25565  0.85045  1.0000
  C   C223      1.0  0.18242  0.37084  0.87965  1.0000
  S   S48       1.0  0.14720  0.18762  0.48232  1.0000
  H   H368      1.0  0.07591  0.24594  0.73290  1.0000
  C   C224      1.0  0.12503  0.22410  0.59005  1.0000
  C   C225      1.0  0.10129  0.21114  0.63149  1.0000
  C   C226      1.0  0.11834  0.25215  0.61360  1.0000
  C   C227      1.0  0.11926  0.26659  0.62509  1.0000
  C   C228      1.0  0.09143  0.19500  0.64492  1.0000
  C   C229      1.0  0.11424  0.21758  0.56221  1.0000
  H   H369      1.0  0.10996  0.23235  0.59334  1.0000
  H   H370      1.0  0.09307  0.21792  0.61972  1.0000
  H   H371      1.0  0.10020  0.22188  0.64031  1.0000
  H   H372      1.0  0.11987  0.25966  0.59806  1.0000
  H   H373      1.0  0.10376  0.24865  0.61847  1.0000
  H   H374      1.0  0.11757  0.25994  0.64083  1.0000
  H   H375      1.0  0.13326  0.27146  0.61983  1.0000
  H   H376      1.0  0.10739  0.27950  0.62310  1.0000
  H   H377      1.0  0.09144  0.18401  0.63680  1.0000
  C   C230      1.0  0.13934  0.99775  0.75601  1.0000
  H   H378      1.0  0.07616  0.20120  0.65102  1.0000
  H   H379      1.0  0.05560  0.19250  0.86418  1.0000
  H   H380      1.0  0.12172  0.22871  0.55171  1.0000
  H   H381      1.0  0.11441  0.20623  0.55447  1.0000
  C   C231      1.0  0.14646  0.20463  0.66981  1.0000
  H   H382      1.0  0.17571  0.02795  0.70870  1.0000
  H   H383      1.0  0.17292  0.26124  0.73525  1.0000
  H   H384      1.0  0.12836  0.30525  0.66486  1.0000
  C   C232      1.0  0.14620  0.08869  0.72545  1.0000
  H   H385      1.0  0.12384  0.18970  0.61830  1.0000
  H   H386      1.0  0.16014  0.29934  0.81855  1.0000
  H   H387      1.0  0.16060  0.20670  0.66186  1.0000
  H   H388      1.0  0.18475  0.29383  0.85791  1.0000
  C   C233      1.0  0.16824  0.35873  0.89350  1.0000
  H   H389      1.0  0.14372  0.22574  0.71925  1.0000
  H   H390      1.0  0.09336  0.29677  0.75696  1.0000
  S   S49       1.0  0.13877  0.24260  0.67362  1.0000
  H   H391      1.0  0.00769  0.19397  0.86841  1.0000
  H   H392      1.0  0.13953  0.98943  0.78683  1.0000
  H   H393      1.0  0.16180  0.21436  0.58845  1.0000
  C   C234      1.0  0.15727  0.29509  0.69937  1.0000
  C   C235      1.0  0.11422  0.20625  0.73976  1.0000
  H   H394      1.0  0.12471  0.31222  0.82759  1.0000
  H   H395      1.0  0.11128  0.23702  0.72536  1.0000
  H   H396      1.0  0.17544  0.22847  0.95442  1.0000
  C   C236      1.0  0.14120  0.17986  0.74692  1.0000
  C   C237      1.0  0.12642  0.31086  0.84264  1.0000
  H   H397      1.0  0.09255  0.05929  0.71753  1.0000
  C   C238      1.0  0.18310  0.21428  0.95052  1.0000
  C   C239      1.0  0.14819  0.99662  0.77324  1.0000
  S   S50       1.0  0.13492  0.24213  0.48856  1.0000
  C   C240      1.0  0.15091  0.00781  0.73656  1.0000
  H   H398      1.0  0.15393  0.19201  0.59836  1.0000
  H   H399      1.0  0.14998  0.17338  0.71731  1.0000
  C   C241      1.0  0.14621  0.10928  0.79329  1.0000
  H   H400      1.0  0.18398  0.22684  0.53386  1.0000
  C   C242      1.0  0.99250  0.21895  0.79400  1.0000
  C   C243      1.0  0.14064  0.23023  0.75427  1.0000
  H   H401      1.0  0.09893  0.18775  0.65721  1.0000
  C   C244      1.0  0.14078  0.16861  0.73158  1.0000
  H   H402      1.0  0.17738  0.10955  0.80781  1.0000
  H   H403      1.0  0.16955  0.30004  0.68823  1.0000
  H   H404      1.0  0.99160  0.23072  0.72869  1.0000
  H   H405      1.0  0.16510  0.31063  0.83521  1.0000
  C   C245      1.0  0.15418  0.20586  0.60198  1.0000
  H   H406      1.0  0.99302  0.20770  0.85081  1.0000
  H   H407      1.0  0.99810  0.18716  0.76947  1.0000
  H   H408      1.0  0.99249  0.21828  0.75280  1.0000
  C   C246      1.0  0.13274  0.22006  0.67637  1.0000
  C   C247      1.0  0.14289  0.29394  0.84774  1.0000
  C   C248      1.0  0.16686  0.02361  0.80739  1.0000
  H   H409      1.0  0.04579  0.36208  0.76657  1.0000
  N   N13       1.0  0.17971  0.28049  0.83669  1.0000
  H   H410      1.0  0.17806  0.12430  0.70075  1.0000
  C   C249      1.0  0.18612  0.08707  0.77599  1.0000
  H   H411      1.0  0.14658  0.13910  0.72739  1.0000
  C   C250      1.0  0.16989  0.02842  0.69591  1.0000
  H   H412      1.0  0.17464  0.18794  0.71960  1.0000
  H   H413      1.0  0.11345  0.28061  0.76655  1.0000
  H   H414      1.0  0.14161  0.25173  0.76965  1.0000
  H   H415      1.0  0.10699  0.27683  0.74555  1.0000
  H   H416      1.0  0.08833  0.06106  0.74261  1.0000
  C   C251      1.0  0.18664  0.18733  0.61026  1.0000
  H   H417      1.0  0.14445  0.35954  0.69622  1.0000
  H   H418      1.0  0.17720  0.29608  0.73673  1.0000
  Fe  Fe24      1.0  0.18015  0.28556  0.93602  1.0000
  N   N14       1.0  0.14141  0.01351  0.71911  1.0000
  H   H419      1.0  0.17360  0.20331  0.73561  1.0000
  H   H420      1.0  0.15042  0.01534  0.68795  1.0000
  H   H421      1.0  0.16705  0.99881  0.70175  1.0000
  H   H422      1.0  0.05405  0.13447  0.80491  1.0000
  H   H423      1.0  0.16712  0.07595  0.82476  1.0000
  H   H424      1.0  0.17028  0.26226  0.58732  1.0000
  H   H425      1.0  0.10878  0.06913  0.72561  1.0000
  H   H426      1.0  0.14715  0.11236  0.80713  1.0000
  H   H427      1.0  0.16025  0.27914  0.70048  1.0000
  H   H428      1.0  0.15581  0.23052  0.74648  1.0000
  C   C252      1.0  0.00475  0.09339  0.63345  1.0000
  H   H429      1.0  0.18535  0.10241  0.77612  1.0000
  H   H430      1.0  0.13409  0.31919  0.68973  1.0000
  C   C253      1.0  0.18685  0.02471  0.67900  1.0000
  H   H431      1.0  0.01758  0.20507  0.71525  1.0000
  H   H432      1.0  0.18148  0.02593  0.66566  1.0000
  C   C254      1.0  0.13684  0.20933  0.75864  1.0000
  H   H433      1.0  0.12118  0.31253  0.74737  1.0000
  H   H434      1.0  0.14435  0.20548  0.71059  1.0000
  C   C255      1.0  0.15194  0.32110  0.71814  1.0000
  H   H435      1.0  0.17296  0.22860  0.82451  1.0000
  H   H436      1.0  0.13113  0.24087  0.74511  1.0000
  H   H437      1.0  0.13947  0.14124  0.75242  1.0000
  H   H438      1.0  0.16444  0.26485  0.82585  1.0000
  C   C256      1.0  0.16628  0.04341  0.81117  1.0000
  H   H439      1.0  0.13834  0.04434  0.71693  1.0000
  C   C257      1.0  0.10806  0.28794  0.75298  1.0000
  H   H440      1.0  0.12225  0.23873  0.78075  1.0000
  H   H441      1.0  0.17606  0.24970  0.91725  1.0000
  S   S51       1.0  0.17746  0.21743  0.49818  1.0000
  C   C258      1.0  0.16476  0.24963  0.54723  1.0000
  H   H442      1.0  0.01133  0.16400  0.85849  1.0000
  H   H443      1.0  0.18873  0.38672  0.83847  1.0000
  H   H444      1.0  0.99510  0.17617  0.73987  1.0000
  S   S52       1.0  0.17193  0.26732  0.62781  1.0000
  H   H445      1.0  0.18530  0.07168  0.75405  1.0000
  C   C259      1.0  0.12147  0.30110  0.73964  1.0000
  H   H446      1.0  0.00856  0.32436  0.83660  1.0000
  H   H447      1.0  0.18013  0.32987  0.70762  1.0000
  H   H448      1.0  0.14368  0.29328  0.86292  1.0000
  H   H449      1.0  0.00162  0.09533  0.61882  1.0000
  C   C260      1.0  0.15800  0.35495  0.70198  1.0000
  H   H450      1.0  0.16197  0.35186  0.88524  1.0000
  H   H451      1.0  0.11514  0.10980  0.80299  1.0000
  C   C261      1.0  0.17667  0.29172  0.72333  1.0000
  C   C262      1.0  0.02898  0.21815  0.73205  1.0000
  C   C263      1.0  0.16596  0.33322  0.70320  1.0000
  H   H452      1.0  0.99957  0.07308  0.70278  1.0000
  N   N15       1.0  0.15672  0.29957  0.71866  1.0000
  H   H453      1.0  0.02582  0.23310  0.72331  1.0000
  C   C264      1.0  0.12521  0.11712  0.79080  1.0000
  H   H454      1.0  0.12336  0.11482  0.77691  1.0000
  H   H455      1.0  0.12122  0.13291  0.79057  1.0000
  H   H456      1.0  0.15154  0.32363  0.73276  1.0000
  H   H457      1.0  0.03051  0.12797  0.81366  1.0000
  H   H458      1.0  0.15539  0.11741  0.78097  1.0000
  H   H459      1.0  0.18667  0.37916  0.88816  1.0000
  C   C265      1.0  0.09971  0.05801  0.72970  1.0000
  H   H460      1.0  0.16051  0.01432  0.82099  1.0000
  H   H461      1.0  0.16362  0.14370  0.73897  1.0000
  C   C266      1.0  0.18458  0.22662  0.83258  1.0000
  H   H462      1.0  0.16913  0.14990  0.69243  1.0000
  S   S53       1.0  0.18089  0.30355  0.95682  1.0000
  H   H463      1.0  0.05099  0.34417  0.75170  1.0000
  C   C267      1.0  0.18385  0.27934  0.85631  1.0000
  H   H464      1.0  0.18202  0.01624  0.80246  1.0000
  H   H465      1.0  0.17649  0.09555  0.84312  1.0000
  H   H466      1.0  0.17685  0.39620  0.71333  1.0000
  H   H467      1.0  0.18820  0.26525  0.71152  1.0000
  H   H468      1.0  0.00262  0.25653  0.87638  1.0000
  H   H469      1.0  0.18421  0.17322  0.60926  1.0000
  C   C268      1.0  0.99719  0.19327  0.86006  1.0000
  C   C269      1.0  0.18103  0.23459  0.54544  1.0000
  C   C270      1.0  0.99935  0.25827  0.83002  1.0000
  H   H470      1.0  0.99332  0.08028  0.67342  1.0000
  H   H471      1.0  0.17094  0.40964  0.69042  1.0000
  C   C271      1.0  0.18309  0.40215  0.69799  1.0000
  H   H472      1.0  0.17746  0.21576  0.69118  1.0000
  H   H473      1.0  0.99141  0.15911  0.70067  1.0000
  H   H474      1.0  0.16322  0.98794  0.77140  1.0000
  H   H475      1.0  0.99200  0.19654  0.71046  1.0000
  S   S54       1.0  0.18756  0.25756  0.66887  1.0000
  H   H476      1.0  0.17722  0.23096  0.70747  1.0000
  C   C272      1.0  0.18091  0.21585  0.70518  1.0000
  C   C273      1.0  0.18953  0.23940  0.57398  1.0000
  H   H477      1.0  0.00091  0.33443  0.81374  1.0000
  S   S55       1.0  0.18859  0.40219  0.74956  1.0000
  C   C274      1.0  0.98966  0.09627  0.66836  1.0000
  H   H478      1.0  0.98985  0.23184  0.80040  1.0000
  C   C275      1.0  0.99000  0.15954  0.77812  1.0000
  H   H479      1.0  0.99143  0.15742  0.79341  1.0000
  C   C276      1.0  0.99094  0.07887  0.73142  1.0000
  H   H480      1.0  0.17232  0.81139  0.38282  1.0000
  H   H481      1.0  0.05598  0.53555  0.33661  1.0000
  C   C277      1.0  0.02208  0.77981  0.34433  1.0000
  H   H482      1.0  0.02338  0.72780  0.29693  1.0000
  H   H483      1.0  0.00843  0.79584  0.32031  1.0000
  H   H484      1.0  0.03141  0.76217  0.37027  1.0000
  H   H485      1.0  0.06999  0.68684  0.33908  1.0000
  H   H486      1.0  0.03810  0.68354  0.35905  1.0000
  H   H487      1.0  0.14428  0.71517  0.33332  1.0000
  H   H488      1.0  0.08640  0.64365  0.34827  1.0000
  Fe  Fe25      1.0  0.05536  0.64718  0.25060  1.0000
  S   S56       1.0  0.05276  0.67772  0.23366  1.0000
  S   S57       1.0  0.03276  0.62910  0.25712  1.0000
  Fe  Fe26      1.0  0.09533  0.64540  0.25723  1.0000
  S   S58       1.0  0.09617  0.67578  0.24055  1.0000
  S   S59       1.0  0.12214  0.62795  0.26788  1.0000
  Fe  Fe27      1.0  0.06550  0.68251  0.25668  1.0000
  S   S60       1.0  0.05448  0.70866  0.27024  1.0000
  Fe  Fe28      1.0  0.08369  0.66806  0.21917  1.0000
  S   S61       1.0  0.09396  0.67338  0.18665  1.0000
  S   S62       1.0  0.06555  0.65264  0.27504  1.0000
  S   S63       1.0  0.08533  0.63699  0.23451  1.0000
  S   S64       1.0  0.11938  0.55398  0.33566  1.0000
  H   H489      1.0  0.03933  0.67628  0.15440  1.0000
  H   H490      1.0  0.06126  0.65654  0.18780  1.0000
  S   S65       1.0  0.04301  0.79000  0.33522  1.0000
  H   H491      1.0  0.13416  0.69816  0.24138  1.0000
  Fe  Fe29      1.0  0.16920  0.86983  0.35606  1.0000
  Fe  Fe30      1.0  0.18567  0.53229  0.35099  1.0000
  S   S66       1.0  0.14019  0.86250  0.35835  1.0000
  H   H492      1.0  0.13600  0.61657  0.21151  1.0000
  H   H493      1.0  0.07680  0.70666  0.44528  1.0000
  C   C278      1.0  0.18072  0.64902  0.04455  1.0000
  H   H494      1.0  0.03555  0.70480  0.36806  1.0000
  H   H495      1.0  0.17326  0.66546  0.32997  1.0000
  C   C279      1.0  0.05460  0.64056  0.14997  1.0000
  H   H496      1.0  0.08612  0.63383  0.19440  1.0000
  Fe  Fe31      1.0  0.11259  0.77042  0.34612  1.0000
  S   S67       1.0  0.08453  0.77865  0.36664  1.0000
  S   S68       1.0  0.14002  0.78226  0.33933  1.0000
  Fe  Fe32      1.0  0.10017  0.73614  0.33913  1.0000
  S   S69       1.0  0.07165  0.74092  0.35980  1.0000
  S   S70       1.0  0.10974  0.71112  0.32365  1.0000
  Fe  Fe33      1.0  0.07020  0.77221  0.34563  1.0000
  Fe  Fe34      1.0  0.08833  0.74668  0.37897  1.0000
  S   S71       1.0  0.08224  0.73581  0.41125  1.0000
  S   S72       1.0  0.09804  0.76714  0.32360  1.0000
  S   S73       1.0  0.11703  0.73879  0.35980  1.0000
  C   C280      1.0  0.12396  0.68309  0.43748  1.0000
  C   C281      1.0  0.15579  0.68401  0.16477  1.0000
  C   C282      1.0  0.09193  0.70360  0.43829  1.0000
  C   C283      1.0  0.09877  0.71575  0.42096  1.0000
  C   C284      1.0  0.11845  0.71182  0.41206  1.0000
  C   C285      1.0  0.13110  0.69546  0.42037  1.0000
  H   H497      1.0  0.07952  0.53001  0.34276  1.0000
  H   H498      1.0  0.12391  0.72150  0.39900  1.0000
  H   H499      1.0  0.14626  0.69241  0.41360  1.0000
  C   C286      1.0  0.14054  0.83972  0.35384  1.0000
  C   C287      1.0  0.15729  0.82928  0.34382  1.0000
  C   C288      1.0  0.15697  0.81158  0.33965  1.0000
  C   C289      1.0  0.13997  0.80414  0.34555  1.0000
  C   C290      1.0  0.12338  0.81427  0.35606  1.0000
  C   C291      1.0  0.12362  0.83210  0.36003  1.0000
  H   H500      1.0  0.17035  0.83509  0.33880  1.0000
  H   H501      1.0  0.16988  0.80379  0.33157  1.0000
  H   H502      1.0  0.11042  0.80834  0.36119  1.0000
  H   H503      1.0  0.11070  0.84000  0.36799  1.0000
  C   C292      1.0  0.13717  0.67925  0.36457  1.0000
  H   H504      1.0  0.14326  0.54172  0.39384  1.0000
  C   C293      1.0  0.07673  0.62381  0.17290  1.0000
  H   H505      1.0  0.08266  0.82905  0.27895  1.0000
  H   H506      1.0  0.03903  0.67207  0.33358  1.0000
  H   H507      1.0  0.15732  0.66912  0.14226  1.0000
  C   C294      1.0  0.07042  0.70980  0.28428  1.0000
  C   C295      1.0  0.06805  0.72649  0.29154  1.0000
  C   C296      1.0  0.08007  0.72707  0.30363  1.0000
  C   C297      1.0  0.09485  0.71113  0.30807  1.0000
  C   C298      1.0  0.09755  0.69468  0.30038  1.0000
  C   C299      1.0  0.08528  0.69393  0.28865  1.0000
  H   H508      1.0  0.05694  0.73898  0.28778  1.0000
  H   H509      1.0  0.07793  0.73987  0.30946  1.0000
  H   H510      1.0  0.10907  0.68241  0.30361  1.0000
  H   H511      1.0  0.08731  0.68103  0.28306  1.0000
  C   C300      1.0  0.12047  0.60764  0.28680  1.0000
  C   C301      1.0  0.10356  0.60622  0.30102  1.0000
  C   C302      1.0  0.10315  0.58973  0.31620  1.0000
  C   C303      1.0  0.11945  0.57456  0.31677  1.0000
  C   C304      1.0  0.13605  0.57593  0.30223  1.0000
  C   C305      1.0  0.13671  0.59258  0.28758  1.0000
  H   H512      1.0  0.09102  0.61796  0.30052  1.0000
  H   H513      1.0  0.09031  0.58876  0.32751  1.0000
  H   H514      1.0  0.14842  0.56405  0.30202  1.0000
  H   H515      1.0  0.14972  0.59350  0.27648  1.0000
  S   S74       1.0  0.13876  0.66221  0.44832  1.0000
  C   C306      1.0  0.14396  0.69093  0.18106  1.0000
  C   C307      1.0  0.12494  0.68779  0.18781  1.0000
  C   C308      1.0  0.11753  0.67805  0.17805  1.0000
  C   C309      1.0  0.12916  0.67159  0.16143  1.0000
  C   C310      1.0  0.14834  0.67438  0.15491  1.0000
  H   H516      1.0  0.11597  0.69312  0.20042  1.0000
  H   H517      1.0  0.12349  0.66411  0.15378  1.0000
  C   C311      1.0  0.06813  0.83000  0.28859  1.0000
  H   H518      1.0  0.14435  0.66657  0.35786  1.0000
  H   H519      1.0  0.17241  0.74303  0.36953  1.0000
  H   H520      1.0  0.16264  0.77258  0.41840  1.0000
  H   H521      1.0  0.15647  0.62471  0.36495  1.0000
  C   C312      1.0  0.16197  0.70129  0.46950  1.0000
  S   S75       1.0  0.17993  0.68717  0.15763  1.0000
  C   C313      1.0  0.02006  0.76644  0.36201  1.0000
  H   H522      1.0  0.16999  0.72091  0.44214  1.0000
  H   H523      1.0  0.16807  0.70875  0.38312  1.0000
  C   C314      1.0  0.15730  0.63491  0.20068  1.0000
  H   H524      1.0  0.99784  0.61567  0.26257  1.0000
  H   H525      1.0  0.02376  0.69761  0.31047  1.0000
  C   C315      1.0  0.01390  0.63695  0.24403  1.0000
  C   C316      1.0  0.01444  0.65201  0.22757  1.0000
  C   C317      1.0  0.99972  0.65702  0.21678  1.0000
  H   H526      1.0  0.99614  0.70355  0.22514  1.0000
  H   H527      1.0  0.00023  0.66849  0.20395  1.0000
  H   H528      1.0  0.02637  0.65948  0.22290  1.0000
  C   C318      1.0  0.01009  0.72559  0.22694  1.0000
  H   H529      1.0  0.09065  0.64114  0.32341  1.0000
  C   C319      1.0  0.13958  0.68765  0.25385  1.0000
  C   C320      1.0  0.17013  0.71020  0.31119  1.0000
  H   H530      1.0  0.15187  0.63149  0.32258  1.0000
  H   H531      1.0  0.14957  0.69863  0.18855  1.0000
  H   H532      1.0  0.15133  0.69259  0.25721  1.0000
  H   H533      1.0  0.11469  0.66409  0.38254  1.0000
  H   H534      1.0  0.00941  0.68803  0.25276  1.0000
  H   H535      1.0  0.13448  0.66309  0.24650  1.0000
  S   S76       1.0  0.17357  0.88665  0.37616  1.0000
  N   N16       1.0  0.17039  0.64867  0.22373  1.0000
  C   C321      1.0  0.15706  0.70319  0.33094  1.0000
  H   H536      1.0  0.14756  0.71090  0.47279  1.0000
  H   H537      1.0  0.01598  0.71855  0.24028  1.0000
  C   C322      1.0  0.03724  0.61179  0.18678  1.0000
  H   H538      1.0  0.10544  0.61102  0.34419  1.0000
  H   H539      1.0  0.00660  0.69262  0.36567  1.0000
  H   H540      1.0  0.18796  0.59980  0.31361  1.0000
  C   C323      1.0  0.04088  0.63211  0.18542  1.0000
  H   H541      1.0  0.11244  0.62666  0.36762  1.0000
  H   H542      1.0  0.14856  0.79442  0.38873  1.0000
  H   H543      1.0  0.05927  0.84458  0.28404  1.0000
  H   H544      1.0  0.13129  0.60334  0.40091  1.0000
  H   H545      1.0  0.00683  0.61756  0.20122  1.0000
  H   H546      1.0  0.17674  0.75674  0.40303  1.0000
  H   H547      1.0  0.12206  0.57089  0.24037  1.0000
  C   C324      1.0  0.15556  0.77889  0.38971  1.0000
  H   H548      1.0  0.11598  0.68484  0.39072  1.0000
  H   H549      1.0  0.16599  0.59048  0.34558  1.0000
  C   C325      1.0  0.02052  0.60714  0.20360  1.0000
  H   H550      1.0  0.16290  0.59981  0.37499  1.0000
  H   H551      1.0  0.06056  0.69680  0.15684  1.0000
  H   H552      1.0  0.03218  0.72660  0.33920  1.0000
  H   H553      1.0  0.16266  0.77668  0.37481  1.0000
  H   H554      1.0  0.16062  0.69072  0.46168  1.0000
  C   C326      1.0  0.11947  0.58231  0.24884  1.0000
  H   H555      1.0  0.18797  0.74279  0.02308  1.0000
  H   H556      1.0  0.06924  0.68753  0.36389  1.0000
  C   C327      1.0  0.00308  0.72885  0.32522  1.0000
  H   H557      1.0  0.16901  0.80685  0.42708  1.0000
  N   N17       1.0  0.01279  0.70980  0.33631  1.0000
  H   H558      1.0  0.00147  0.74902  0.38331  1.0000
  H   H559      1.0  0.02662  0.74431  0.30987  1.0000
  H   H560      1.0  0.17193  0.62374  0.33485  1.0000
  C   C328      1.0  0.16296  0.81116  0.41370  1.0000
  H   H561      1.0  0.00705  0.74153  0.22568  1.0000
  Fe  Fe35      1.0  0.17019  0.65499  0.43450  1.0000
  C   C329      1.0  0.02572  0.72117  0.20925  1.0000
  H   H562      1.0  0.05207  0.69292  0.18283  1.0000
  H   H563      1.0  0.06177  0.65218  0.13975  1.0000
  C   C330      1.0  0.99839  0.62732  0.24986  1.0000
  H   H564      1.0  0.15959  0.68108  0.37812  1.0000
  H   H565      1.0  0.05949  0.63955  0.11095  1.0000
  H   H566      1.0  0.15864  0.63096  0.39619  1.0000
  C   C331      1.0  0.12480  0.67227  0.38434  1.0000
  C   C332      1.0  0.10082  0.60458  0.19422  1.0000
  H   H567      1.0  0.03886  0.64568  0.14975  1.0000
  H   H568      1.0  0.99286  0.74977  0.28961  1.0000
  H   H569      1.0  0.02724  0.64250  0.18272  1.0000
  H   H570      1.0  0.03301  0.61131  0.17335  1.0000
  H   H571      1.0  0.14155  0.62355  0.41795  1.0000
  C   C333      1.0  0.04811  0.69372  0.16883  1.0000
  H   H572      1.0  0.05016  0.60028  0.18926  1.0000
  C   C334      1.0  0.06232  0.62282  0.14003  1.0000
  H   H573      1.0  0.05801  0.60947  0.14949  1.0000
  C   C335      1.0  0.16296  0.61887  0.32756  1.0000
  S   S77       1.0  0.16629  0.52084  0.31086  1.0000
  H   H574      1.0  0.06114  0.61388  0.11416  1.0000
  C   C336      1.0  0.15894  0.71579  0.29474  1.0000
  H   H575      1.0  0.07096  0.61616  0.20505  1.0000
  C   C337      1.0  0.02335  0.67343  0.33433  1.0000
  H   H576      1.0  0.02106  0.72981  0.19563  1.0000
  H   H577      1.0  0.03936  0.72491  0.20992  1.0000
  H   H578      1.0  0.02867  0.70556  0.20891  1.0000
  C   C338      1.0  0.05996  0.65734  0.17269  1.0000
  C   C339      1.0  0.15073  0.61922  0.40439  1.0000
  H   H579      1.0  0.07842  0.62001  0.13616  1.0000
  N   N18       1.0  0.08032  0.83890  0.31500  1.0000
  C   C340      1.0  0.10093  0.83653  0.30357  1.0000
  C   C341      1.0  0.07039  0.85986  0.30990  1.0000
  C   C342      1.0  0.08086  0.83275  0.33635  1.0000
  C   C343      1.0  0.06925  0.82645  0.31028  1.0000
  C   C344      1.0  0.11214  0.81537  0.30343  1.0000
  C   C345      1.0  0.06099  0.83547  0.35064  1.0000
  C   C346      1.0  0.07770  0.87445  0.31710  1.0000
  H   H580      1.0  0.05791  0.81785  0.26967  1.0000
  C   C347      1.0  0.13342  0.81473  0.29355  1.0000
  C   C348      1.0  0.06366  0.83256  0.37145  1.0000
  H   H581      1.0  0.10960  0.84346  0.30936  1.0000
  H   H582      1.0  0.10152  0.84430  0.28816  1.0000
  H   H583      1.0  0.07217  0.86473  0.29384  1.0000
  H   H584      1.0  0.05444  0.86169  0.31535  1.0000
  H   H585      1.0  0.09057  0.84025  0.34000  1.0000
  H   H586      1.0  0.08743  0.81710  0.33999  1.0000
  H   H587      1.0  0.07526  0.81080  0.31539  1.0000
  H   H588      1.0  0.05398  0.82879  0.31844  1.0000
  H   H589      1.0  0.11167  0.80667  0.31836  1.0000
  H   H590      1.0  0.10590  0.80821  0.29545  1.0000
  H   H591      1.0  0.05277  0.82464  0.35045  1.0000
  H   H592      1.0  0.05202  0.85014  0.34700  1.0000
  C   C349      1.0  0.06750  0.89527  0.31008  1.0000
  H   H593      1.0  0.09351  0.87351  0.31161  1.0000
  H   H594      1.0  0.12970  0.63792  0.34948  1.0000
  H   H595      1.0  0.07047  0.89918  0.29395  1.0000
  H   H596      1.0  0.05160  0.89710  0.31568  1.0000
  H   H597      1.0  0.14103  0.79942  0.29366  1.0000
  H   H598      1.0  0.13472  0.82283  0.27824  1.0000
  H   H599      1.0  0.14062  0.82100  0.30151  1.0000
  H   H600      1.0  0.07243  0.81796  0.37609  1.0000
  H   H601      1.0  0.07098  0.84371  0.37263  1.0000
  H   H602      1.0  0.04929  0.83387  0.38148  1.0000
  H   H603      1.0  0.08889  0.62878  0.16141  1.0000
  H   H604      1.0  0.99944  0.71790  0.36395  1.0000
  H   H605      1.0  0.12650  0.62881  0.39035  1.0000
  C   C350      1.0  0.02174  0.65896  0.32323  1.0000
  H   H606      1.0  0.12744  0.68737  0.26666  1.0000
  H   H607      1.0  0.18284  0.62423  0.29980  1.0000
  H   H608      1.0  0.18284  0.69859  0.30764  1.0000
  H   H609      1.0  0.14198  0.62375  0.18542  1.0000
  H   H610      1.0  0.14452  0.63664  0.23068  1.0000
  C   C351      1.0  0.17567  0.71393  0.45562  1.0000
  H   H611      1.0  0.12820  0.55074  0.37600  1.0000
  H   H612      1.0  0.14907  0.83823  0.39701  1.0000
  H   H613      1.0  0.15361  0.70321  0.29361  1.0000
  C   C352      1.0  0.13951  0.76721  0.39714  1.0000
  H   H614      1.0  0.01309  0.76180  0.28121  1.0000
  H   H615      1.0  0.12053  0.55843  0.39908  1.0000
  H   H616      1.0  0.04310  0.70966  0.32388  1.0000
  H   H617      1.0  0.14481  0.83729  0.42271  1.0000
  C   C353      1.0  0.99150  0.71863  0.22748  1.0000
  H   H618      1.0  0.07650  0.60934  0.17084  1.0000
  C   C354      1.0  0.07183  0.53274  0.33064  1.0000
  C   C355      1.0  0.18632  0.73290  0.03758  1.0000
  H   H619      1.0  0.02842  0.64413  0.33008  1.0000
  H   H620      1.0  0.16817  0.89754  0.43674  1.0000
  H   H621      1.0  0.06706  0.80016  0.28935  1.0000
  C   C356      1.0  0.03259  0.71164  0.33768  1.0000
  C   C357      1.0  0.15194  0.69027  0.36654  1.0000
  C   C358      1.0  0.09771  0.64188  0.33498  1.0000
  H   H622      1.0  0.02360  0.60782  0.21756  1.0000
  C   C359      1.0  0.06348  0.69539  0.35063  1.0000
  H   H623      1.0  0.16853  0.72066  0.28071  1.0000
  H   H624      1.0  0.14287  0.70298  0.37262  1.0000
  H   H625      1.0  0.03892  0.62874  0.12433  1.0000
  H   H626      1.0  0.06785  0.70960  0.34569  1.0000
  H   H627      1.0  0.10451  0.65477  0.32994  1.0000
  C   C360      1.0  0.10443  0.68727  0.44642  1.0000
  H   H628      1.0  0.12411  0.59538  0.23897  1.0000
  H   H629      1.0  0.18414  0.71868  0.33891  1.0000
  C   C361      1.0  0.00025  0.70611  0.35638  1.0000
  N   N19       1.0  0.05796  0.63801  0.17030  1.0000
  C   C362      1.0  0.00697  0.78554  0.33402  1.0000
  C   C363      1.0  0.00299  0.75911  0.36947  1.0000
  H   H630      1.0  0.15646  0.56654  0.36787  1.0000
  H   H631      1.0  0.14691  0.59600  0.33294  1.0000
  H   H632      1.0  0.09888  0.67775  0.45963  1.0000
  H   H633      1.0  0.07480  0.87164  0.33321  1.0000
  H   H634      1.0  0.14901  0.57415  0.39069  1.0000
  H   H635      1.0  0.18077  0.66456  0.19520  1.0000
  H   H636      1.0  0.03552  0.70588  0.16689  1.0000
  C   C364      1.0  0.17617  0.61216  0.30948  1.0000
  H   H637      1.0  0.14297  0.65901  0.21402  1.0000
  Fe  Fe36      1.0  0.15036  0.53772  0.33398  1.0000
  H   H638      1.0  0.12424  0.58527  0.35920  1.0000
  C   C365      1.0  0.18442  0.65546  0.02427  1.0000
  H   H639      1.0  0.12699  0.68908  0.35555  1.0000
  H   H640      1.0  0.04359  0.81600  0.29403  1.0000
  H   H641      1.0  0.16902  0.62182  0.20174  1.0000
  H   H642      1.0  0.12303  0.62167  0.32500  1.0000
  H   H643      1.0  0.11748  0.59373  0.38116  1.0000
  C   C366      1.0  0.13317  0.55461  0.38746  1.0000
  N   N20       1.0  0.07034  0.57241  0.28261  1.0000
  C   C367      1.0  0.06757  0.55421  0.29774  1.0000
  C   C368      1.0  0.06069  0.57413  0.26589  1.0000
  C   C369      1.0  0.09186  0.57064  0.27468  1.0000
  C   C370      1.0  0.06302  0.59041  0.29107  1.0000
  C   C371      1.0  0.04168  0.59377  0.30205  1.0000
  C   C372      1.0  0.07751  0.55018  0.31532  1.0000
  C   C373      1.0  0.09800  0.58745  0.25806  1.0000
  C   C374      1.0  0.04200  0.56587  0.27064  1.0000
  C   C375      1.0  0.03166  0.57248  0.25350  1.0000
  C   C376      1.0  0.03673  0.61158  0.31112  1.0000
  N   N21       1.0  0.16640  0.69682  0.34846  1.0000
  H   H644      1.0  0.07311  0.54135  0.29080  1.0000
  H   H645      1.0  0.05201  0.55421  0.30383  1.0000
  H   H646      1.0  0.05730  0.58957  0.25823  1.0000
  H   H647      1.0  0.07080  0.56642  0.25465  1.0000
  H   H648      1.0  0.09803  0.55677  0.26949  1.0000
  H   H649      1.0  0.09962  0.57005  0.28622  1.0000
  H   H650      1.0  0.07220  0.59060  0.30099  1.0000
  H   H651      1.0  0.06443  0.60360  0.27942  1.0000
  H   H652      1.0  0.03870  0.58128  0.31397  1.0000
  H   H653      1.0  0.03181  0.59659  0.29186  1.0000
  H   H654      1.0  0.09352  0.54673  0.31072  1.0000
  H   H655      1.0  0.07336  0.56276  0.32249  1.0000
  H   H656      1.0  0.09573  0.60064  0.26397  1.0000
  H   H657      1.0  0.08968  0.59105  0.24636  1.0000
  H   H658      1.0  0.04580  0.54976  0.27373  1.0000
  H   H659      1.0  0.03152  0.57036  0.28342  1.0000
  H   H660      1.0  0.04140  0.56799  0.24026  1.0000
  H   H661      1.0  0.01868  0.56593  0.25704  1.0000
  H   H662      1.0  0.02678  0.58851  0.25053  1.0000
  H   H663      1.0  0.04612  0.60973  0.32161  1.0000
  H   H664      1.0  0.03862  0.62476  0.29965  1.0000
  H   H665      1.0  0.02137  0.61371  0.31894  1.0000
  H   H666      1.0  0.02984  0.67293  0.18015  1.0000
  H   H667      1.0  0.16176  0.64505  0.18688  1.0000
  H   H668      1.0  0.10498  0.60290  0.20831  1.0000
  S   S78       1.0  0.16231  0.51511  0.35781  1.0000
  H   H669      1.0  0.00631  0.65932  0.32366  1.0000
  H   H670      1.0  0.18558  0.65137  0.07191  1.0000
  C   C377      1.0  0.01451  0.69440  0.32517  1.0000
  H   H671      1.0  0.11308  0.60846  0.18234  1.0000
  C   C378      1.0  0.00351  0.75509  0.29434  1.0000
  C   C379      1.0  0.04145  0.69816  0.35503  1.0000
  C   C380      1.0  0.13932  0.62868  0.19927  1.0000
  C   C381      1.0  0.17054  0.77233  0.40317  1.0000
  H   H672      1.0  0.15993  0.72707  0.35048  1.0000
  C   C382      1.0  0.04297  0.67472  0.16869  1.0000
  C   C383      1.0  0.14679  0.66739  0.24930  1.0000
  H   H673      1.0  0.01592  0.66910  0.34961  1.0000
  H   H674      1.0  0.16800  0.84060  0.40767  1.0000
  C   C384      1.0  0.15316  0.64511  0.21805  1.0000
  H   H675      1.0  0.17851  0.88375  0.41798  1.0000
  H   H676      1.0  0.17584  0.65322  0.35443  1.0000
  H   H677      1.0  0.09814  0.59051  0.19341  1.0000
  H   H678      1.0  0.07293  0.90537  0.31552  1.0000
  H   H679      1.0  0.12848  0.57708  0.26009  1.0000
  H   H680      1.0  0.04210  0.63307  0.20007  1.0000
  C   C385      1.0  0.05497  0.62655  0.12123  1.0000
  C   C386      1.0  0.16402  0.66704  0.23165  1.0000
  H   H681      1.0  0.00017  0.69455  0.32232  1.0000
  C   C387      1.0  0.99724  0.67365  0.28108  1.0000
  H   H682      1.0  0.02952  0.66223  0.30788  1.0000
  H   H683      1.0  0.07358  0.66129  0.16305  1.0000
  C   C388      1.0  0.08263  0.62050  0.19273  1.0000
  C   C389      1.0  0.05859  0.81508  0.28525  1.0000
  H   H684      1.0  0.15110  0.69151  0.32885  1.0000
  H   H685      1.0  0.01843  0.59232  0.20465  1.0000
  H   H686      1.0  0.13401  0.66275  0.39454  1.0000
  C   C390      1.0  0.17854  0.89709  0.42264  1.0000
  H   H687      1.0  0.15118  0.65733  0.26248  1.0000
  C   C391      1.0  0.01572  0.73832  0.30629  1.0000
  Fe  Fe37      1.0  0.18067  0.49992  0.33395  1.0000
  N   N22       1.0  0.13946  0.60705  0.35947  1.0000
  C   C392      1.0  0.15022  0.61166  0.37234  1.0000
  C   C393      1.0  0.15369  0.60214  0.34147  1.0000
  C   C394      1.0  0.12379  0.62442  0.35443  1.0000
  C   C395      1.0  0.13020  0.58982  0.36960  1.0000
  C   C396      1.0  0.14372  0.57144  0.37882  1.0000
  C   C397      1.0  0.13810  0.61569  0.39231  1.0000
  C   C398      1.0  0.11297  0.62338  0.33902  1.0000
  H   H688      1.0  0.16012  0.67970  0.21990  1.0000
  H   H689      1.0  0.16140  0.60579  0.40850  1.0000
  H   H690      1.0  0.13116  0.76974  0.41165  1.0000
  H   H691      1.0  0.12937  0.77181  0.38692  1.0000
  C   C399      1.0  0.17851  0.80504  0.39616  1.0000
  H   H692      1.0  0.12660  0.64087  0.19966  1.0000
  H   H693      1.0  0.17205  0.63809  0.05114  1.0000
  S   S79       1.0  0.17250  0.55586  0.32877  1.0000
  H   H694      1.0  0.17353  0.91000  0.41176  1.0000
  H   H695      1.0  0.07603  0.51955  0.32431  1.0000
  H   H696      1.0  0.99575  0.76635  0.30297  1.0000
  H   H697      1.0  0.16501  0.62995  0.25206  1.0000
  H   H698      1.0  0.18337  0.93300  0.38068  1.0000
  C   C400      1.0  0.15582  0.83316  0.40999  1.0000
  S   S80       1.0  0.17568  0.64501  0.00978  1.0000
  H   H699      1.0  0.16774  0.60758  0.30130  1.0000
  H   H700      1.0  0.15013  0.80461  0.41643  1.0000
  H   H701      1.0  0.14562  0.75146  0.39814  1.0000
  H   H702      1.0  0.17151  0.73736  0.04600  1.0000
  H   H703      1.0  0.99778  0.73981  0.33454  1.0000
  H   H704      1.0  0.14632  0.72784  0.29733  1.0000
  H   H705      1.0  0.17688  0.72544  0.46245  1.0000
  S   S81       1.0  0.18734  0.88522  0.32955  1.0000
  H   H706      1.0  0.00367  0.68084  0.28889  1.0000
  C   C401      1.0  0.17226  0.71433  0.35104  1.0000
  H   H707      1.0  0.18814  0.63584  0.24541  1.0000
  H   H708      1.0  0.17598  0.66995  0.23663  1.0000
  H   H709      1.0  0.00706  0.65958  0.27912  1.0000
  N   N23       1.0  0.18654  0.78357  0.39769  1.0000
  C   C402      1.0  0.99475  0.68644  0.26128  1.0000
  C   C403      1.0  0.17719  0.63222  0.23945  1.0000
  C   C404      1.0  0.17945  0.71201  0.37005  1.0000
  C   C405      1.0  0.18231  0.66255  0.34092  1.0000
  H   H710      1.0  0.17526  0.72321  0.31132  1.0000
  C   C406      1.0  0.18839  0.65647  0.05631  1.0000
  H   H711      1.0  0.17335  0.60672  0.23154  1.0000
  C   C407      1.0  0.18492  0.73066  0.37076  1.0000
  H   H712      1.0  0.18796  0.71788  0.03568  1.0000
  Fe  Fe38      1.0  0.18938  0.53736  0.30735  1.0000
  C   C408      1.0  0.18637  0.65196  0.20611  1.0000
  H   H713      1.0  0.18780  0.48566  0.26498  1.0000
  H   H714      1.0  0.18354  0.59615  0.26372  1.0000
  S   S82       1.0  0.18445  0.66265  0.40335  1.0000
  C   C409      1.0  0.18447  0.68127  0.34572  1.0000
  H   H715      1.0  0.12996  0.68771  0.47892  1.0000
  S   S83       1.0  0.18471  0.62361  0.43816  1.0000
  C   C410      1.0  0.18529  0.61230  0.23370  1.0000
  H   H716      1.0  0.18929  0.72890  0.38477  1.0000
  H   H717      1.0  0.18934  0.77867  0.42756  1.0000
  H   H718      1.0  0.98995  0.72709  0.32123  1.0000
  C   C411      1.0  0.98998  0.77795  0.34134  1.0000
  H   H719      1.0  0.15781  0.66213  0.47933  1.0000
  H   H720      1.0  0.98977  0.71339  0.27023  1.0000
  C   C412      1.0  0.13769  0.68327  0.50772  1.0000
  C   C413      1.0  0.17061  0.59947  0.76965  1.0000
  H   H721      1.0  0.07317  0.60551  0.80783  1.0000
  H   H722      1.0  0.13024  0.57715  0.91785  1.0000
  H   H723      1.0  0.07539  0.53687  0.87067  1.0000
  C   C414      1.0  0.14013  0.97883  0.71750  1.0000
  S   S84       1.0  0.17226  0.83313  0.70445  1.0000
  C   C415      1.0  0.01495  0.56753  0.81330  1.0000
  C   C416      1.0  0.15800  0.63975  0.50561  1.0000
  S   S85       1.0  0.15444  0.67009  0.61132  1.0000
  H   H724      1.0  0.09578  0.57930  0.79007  1.0000
  Fe  Fe39      1.0  0.08754  0.74392  0.71218  1.0000
  S   S86       1.0  0.09956  0.72164  0.69377  1.0000
  S   S87       1.0  0.05549  0.75708  0.71891  1.0000
  Fe  Fe40      1.0  0.12735  0.74292  0.71970  1.0000
  S   S88       1.0  0.14240  0.72023  0.70193  1.0000
  S   S89       1.0  0.14597  0.75207  0.73506  1.0000
  Fe  Fe41      1.0  0.12372  0.73773  0.68084  1.0000
  S   S90       1.0  0.13676  0.74351  0.64889  1.0000
  Fe  Fe42      1.0  0.11702  0.70622  0.71639  1.0000
  S   S91       1.0  0.11892  0.67421  0.72603  1.0000
  S   S92       1.0  0.11039  0.76166  0.69739  1.0000
  S   S93       1.0  0.10329  0.72716  0.73613  1.0000
  C   C417      1.0  0.14813  0.65676  0.91081  1.0000
  S   S94       1.0  0.15525  0.54091  0.75633  1.0000
  H   H725      1.0  0.14885  0.63769  0.93877  1.0000
  Fe  Fe43      1.0  0.10964  0.61588  0.87200  1.0000
  S   S95       1.0  0.13609  0.60547  0.85084  1.0000
  S   S96       1.0  0.11344  0.61648  0.90176  1.0000
  Fe  Fe44      1.0  0.08249  0.62164  0.84408  1.0000
  S   S97       1.0  0.10709  0.61200  0.82070  1.0000
  S   S98       1.0  0.05352  0.63359  0.83461  1.0000
  Fe  Fe45      1.0  0.11782  0.58848  0.84437  1.0000
  S   S99       1.0  0.13198  0.55789  0.84106  1.0000
  Fe  Fe46      1.0  0.12352  0.62965  0.82879  1.0000
  S   S100      1.0  0.14366  0.64754  0.80711  1.0000
  S   S101      1.0  0.09200  0.59658  0.86755  1.0000
  S   S102      1.0  0.09814  0.64158  0.85043  1.0000
  H   H726      1.0  0.01687  0.66815  0.73008  1.0000
  H   H727      1.0  0.10601  0.54408  0.80584  1.0000
  C   C418      1.0  0.07435  0.56763  0.82500  1.0000
  H   H728      1.0  0.06278  0.56175  0.86586  1.0000
  N   N24       1.0  0.06990  0.56836  0.80558  1.0000
  C   C419      1.0  0.99006  0.66975  0.77167  1.0000
  H   H729      1.0  0.99232  0.72381  0.61360  1.0000
  N   N25       1.0  0.00711  0.69811  0.75174  1.0000
  H   H730      1.0  0.08919  0.57028  0.82312  1.0000
  C   C420      1.0  0.08625  0.61733  0.77858  1.0000
  H   H731      1.0  0.16407  0.58756  0.68075  1.0000
  H   H732      1.0  0.01509  0.77241  0.71888  1.0000
  C   C421      1.0  0.14966  0.54604  0.77961  1.0000
  C   C422      1.0  0.13780  0.56373  0.78296  1.0000
  C   C423      1.0  0.13275  0.56767  0.80169  1.0000
  C   C424      1.0  0.13917  0.55380  0.81722  1.0000
  C   C425      1.0  0.15117  0.53615  0.81379  1.0000
  C   C426      1.0  0.15668  0.53240  0.79495  1.0000
  H   H733      1.0  0.13252  0.57437  0.77106  1.0000
  H   H734      1.0  0.12354  0.58122  0.80409  1.0000
  H   H735      1.0  0.15610  0.52528  0.82572  1.0000
  H   H736      1.0  0.04038  0.54612  0.81738  1.0000
  C   C427      1.0  0.12761  0.66598  0.74761  1.0000
  C   C428      1.0  0.13623  0.67776  0.75379  1.0000
  C   C429      1.0  0.14218  0.67149  0.77165  1.0000
  C   C430      1.0  0.13886  0.65377  0.78363  1.0000
  C   C431      1.0  0.13095  0.64169  0.77706  1.0000
  C   C432      1.0  0.12548  0.64772  0.75897  1.0000
  H   H737      1.0  0.13817  0.69178  0.74490  1.0000
  H   H738      1.0  0.14858  0.68075  0.77655  1.0000
  H   H739      1.0  0.12915  0.62766  0.78584  1.0000
  H   H740      1.0  0.11912  0.63846  0.75403  1.0000
  H   H741      1.0  0.18916  0.62397  0.71628  1.0000
  H   H742      1.0  0.07844  0.58276  0.77557  1.0000
  C   C433      1.0  0.07996  0.58307  0.79036  1.0000
  C   C434      1.0  0.07526  0.55092  0.86012  1.0000
  H   H743      1.0  0.08572  0.53680  0.83599  1.0000
  C   C435      1.0  0.03489  0.56141  0.81875  1.0000
  H   H744      1.0  0.17998  0.66332  0.72842  1.0000
  H   H745      1.0  0.14002  0.83672  0.73983  1.0000
  C   C436      1.0  0.07310  0.60442  0.79293  1.0000
  H   H746      1.0  0.10148  0.61200  0.78052  1.0000
  C   C437      1.0  0.14947  0.69065  0.62147  1.0000
  C   C438      1.0  0.15783  0.70668  0.61170  1.0000
  C   C439      1.0  0.15382  0.72294  0.62014  1.0000
  C   C440      1.0  0.14197  0.72296  0.63861  1.0000
  C   C441      1.0  0.13384  0.70682  0.64844  1.0000
  C   C442      1.0  0.13723  0.69090  0.63970  1.0000
  H   H747      1.0  0.15013  0.78186  0.65159  1.0000
  H   H748      1.0  0.16017  0.73538  0.61245  1.0000
  H   H749      1.0  0.12490  0.70658  0.66274  1.0000
  H   H750      1.0  0.13058  0.67865  0.64716  1.0000
  C   C443      1.0  0.14139  0.66060  0.89346  1.0000
  C   C444      1.0  0.13112  0.64813  0.89030  1.0000
  C   C445      1.0  0.12686  0.63214  0.90481  1.0000
  C   C446      1.0  0.13319  0.62855  0.92234  1.0000
  C   C447      1.0  0.14400  0.64065  0.92524  1.0000
  H   H751      1.0  0.14439  0.67313  0.88233  1.0000
  H   H752      1.0  0.12621  0.65103  0.87681  1.0000
  H   H753      1.0  0.12975  0.61633  0.93372  1.0000
  C   C448      1.0  0.16551  0.81029  0.71234  1.0000
  C   C449      1.0  0.17723  0.79412  0.72174  1.0000
  C   C450      1.0  0.17122  0.77628  0.72837  1.0000
  C   C451      1.0  0.15357  0.77437  0.72542  1.0000
  C   C452      1.0  0.14201  0.79043  0.71567  1.0000
  C   C453      1.0  0.14796  0.80833  0.70918  1.0000
  H   H754      1.0  0.15159  0.76437  0.67419  1.0000
  H   H755      1.0  0.10018  0.51150  0.80759  1.0000
  H   H756      1.0  0.12832  0.78916  0.71342  1.0000
  H   H757      1.0  0.13885  0.82075  0.70183  1.0000
  C   C454      1.0  0.00516  0.59908  0.84841  1.0000
  H   H758      1.0  0.16833  0.63259  0.51549  1.0000
  C   C455      1.0  0.01922  0.62714  0.83093  1.0000
  C   C456      1.0  0.03514  0.61998  0.84016  1.0000
  C   C457      1.0  0.03599  0.60234  0.85357  1.0000
  C   C458      1.0  0.02110  0.59192  0.85762  1.0000
  H   H759      1.0  0.07102  0.53744  0.81030  1.0000
  H   H760      1.0  0.01839  0.64088  0.82071  1.0000
  H   H761      1.0  0.04800  0.59686  0.86100  1.0000
  H   H762      1.0  0.02185  0.57832  0.86808  1.0000
  C   C459      1.0  0.01306  0.74307  0.69010  1.0000
  C   C460      1.0  0.03229  0.73283  0.68802  1.0000
  C   C461      1.0  0.04540  0.73704  0.69676  1.0000
  C   C462      1.0  0.03935  0.75142  0.70778  1.0000
  C   C463      1.0  0.01994  0.76133  0.71027  1.0000
  C   C464      1.0  0.00679  0.68284  0.70400  1.0000
  H   H763      1.0  0.03699  0.72149  0.67977  1.0000
  H   H764      1.0  0.06011  0.72903  0.69509  1.0000
  H   H765      1.0  0.16993  0.61949  0.87642  1.0000
  H   H766      1.0  0.17726  0.56971  0.95780  1.0000
  H   H767      1.0  0.06449  0.57966  0.83161  1.0000
  H   H768      1.0  0.01596  0.56517  0.79856  1.0000
  H   H769      1.0  0.12003  0.96333  0.73986  1.0000
  H   H770      1.0  0.15210  0.69495  0.53271  1.0000
  H   H771      1.0  0.18687  0.61683  0.68882  1.0000
  N   N26       1.0  0.07705  0.74725  0.63330  1.0000
  C   C465      1.0  0.09607  0.74870  0.61929  1.0000
  C   C466      1.0  0.08016  0.72881  0.64836  1.0000
  C   C467      1.0  0.06215  0.74735  0.62218  1.0000
  C   C468      1.0  0.06984  0.76410  0.64354  1.0000
  C   C469      1.0  0.08466  0.76875  0.65277  1.0000
  C   C470      1.0  0.09632  0.76758  0.60351  1.0000
  C   C471      1.0  0.04239  0.74314  0.63476  1.0000
  C   C472      1.0  0.08496  0.70955  0.64110  1.0000
  C   C473      1.0  0.08553  0.69215  0.65816  1.0000
  C   C474      1.0  0.07521  0.78531  0.66357  1.0000
  C   C475      1.0  0.11692  0.76825  0.59193  1.0000
  H   H772      1.0  0.17463  0.57021  0.78598  1.0000
  H   H773      1.0  0.10080  0.73655  0.61139  1.0000
  H   H774      1.0  0.10774  0.74683  0.62730  1.0000
  H   H775      1.0  0.09236  0.72835  0.65511  1.0000
  H   H776      1.0  0.06739  0.72847  0.66049  1.0000
  H   H777      1.0  0.06800  0.73691  0.61228  1.0000
  H   H778      1.0  0.05886  0.76175  0.61240  1.0000
  H   H779      1.0  0.06419  0.77759  0.63357  1.0000
  H   H780      1.0  0.05720  0.76148  0.65555  1.0000
  H   H781      1.0  0.09710  0.77322  0.64157  1.0000
  H   H782      1.0  0.09034  0.75602  0.66336  1.0000
  H   H783      1.0  0.08716  0.76832  0.59316  1.0000
  H   H784      1.0  0.09094  0.78069  0.60990  1.0000
  H   H785      1.0  0.03537  0.75406  0.64393  1.0000
  H   H786      1.0  0.04418  0.72859  0.64441  1.0000
  H   H787      1.0  0.07404  0.70880  0.63332  1.0000
  H   H788      1.0  0.09934  0.70788  0.63115  1.0000
  H   H789      1.0  0.07101  0.69249  0.66788  1.0000
  H   H790      1.0  0.08993  0.67851  0.65260  1.0000
  H   H791      1.0  0.09616  0.69212  0.66673  1.0000
  H   H792      1.0  0.08620  0.78887  0.66946  1.0000
  H   H793      1.0  0.06913  0.79852  0.65362  1.0000
  H   H794      1.0  0.06348  0.78104  0.67592  1.0000
  H   H795      1.0  0.12292  0.75559  0.58481  1.0000
  H   H796      1.0  0.11683  0.78173  0.58053  1.0000
  H   H797      1.0  0.12652  0.76815  0.60165  1.0000
  H   H798      1.0  0.02949  0.68703  0.71524  1.0000
  Fe  Fe47      1.0  0.18715  0.52896  0.74897  1.0000
  H   H799      1.0  0.13289  0.55349  0.91316  1.0000
  N   N27       1.0  0.10218  0.70157  0.82121  1.0000
  C   C476      1.0  0.09557  0.72181  0.81021  1.0000
  C   C477      1.0  0.08902  0.69865  0.84095  1.0000
  C   C478      1.0  0.12300  0.69912  0.82284  1.0000
  C   C479      1.0  0.10138  0.68661  0.81062  1.0000
  C   C480      1.0  0.08130  0.68693  0.80680  1.0000
  C   C481      1.0  0.10555  0.72637  0.78846  1.0000
  C   C482      1.0  0.13044  0.68172  0.83850  1.0000
  C   C483      1.0  0.08859  0.71261  0.85402  1.0000
  C   C484      1.0  0.07887  0.70545  0.87503  1.0000
  C   C485      1.0  0.08307  0.67261  0.79402  1.0000
  C   C486      1.0  0.09955  0.74782  0.77942  1.0000
  C   C487      1.0  0.15239  0.67833  0.83635  1.0000
  H   H800      1.0  0.09808  0.73263  0.81717  1.0000
  H   H801      1.0  0.07963  0.72509  0.81108  1.0000
  H   H802      1.0  0.07376  0.70070  0.83954  1.0000
  H   H803      1.0  0.09267  0.68340  0.84893  1.0000
  H   H804      1.0  0.12554  0.71239  0.82582  1.0000
  H   H805      1.0  0.13291  0.69733  0.80867  1.0000
  H   H806      1.0  0.11180  0.68769  0.79649  1.0000
  H   H807      1.0  0.10639  0.67183  0.81873  1.0000
  H   H808      1.0  0.07472  0.70149  0.79932  1.0000
  H   H809      1.0  0.07126  0.68252  0.82066  1.0000
  H   H810      1.0  0.12155  0.72281  0.78661  1.0000
  H   H811      1.0  0.10139  0.71789  0.78007  1.0000
  H   H812      1.0  0.12691  0.66816  0.83760  1.0000
  H   H813      1.0  0.12373  0.68438  0.85333  1.0000
  H   H814      1.0  0.10328  0.71420  0.85408  1.0000
  H   H815      1.0  0.08021  0.72724  0.84870  1.0000
  H   H816      1.0  0.07821  0.71594  0.88398  1.0000
  H   H817      1.0  0.06387  0.70399  0.87582  1.0000
  H   H818      1.0  0.08729  0.69118  0.88126  1.0000
  H   H819      1.0  0.08954  0.65769  0.80095  1.0000
  H   H820      1.0  0.06848  0.67252  0.79205  1.0000
  H   H821      1.0  0.09222  0.67683  0.77948  1.0000
  H   H822      1.0  0.10351  0.75710  0.78713  1.0000
  H   H823      1.0  0.10718  0.75075  0.76399  1.0000
  H   H824      1.0  0.08370  0.75180  0.77990  1.0000
  H   H825      1.0  0.15721  0.66564  0.84756  1.0000
  H   H826      1.0  0.15994  0.67515  0.82184  1.0000
  H   H827      1.0  0.15656  0.69121  0.83831  1.0000
  C   C488      1.0  0.04845  0.57507  0.80582  1.0000
  C   C489      1.0  0.15771  0.78027  0.79409  1.0000
  H   H828      1.0  0.16358  0.83792  0.76897  1.0000
  C   C490      1.0  0.15183  0.77971  0.66681  1.0000
  H   H829      1.0  0.01095  0.74347  0.58621  1.0000
  H   H830      1.0  0.99407  0.71169  0.77645  1.0000
  C   C491      1.0  0.14876  0.74929  0.79242  1.0000
  H   H831      1.0  0.14278  0.78505  0.80227  1.0000
  H   H832      1.0  0.09761  0.68639  0.51551  1.0000
  H   H833      1.0  0.08138  0.63236  0.78117  1.0000
  H   H834      1.0  0.15538  0.59965  0.76948  1.0000
  S   S103      1.0  0.99753  0.73842  0.67764  1.0000
  H   H835      1.0  0.00489  0.55877  0.82385  1.0000
  H   H836      1.0  0.05822  0.61047  0.79018  1.0000
  H   H837      1.0  0.05987  0.54357  0.84247  1.0000
  C   C492      1.0  0.17981  0.59120  0.93060  1.0000
  H   H838      1.0  0.17311  0.62169  0.48445  1.0000
  H   H839      1.0  0.03442  0.73254  0.61305  1.0000
  H   H840      1.0  0.17539  0.61248  0.84395  1.0000
  H   H841      1.0  0.00874  0.58307  0.81360  1.0000
  H   H842      1.0  0.15176  0.97361  0.72606  1.0000
  H   H843      1.0  0.00310  0.72614  0.57778  1.0000
  H   H844      1.0  0.09493  0.69065  0.49070  1.0000
  C   C493      1.0  0.18833  0.77244  0.65606  1.0000
  C   C494      1.0  0.99436  0.64852  0.78210  1.0000
  C   C495      1.0  0.02591  0.70522  0.74759  1.0000
  H   H845      1.0  0.18168  0.78458  0.81910  1.0000
  H   H846      1.0  0.17960  0.64957  0.87463  1.0000
  C   C496      1.0  0.16659  0.68522  0.53123  1.0000
  H   H847      1.0  0.03277  0.56226  0.83420  1.0000
  N   N28       1.0  0.18894  0.58090  0.89713  1.0000
  C   C497      1.0  0.04502  0.68970  0.74787  1.0000
  C   C498      1.0  0.06274  0.69909  0.74151  1.0000
  C   C499      1.0  0.00858  0.67845  0.76528  1.0000
  H   H848      1.0  0.16036  0.65804  0.53088  1.0000
  H   H849      1.0  0.17725  0.59005  0.65588  1.0000
  H   H850      1.0  0.02041  0.66754  0.75888  1.0000
  H   H851      1.0  0.02768  0.71555  0.73332  1.0000
  H   H852      1.0  0.02557  0.71373  0.75845  1.0000
  H   H853      1.0  0.16664  0.55208  0.89801  1.0000
  H   H854      1.0  0.02545  0.75826  0.61252  1.0000
  H   H855      1.0  0.13411  0.75331  0.80136  1.0000
  H   H856      1.0  0.00489  0.63956  0.77225  1.0000
  C   C500      1.0  0.12474  0.68166  0.49440  1.0000
  H   H857      1.0  0.16624  0.58598  0.88117  1.0000
  H   H858      1.0  0.04597  0.57824  0.79069  1.0000
  H   H859      1.0  0.00162  0.71243  0.72307  1.0000
  H   H860      1.0  0.18035  0.76386  0.73569  1.0000
  H   H861      1.0  0.00025  0.64713  0.79514  1.0000
  H   H862      1.0  0.04525  0.68107  0.76286  1.0000
  H   H863      1.0  0.04671  0.67963  0.73820  1.0000
  H   H864      1.0  0.07608  0.68773  0.74277  1.0000
  H   H865      1.0  0.06404  0.70698  0.72616  1.0000
  H   H866      1.0  0.06175  0.70939  0.75081  1.0000
  H   H867      1.0  0.18772  0.81494  0.82397  1.0000
  H   H868      1.0  0.13501  0.94986  0.72193  1.0000
  H   H869      1.0  0.15481  0.61167  0.50331  1.0000
  H   H870      1.0  0.10552  0.55051  0.78028  1.0000
  C   C501      1.0  0.18658  0.61800  0.83177  1.0000
  C   C502      1.0  0.02838  0.74372  0.62208  1.0000
  N   N29       1.0  0.16451  0.64291  0.68719  1.0000
  C   C503      1.0  0.16460  0.64595  0.70691  1.0000
  C   C504      1.0  0.14409  0.64998  0.68367  1.0000
  C   C505      1.0  0.17162  0.62166  0.68682  1.0000
  Fe  Fe48      1.0  0.18103  0.66223  0.93610  1.0000
  C   C506      1.0  0.17510  0.67589  0.67211  1.0000
  H   H871      1.0  0.18065  0.68677  0.64075  1.0000
  C   C507      1.0  0.17156  0.61586  0.66775  1.0000
  C   C508      1.0  0.12912  0.63751  0.69598  1.0000
  C   C509      1.0  0.10892  0.64687  0.69177  1.0000
  C   C510      1.0  0.99122  0.71213  0.76196  1.0000
  H   H872      1.0  0.14622  0.77533  0.77077  1.0000
  C   C511      1.0  0.15844  0.62526  0.49354  1.0000
  H   H873      1.0  0.15494  0.63753  0.71849  1.0000
  H   H874      1.0  0.15835  0.66134  0.70797  1.0000
  H   H875      1.0  0.13820  0.66491  0.68645  1.0000
  H   H876      1.0  0.14390  0.65135  0.66814  1.0000
  H   H877      1.0  0.16330  0.61271  0.69937  1.0000
  H   H878      1.0  0.17772  0.69400  0.52341  1.0000
  S   S104      1.0  0.16153  0.67245  0.91394  1.0000
  H   H879      1.0  0.16196  0.82297  0.83243  1.0000
  H   H880      1.0  0.14960  0.85697  0.74033  1.0000
  H   H881      1.0  0.15969  0.68341  0.67390  1.0000
  H   H882      1.0  0.13484  0.69875  0.50879  1.0000
  H   H883      1.0  0.11496  0.96896  0.71563  1.0000
  C   C512      1.0  0.15984  0.56362  0.90649  1.0000
  H   H884      1.0  0.15742  0.62151  0.66322  1.0000
  H   H885      1.0  0.13301  0.62285  0.69256  1.0000
  H   H886      1.0  0.12815  0.63587  0.71176  1.0000
  H   H887      1.0  0.09848  0.63767  0.70063  1.0000
  H   H888      1.0  0.10399  0.66139  0.69562  1.0000
  H   H889      1.0  0.10897  0.64839  0.67616  1.0000
  H   H890      1.0  0.17354  0.59430  0.96059  1.0000
  H   H891      1.0  0.16416  0.59362  0.93077  1.0000
  H   H892      1.0  0.14779  0.74062  0.78231  1.0000
  C   C513      1.0  0.13803  0.56736  0.90765  1.0000
  H   H893      1.0  0.16238  0.55813  0.92151  1.0000
  H   H894      1.0  0.99197  0.76512  0.70321  1.0000
  C   C514      1.0  0.16969  0.79741  0.81950  1.0000
  H   H895      1.0  0.17499  0.65419  0.65683  1.0000
  C   C515      1.0  0.17073  0.67645  0.55159  1.0000
  H   H896      1.0  0.08569  0.61764  0.76339  1.0000
  H   H897      1.0  0.13877  0.81416  0.77853  1.0000
  H   H898      1.0  0.01263  0.67919  0.77882  1.0000
  C   C516      1.0  0.10510  0.52076  0.79333  1.0000
  C   C517      1.0  0.17387  0.81006  0.83114  1.0000
  C   C518      1.0  0.17678  0.58441  0.78706  1.0000
  H   H899      1.0  0.07165  0.54986  0.78595  1.0000
  H   H900      1.0  0.00180  0.73866  0.74464  1.0000
  H   H901      1.0  0.18075  0.67701  0.68449  1.0000
  H   H902      1.0  0.13441  0.57395  0.89310  1.0000
  H   H903      1.0  0.14326  0.64283  0.51466  1.0000
  C   C519      1.0  0.09931  0.54213  0.79458  1.0000
  H   H904      1.0  0.17193  0.64175  0.74328  1.0000
  H   H905      1.0  0.17332  0.82731  0.74789  1.0000
  H   H906      1.0  0.12434  0.66629  0.49556  1.0000
  H   H907      1.0  0.13936  0.78918  0.67448  1.0000
  C   C520      1.0  0.16932  0.69136  0.48859  1.0000
  C   C521      1.0  0.16408  0.65855  0.49249  1.0000
  H   H908      1.0  0.15330  0.81991  0.80137  1.0000
  C   C522      1.0  0.16708  0.80903  0.79888  1.0000
  C   C523      1.0  0.16023  0.83018  0.75935  1.0000
  C   C524      1.0  0.07700  0.54916  0.79923  1.0000
  C   C525      1.0  0.18229  0.58359  0.95166  1.0000
  H   H909      1.0  0.99244  0.67862  0.70915  1.0000
  H   H910      1.0  0.18327  0.66196  0.51672  1.0000
  C   C526      1.0  0.15634  0.76742  0.78063  1.0000
  H   H911      1.0  0.16588  0.51870  0.79241  1.0000
  H   H912      1.0  0.08895  0.55564  0.85884  1.0000
  C   C527      1.0  0.07350  0.54852  0.84042  1.0000
  H   H913      1.0  0.15823  0.59427  0.90311  1.0000
  H   H914      1.0  0.04271  0.58893  0.81104  1.0000
  C   C528      1.0  0.17753  0.65430  0.67126  1.0000
  C   C529      1.0  0.10388  0.69239  0.50019  1.0000
  H   H915      1.0  0.16722  0.70664  0.59756  1.0000
  H   H916      1.0  0.16569  0.77049  0.80517  1.0000
  H   H917      1.0  0.17144  0.78243  0.68278  1.0000
  Fe  Fe49      1.0  0.18790  0.65123  0.97746  1.0000
  C   C530      1.0  0.12661  0.96443  0.72416  1.0000
  H   H918      1.0  0.00514  0.69732  0.69417  1.0000
  C   C531      1.0  0.15405  0.81078  0.77048  1.0000
  Fe  Fe50      1.0  0.18642  0.66153  0.59979  1.0000
  H   H919      1.0  0.17263  0.62023  0.89990  1.0000
  C   C532      1.0  0.16805  0.58223  0.89656  1.0000
  H   H920      1.0  0.99091  0.75142  0.57386  1.0000
  H   H921      1.0  0.01443  0.74070  0.63153  1.0000
  H   H922      1.0  0.16701  0.58835  0.80052  1.0000
  C   C533      1.0  0.18068  0.61864  0.88518  1.0000
  H   H923      1.0  0.13132  0.84850  0.76041  1.0000
  H   H924      1.0  0.18465  0.60524  0.92555  1.0000
  C   C534      1.0  0.00680  0.75714  0.70151  1.0000
  H   H925      1.0  0.12115  0.51658  0.78927  1.0000
  H   H926      1.0  0.15877  0.74016  0.80202  1.0000
  H   H927      1.0  0.16775  0.70351  0.49581  1.0000
  H   H928      1.0  0.15617  0.79230  0.82756  1.0000
  H   H929      1.0  0.17996  0.59588  0.75586  1.0000
  C   C535      1.0  0.99809  0.73932  0.58415  1.0000
  C   C536      1.0  0.01510  0.68308  0.72121  1.0000
  C   C537      1.0  0.17592  0.59383  0.67009  1.0000
  C   C538      1.0  0.16774  0.66920  0.52021  1.0000
  H   H930      1.0  0.15974  0.66793  0.56057  1.0000
  H   H931      1.0  0.18136  0.63379  0.82672  1.0000
  H   H932      1.0  0.15368  0.80347  0.75896  1.0000
  C   C539      1.0  0.17070  0.78482  0.66733  1.0000
  H   H933      1.0  0.17074  0.76247  0.77177  1.0000
  H   H934      1.0  0.09881  0.51815  0.78207  1.0000
  N   N30       1.0  0.15926  0.67572  0.50207  1.0000
  H   H935      1.0  0.13176  0.67552  0.52254  1.0000
  N   N31       1.0  0.16673  0.79771  0.78419  1.0000
  H   H936      1.0  0.16979  0.80043  0.66055  1.0000
  H   H937      1.0  0.17032  0.68819  0.55894  1.0000
  C   C540      1.0  0.14425  0.84388  0.74942  1.0000
  C   C541      1.0  0.00431  0.61673  0.83498  1.0000
  H   H938      1.0  0.18522  0.68545  0.48486  1.0000
  S   S105      1.0  0.18216  0.63433  0.95832  1.0000
  H   H939      1.0  0.17148  0.61412  0.77075  1.0000
  H   H940      1.0  0.17720  0.61222  0.80856  1.0000
  C   C542      1.0  0.00172  0.69801  0.73307  1.0000
  H   H941      1.0  0.01673  0.67218  0.69560  1.0000
  S   S106      1.0  0.18420  0.67988  0.95618  1.0000
  H   H942      1.0  0.18534  0.66691  0.55066  1.0000
  H   H943      1.0  0.99210  0.62239  0.82784  1.0000
  H   H944      1.0  0.17518  0.80159  0.84598  1.0000
  H   H945      1.0  0.18618  0.78700  0.75958  1.0000
  H   H946      1.0  0.18285  0.62160  0.65578  1.0000
  H   H947      1.0  0.14710  0.97861  0.70204  1.0000
  H   H948      1.0  0.17826  0.52955  0.84488  1.0000
  H   H949      1.0  0.18054  0.58140  0.83015  1.0000
  H   H950      1.0  0.18632  0.77672  0.64079  1.0000
  H   H951      1.0  0.18188  0.55611  0.81648  1.0000
  H   H952      1.0  0.14771  0.63129  0.48396  1.0000
  H   H953      1.0  0.17861  0.81775  0.79307  1.0000
  H   H954      1.0  0.10331  0.70811  0.49834  1.0000
  H   H955      1.0  0.18001  0.65461  0.48713  1.0000
  H   H956      1.0  0.18695  0.75695  0.66116  1.0000
  C   C543      1.0  0.18618  0.68690  0.65356  1.0000
  C   C544      1.0  0.18454  0.64001  0.71298  1.0000
  H   H957      1.0  0.18426  0.70224  0.65459  1.0000
  C   C545      1.0  0.18337  0.64721  0.73131  1.0000
  C   C546      1.0  0.18681  0.79225  0.77241  1.0000
  H   H958      1.0  0.13941  0.98266  0.75545  1.0000
  H   H959      1.0  0.24206  0.40908  0.22253  1.0000
  H   H960      1.0  0.32703  0.22128  0.00496  1.0000
  C   C547      1.0  0.28981  0.21669  0.01887  1.0000
  Fe  Fe51      1.0  0.22499  0.00845  0.37857  1.0000
  H   H961      1.0  0.21062  0.10662  0.46908  1.0000
  S   S107      1.0  0.33628  0.12734  0.99255  1.0000
  C   C548      1.0  0.20950  0.34015  0.99017  1.0000
  H   H962      1.0  0.25106  0.45992  0.34742  1.0000
  Fe  Fe52      1.0  0.23184  0.28339  0.11109  1.0000
  S   S108      1.0  0.23483  0.30247  0.08124  1.0000
  S   S109      1.0  0.25032  0.25405  0.11994  1.0000
  S   S110      1.0  0.25641  0.00913  0.37528  1.0000
  H   H963      1.0  0.25159  0.40816  0.13766  1.0000
  C   C549      1.0  0.36805  0.45854  0.21245  1.0000
  Fe  Fe53      1.0  0.23089  0.32618  0.09730  1.0000
  S   S111      1.0  0.24793  0.34981  0.08498  1.0000
  H   H964      1.0  0.34289  0.45878  0.16361  1.0000
  S   S112      1.0  0.23042  0.30676  0.12668  1.0000
  Fe  Fe54      1.0  0.27785  0.37338  0.19139  1.0000
  S   S113      1.0  0.28278  0.39230  0.16176  1.0000
  S   S114      1.0  0.24666  0.37321  0.20509  1.0000
  Fe  Fe55      1.0  0.32061  0.35968  0.19111  1.0000
  S   S115      1.0  0.32893  0.37765  0.16147  1.0000
  S   S116      1.0  0.34329  0.34108  0.20778  1.0000
  Fe  Fe56      1.0  0.30500  0.40113  0.17226  1.0000
  S   S117      1.0  0.30699  0.43281  0.16450  1.0000
  Fe  Fe57      1.0  0.30587  0.36700  0.15406  1.0000
  S   S118      1.0  0.31223  0.35614  0.12621  1.0000
  S   S119      1.0  0.29832  0.38395  0.20264  1.0000
  S   S120      1.0  0.29931  0.34726  0.18302  1.0000
  Fe  Fe58      1.0  0.37501  0.16614  0.06191  1.0000
  S   S121      1.0  0.34360  0.16917  0.07619  1.0000
  H   H965      1.0  0.20614  0.33602  0.03383  1.0000
  S   S122      1.0  0.35148  0.19691  0.10150  1.0000
  Fe  Fe59      1.0  0.35402  0.16511  0.10384  1.0000
  S   S123      1.0  0.34019  0.14878  0.13262  1.0000
  Fe  Fe60      1.0  0.34439  0.20041  0.07240  1.0000
  S   S124      1.0  0.32285  0.22424  0.05835  1.0000
  S   S125      1.0  0.37523  0.19775  0.05653  1.0000
  S   S126      1.0  0.36906  0.07272  0.22024  1.0000
  S   S127      1.0  0.34727  0.04073  0.21385  1.0000
  Fe  Fe61      1.0  0.37370  0.05348  0.19918  1.0000
  H   H966      1.0  0.27513  0.21771  0.02835  1.0000
  Fe  Fe62      1.0  0.34452  0.05773  0.23642  1.0000
  S   S128      1.0  0.31569  0.07305  0.25108  1.0000
  Fe  Fe63      1.0  0.25416  0.02435  0.34473  1.0000
  H   H967      1.0  0.31080  0.00856  0.29040  1.0000
  Fe  Fe64      1.0  0.21507  0.05028  0.35758  1.0000
  Fe  Fe65      1.0  0.24571  0.03869  0.38266  1.0000
  S   S129      1.0  0.26089  0.05628  0.39332  1.0000
  S   S130      1.0  0.24576  0.05379  0.35158  1.0000
  S   S131      1.0  0.22347  0.02203  0.34747  1.0000
  Fe  Fe66      1.0  0.31902  0.11017  0.46296  1.0000
  S   S132      1.0  0.35145  0.10742  0.45287  1.0000
  C   C550      1.0  0.31245  0.03687  0.27270  1.0000
  S   S133      1.0  0.29939  0.10645  0.44565  1.0000
  H   H968      1.0  0.25241  0.41958  0.10259  1.0000
  C   C551      1.0  0.31013  0.12813  0.11432  1.0000
  H   H969      1.0  0.24631  0.27193  0.38874  1.0000
  H   H970      1.0  0.32132  0.04391  0.43657  1.0000
  H   H971      1.0  0.22800  0.24504  0.41095  1.0000
  H   H972      1.0  0.36216  0.21034  0.99461  1.0000
  S   S134      1.0  0.30057  0.13814  0.47005  1.0000
  H   H973      1.0  0.19366  0.32829  0.25828  1.0000
  H   H974      1.0  0.37679  0.12544  0.07846  1.0000
  C   C552      1.0  0.29037  0.44154  0.27290  1.0000
  C   C553      1.0  0.21619  0.34602  0.02586  1.0000
  C   C554      1.0  0.26220  0.19189  0.43356  1.0000
  H   H975      1.0  0.26140  0.45583  0.28334  1.0000
  H   H976      1.0  0.27676  0.19060  0.42492  1.0000
  C   C555      1.0  0.26172  0.05827  0.41670  1.0000
  C   C556      1.0  0.26027  0.04304  0.43289  1.0000
  C   C557      1.0  0.26393  0.04473  0.45047  1.0000
  C   C558      1.0  0.26879  0.06169  0.45193  1.0000
  C   C559      1.0  0.26906  0.07723  0.43601  1.0000
  C   C560      1.0  0.26560  0.07549  0.41851  1.0000
  H   H977      1.0  0.25725  0.02968  0.43165  1.0000
  H   H978      1.0  0.36582  0.45811  0.14800  1.0000
  H   H979      1.0  0.26620  0.08751  0.40617  1.0000
  N   N32       1.0  0.22134  0.38612  0.15140  1.0000
  C   C561      1.0  0.36011  0.10753  0.42794  1.0000
  C   C562      1.0  0.34721  0.11265  0.41533  1.0000
  H   H980      1.0  0.26335  0.25119  0.01011  1.0000
  H   H981      1.0  0.27902  0.16142  0.99349  1.0000
  H   H982      1.0  0.33196  0.11743  0.42062  1.0000
  C   C563      1.0  0.30464  0.05673  0.27035  1.0000
  C   C564      1.0  0.28834  0.06351  0.28378  1.0000
  C   C565      1.0  0.28009  0.05041  0.29967  1.0000
  C   C566      1.0  0.28827  0.03057  0.30215  1.0000
  H   H983      1.0  0.28213  0.07887  0.28193  1.0000
  H   H984      1.0  0.26744  0.05565  0.30991  1.0000
  C   C567      1.0  0.37225  0.08904  0.15877  1.0000
  Fe  Fe67      1.0  0.19027  0.23507  0.46989  1.0000
  C   C568      1.0  0.37177  0.11848  0.13366  1.0000
  C   C569      1.0  0.35326  0.12636  0.14307  1.0000
  C   C570      1.0  0.22400  0.10589  0.45760  1.0000
  H   H985      1.0  0.37861  0.12652  0.12015  1.0000
  C   C571      1.0  0.30502  0.44576  0.18257  1.0000
  C   C572      1.0  0.30439  0.46580  0.17718  1.0000
  H   H986      1.0  0.20168  0.30465  0.22037  1.0000
  C   C573      1.0  0.30490  0.46686  0.21012  1.0000
  C   C574      1.0  0.30480  0.44696  0.21569  1.0000
  C   C575      1.0  0.30491  0.43642  0.20196  1.0000
  H   H987      1.0  0.33906  0.07456  0.44404  1.0000
  C   C576      1.0  0.31895  0.19394  0.00525  1.0000
  H   H988      1.0  0.30521  0.43953  0.23054  1.0000
  H   H989      1.0  0.30535  0.42102  0.20630  1.0000
  C   C577      1.0  0.36311  0.32836  0.19326  1.0000
  C   C578      1.0  0.37933  0.31787  0.20109  1.0000
  H   H990      1.0  0.23049  0.11852  0.45624  1.0000
  C   C579      1.0  0.20611  0.27989  0.01427  1.0000
  H   H991      1.0  0.20476  0.36912  0.36967  1.0000
  C   C580      1.0  0.26974  0.24537  0.10230  1.0000
  C   C581      1.0  0.28216  0.22761  0.10756  1.0000
  C   C582      1.0  0.29852  0.22098  0.09411  1.0000
  C   C583      1.0  0.30231  0.23199  0.07527  1.0000
  C   C584      1.0  0.28974  0.24953  0.06987  1.0000
  C   C585      1.0  0.27352  0.25626  0.08339  1.0000
  H   H992      1.0  0.27924  0.21905  0.12214  1.0000
  H   H993      1.0  0.30812  0.20732  0.09831  1.0000
  H   H994      1.0  0.29275  0.25803  0.05531  1.0000
  H   H995      1.0  0.26408  0.26989  0.07917  1.0000
  C   C586      1.0  0.26545  0.35093  0.09725  1.0000
  C   C587      1.0  0.26398  0.34390  0.11731  1.0000
  C   C588      1.0  0.27781  0.34607  0.12668  1.0000
  C   C589      1.0  0.29350  0.35460  0.11578  1.0000
  C   C590      1.0  0.29521  0.36091  0.09568  1.0000
  C   C591      1.0  0.28107  0.35945  0.08653  1.0000
  H   H996      1.0  0.25206  0.33707  0.12559  1.0000
  H   H997      1.0  0.27652  0.34093  0.14219  1.0000
  H   H998      1.0  0.30740  0.36728  0.08715  1.0000
  H   H999      1.0  0.28236  0.36483  0.07103  1.0000
  C   C592      1.0  0.23466  0.35090  0.27062  1.0000
  C   C593      1.0  0.24717  0.46778  0.31734  1.0000
  C   C594      1.0  0.22345  0.36343  0.24024  1.0000
  C   C595      1.0  0.24240  0.36435  0.23020  1.0000
  C   C596      1.0  0.25756  0.35839  0.24031  1.0000
  C   C597      1.0  0.25368  0.35163  0.26052  1.0000
  C   C598      1.0  0.25315  0.23372  0.39113  1.0000
  C   C599      1.0  0.21172  0.28879  0.44235  1.0000
  H   H1000     1.0  0.27226  0.35897  0.23258  1.0000
  H   H1001     1.0  0.26539  0.34712  0.26835  1.0000
  H   H1002     1.0  0.33700  0.27406  0.19325  1.0000
  H   H1003     1.0  0.26486  0.15804  0.01813  1.0000
  C   C600      1.0  0.37329  0.14580  0.02418  1.0000
  C   C601      1.0  0.21938  0.10624  0.43815  1.0000
  C   C602      1.0  0.36929  0.13733  0.99531  1.0000
  C   C603      1.0  0.35035  0.13522  0.00428  1.0000
  C   C604      1.0  0.34291  0.13841  0.02325  1.0000
  C   C605      1.0  0.35417  0.14419  0.03298  1.0000
  H   H1004     1.0  0.22875  0.98500  0.28569  1.0000
  H   H1005     1.0  0.34862  0.08822  0.03802  1.0000
  H   H1006     1.0  0.32846  0.13631  0.03045  1.0000
  H   H1007     1.0  0.34831  0.14663  0.04754  1.0000
  C   C606      1.0  0.24493  0.32019  0.02569  1.0000
  H   H1008     1.0  0.26354  0.23780  0.39742  1.0000
  H   H1009     1.0  0.23289  0.10703  0.42693  1.0000
  H   H1010     1.0  0.27381  0.31459  0.00734  1.0000
  H   H1011     1.0  0.26062  0.28072  0.03882  1.0000
  H   H1012     1.0  0.35008  0.33582  0.16814  1.0000
  H   H1013     1.0  0.30423  0.47316  0.16224  1.0000
  H   H1014     1.0  0.25245  0.41368  0.26774  1.0000
  H   H1015     1.0  0.22250  0.38118  0.37195  1.0000
  H   H1016     1.0  0.26372  0.41104  0.22878  1.0000
  S   S135      1.0  0.21425  0.03679  0.38909  1.0000
  H   H1017     1.0  0.29374  0.11955  0.38863  1.0000
  H   H1018     1.0  0.24055  0.37557  0.31102  1.0000
  H   H1019     1.0  0.20926  0.35119  0.17618  1.0000
  H   H1020     1.0  0.37442  0.06150  0.38426  1.0000
  H   H1021     1.0  0.36268  0.06633  0.06644  1.0000
  C   C607      1.0  0.27594  0.99429  0.27268  1.0000
  H   H1022     1.0  0.23569  0.36526  0.99740  1.0000
  C   C608      1.0  0.31255  0.09125  0.39405  1.0000
  C   C609      1.0  0.25234  0.20949  0.43892  1.0000
  H   H1023     1.0  0.34900  0.07029  0.40993  1.0000
  H   H1024     1.0  0.22479  0.07567  0.43846  1.0000
  H   H1025     1.0  0.21795  0.33601  0.34666  1.0000
  C   C610      1.0  0.37408  0.12648  0.19699  1.0000
  H   H1026     1.0  0.21168  0.27835  0.45650  1.0000
  H   H1027     1.0  0.20112  0.31028  0.37323  1.0000
  H   H1028     1.0  0.29067  0.19291  0.45728  1.0000
  H   H1029     1.0  0.26514  0.33202  0.98041  1.0000
  H   H1030     1.0  0.26170  0.39509  0.09869  1.0000
  H   H1031     1.0  0.36206  0.10052  0.29577  1.0000
  C   C611      1.0  0.20009  0.37183  0.13717  1.0000
  H   H1032     1.0  0.20741  0.31136  0.18373  1.0000
  H   H1033     1.0  0.21040  0.99618  0.31632  1.0000
  H   H1034     1.0  0.29772  0.22395  0.02520  1.0000
  C   C612      1.0  0.30511  0.10978  0.38019  1.0000
  S   S136      1.0  0.19954  0.28693  0.11597  1.0000
  H   H1035     1.0  0.30649  0.05306  0.40921  1.0000
  H   H1036     1.0  0.35807  0.03232  0.38912  1.0000
  C   C613      1.0  0.21566  0.29174  0.40613  1.0000
  H   H1037     1.0  0.31308  0.04934  0.38533  1.0000
  H   H1038     1.0  0.23505  0.31726  0.33539  1.0000
  H   H1039     1.0  0.34729  0.11104  0.11403  1.0000
  H   H1040     1.0  0.25807  0.29958  0.00591  1.0000
  H   H1041     1.0  0.36455  0.12415  0.47949  1.0000
  H   H1042     1.0  0.31745  0.09551  0.40530  1.0000
  H   H1043     1.0  0.35159  0.15014  0.39945  1.0000
  H   H1044     1.0  0.21299  0.35469  0.98364  1.0000
  C   C614      1.0  0.19242  0.29864  0.04615  1.0000
  H   H1045     1.0  0.30070  0.22903  0.98791  1.0000
  C   C615      1.0  0.38821  0.02088  0.29859  1.0000
  H   H1046     1.0  0.22262  0.40708  0.29624  1.0000
  S   S137      1.0  0.21553  0.26820  0.99432  1.0000
  C   C616      1.0  0.28188  0.47437  0.28247  1.0000
  H   H1047     1.0  0.33822  0.07284  0.10272  1.0000
  H   H1048     1.0  0.38110  0.23752  0.16189  1.0000
  C   C617      1.0  0.21961  0.35670  0.26040  1.0000
  H   H1049     1.0  0.38812  0.16121  0.18890  1.0000
  H   H1050     1.0  0.25636  0.19317  0.98341  1.0000
  C   C618      1.0  0.36015  0.43506  0.18795  1.0000
  H   H1051     1.0  0.32581  0.07735  0.36943  1.0000
  C   C619      1.0  0.30444  0.02387  0.28864  1.0000
  C   C620      1.0  0.37005  0.05709  0.37276  1.0000
  C   C621      1.0  0.21533  0.29997  0.37156  1.0000
  C   C622      1.0  0.20864  0.38346  0.36719  1.0000
  H   H1052     1.0  0.29281  0.43346  0.28755  1.0000
  H   H1053     1.0  0.27202  0.09061  0.43710  1.0000
  H   H1054     1.0  0.26635  0.99899  0.26192  1.0000
  H   H1055     1.0  0.35362  0.04472  0.41593  1.0000
  N   N33       1.0  0.20171  0.08939  0.42264  1.0000
  N   N34       1.0  0.23323  0.33588  0.01272  1.0000
  H   H1056     1.0  0.23474  0.47112  0.31002  1.0000
  H   H1057     1.0  0.22908  0.29729  0.40384  1.0000
  H   H1058     1.0  0.38022  0.07888  0.29695  1.0000
  C   C623      1.0  0.19745  0.27581  0.39296  1.0000
  C   C624      1.0  0.24508  0.35054  0.00013  1.0000
  H   H1059     1.0  0.25940  0.22173  0.43468  1.0000
  C   C625      1.0  0.23136  0.31194  0.36694  1.0000
  H   H1060     1.0  0.19326  0.10387  0.38495  1.0000
  H   H1061     1.0  0.20365  0.15591  0.43363  1.0000
  H   H1062     1.0  0.22968  0.08683  0.40301  1.0000
  C   C626      1.0  0.35329  0.09602  0.07159  1.0000
  C   C627      1.0  0.23442  0.17758  0.45062  1.0000
  C   C628      1.0  0.33319  0.20548  0.00732  1.0000
  N   N35       1.0  0.29968  0.19573  0.01930  1.0000
  C   C629      1.0  0.28687  0.18584  0.01348  1.0000
  C   C630      1.0  0.30321  0.18647  0.03953  1.0000
  C   C631      1.0  0.28490  0.18457  0.05580  1.0000
  C   C632      1.0  0.29360  0.16359  0.01533  1.0000
  C   C633      1.0  0.29048  0.17482  0.07544  1.0000
  C   C634      1.0  0.27962  0.15516  0.00901  1.0000
  H   H1063     1.0  0.27173  0.18895  0.02184  1.0000
  H   H1064     1.0  0.32676  0.17855  0.00698  1.0000
  H   H1065     1.0  0.31283  0.17187  0.03981  1.0000
  H   H1066     1.0  0.31127  0.19500  0.04411  1.0000
  H   H1067     1.0  0.27606  0.17572  0.05288  1.0000
  H   H1068     1.0  0.27573  0.19903  0.05727  1.0000
  H   H1069     1.0  0.30796  0.16006  0.00581  1.0000
  H   H1070     1.0  0.29455  0.15609  0.03048  1.0000
  H   H1071     1.0  0.33692  0.20065  0.02192  1.0000
  H   H1072     1.0  0.29854  0.18372  0.07951  1.0000
  H   H1073     1.0  0.27721  0.17340  0.08686  1.0000
  H   H1074     1.0  0.29961  0.16013  0.07495  1.0000
  H   H1075     1.0  0.36505  0.32564  0.08881  1.0000
  H   H1076     1.0  0.28483  0.13922  0.01061  1.0000
  C   C635      1.0  0.27115  0.29014  0.03079  1.0000
  S   S138      1.0  0.36349  0.98704  0.24275  1.0000
  N   N36       1.0  0.21576  0.28344  0.38909  1.0000
  C   C636      1.0  0.21801  0.43949  0.26815  1.0000
  H   H1077     1.0  0.36187  0.44585  0.22127  1.0000
  H   H1078     1.0  0.36769  0.42712  0.20008  1.0000
  C   C637      1.0  0.23397  0.26829  0.38496  1.0000
  C   C638      1.0  0.23317  0.24688  0.39503  1.0000
  H   H1079     1.0  0.19766  0.29934  0.44339  1.0000
  H   H1080     1.0  0.30777  0.98574  0.27009  1.0000
  H   H1081     1.0  0.35896  0.18668  0.99435  1.0000
  C   C639      1.0  0.38697  0.10173  0.40077  1.0000
  H   H1082     1.0  0.20982  0.19664  0.46437  1.0000
  C   C640      1.0  0.37745  0.09436  0.09109  1.0000
  H   H1083     1.0  0.23690  0.31961  0.99034  1.0000
  H   H1084     1.0  0.22372  0.29656  0.43965  1.0000
  H   H1085     1.0  0.35276  0.11139  0.26065  1.0000
  H   H1086     1.0  0.31750  0.09817  0.11289  1.0000
  H   H1087     1.0  0.27213  0.46678  0.25961  1.0000
  H   H1088     1.0  0.22296  0.40676  0.12389  1.0000
  H   H1089     1.0  0.23845  0.26837  0.36910  1.0000
  H   H1090     1.0  0.38288  0.23978  0.12606  1.0000
  H   H1091     1.0  0.22324  0.24156  0.38930  1.0000
  C   C641      1.0  0.32420  0.02476  0.40621  1.0000
  C   C642      1.0  0.21122  0.41661  0.25106  1.0000
  H   H1092     1.0  0.20348  0.30450  0.40731  1.0000
  H   H1093     1.0  0.24586  0.30232  0.36706  1.0000
  C   C643      1.0  0.35689  0.46336  0.16124  1.0000
  H   H1094     1.0  0.20860  0.11962  0.43435  1.0000
  H   H1095     1.0  0.31709  0.00196  0.23656  1.0000
  H   H1096     1.0  0.25871  0.23468  0.37527  1.0000
  C   C644      1.0  0.35997  0.46667  0.19352  1.0000
  H   H1097     1.0  0.19532  0.34204  0.00052  1.0000
  H   H1098     1.0  0.24453  0.18222  0.38881  1.0000
  H   H1099     1.0  0.19331  0.40005  0.14457  1.0000
  H   H1100     1.0  0.36840  0.46756  0.23858  1.0000
  H   H1101     1.0  0.20054  0.38914  0.19044  1.0000
  H   H1102     1.0  0.36415  0.19666  0.33800  1.0000
  H   H1103     1.0  0.22861  0.20565  0.38870  1.0000
  N   N37       1.0  0.34503  0.06506  0.30583  1.0000
  C   C645      1.0  0.34599  0.07511  0.28478  1.0000
  C   C646      1.0  0.35659  0.04455  0.30685  1.0000
  C   C647      1.0  0.32409  0.06380  0.31463  1.0000
  C   C648      1.0  0.35196  0.07577  0.31718  1.0000
  C   C649      1.0  0.33213  0.09520  0.28120  1.0000
  C   C650      1.0  0.31993  0.05223  0.33588  1.0000
  C   C651      1.0  0.33884  0.10748  0.26129  1.0000
  C   C652      1.0  0.29819  0.05499  0.34438  1.0000
  H   H1104     1.0  0.34246  0.06589  0.27665  1.0000
  H   H1105     1.0  0.35552  0.03648  0.32215  1.0000
  H   H1106     1.0  0.35050  0.03659  0.29937  1.0000
  H   H1107     1.0  0.31839  0.05711  0.30563  1.0000
  H   H1108     1.0  0.31484  0.07854  0.31454  1.0000
  H   H1109     1.0  0.33971  0.08648  0.32356  1.0000
  H   H1110     1.0  0.31738  0.09312  0.28179  1.0000
  H   H1111     1.0  0.33087  0.10352  0.29240  1.0000
  H   H1112     1.0  0.32683  0.05693  0.34531  1.0000
  H   H1113     1.0  0.32539  0.03645  0.33645  1.0000
  H   H1114     1.0  0.32781  0.12103  0.25869  1.0000
  Fe  Fe68      1.0  0.38780  0.04746  0.23623  1.0000
  H   H1115     1.0  0.29076  0.05012  0.33550  1.0000
  H   H1116     1.0  0.29561  0.04616  0.35937  1.0000
  H   H1117     1.0  0.29172  0.07043  0.34500  1.0000
  H   H1118     1.0  0.19226  0.41790  0.20487  1.0000
  C   C653      1.0  0.36426  0.20410  0.34947  1.0000
  H   H1119     1.0  0.37371  0.16520  0.34893  1.0000
  H   H1120     1.0  0.19935  0.28943  0.18547  1.0000
  Fe  Fe69      1.0  0.19851  0.34957  0.31065  1.0000
  H   H1121     1.0  0.25572  0.35209  0.00795  1.0000
  H   H1122     1.0  0.34400  0.11586  0.38602  1.0000
  S   S139      1.0  0.36293  0.03429  0.25441  1.0000
  H   H1123     1.0  0.31692  0.19812  0.98992  1.0000
  H   H1124     1.0  0.38205  0.14458  0.40363  1.0000
  C   C654      1.0  0.35408  0.11189  0.39567  1.0000
  H   H1125     1.0  0.34231  0.19034  0.41046  1.0000
  H   H1126     1.0  0.22759  0.16517  0.45517  1.0000
  H   H1127     1.0  0.22859  0.47660  0.34364  1.0000
  C   C655      1.0  0.31902  0.04701  0.39864  1.0000
  C   C656      1.0  0.33439  0.06048  0.44793  1.0000
  H   H1128     1.0  0.24681  0.39659  0.25754  1.0000
  H   H1129     1.0  0.34389  0.46959  0.19786  1.0000
  H   H1130     1.0  0.21815  0.40970  0.19947  1.0000
  H   H1131     1.0  0.35496  0.28689  0.27921  1.0000
  H   H1132     1.0  0.35664  0.42702  0.16177  1.0000
  S   S140      1.0  0.27878  0.01357  0.32178  1.0000
  C   C657      1.0  0.22120  0.35421  0.04128  1.0000
  C   C658      1.0  0.30609  0.01632  0.41572  1.0000
  N   N38       1.0  0.36654  0.45407  0.17853  1.0000
  H   H1133     1.0  0.34075  0.09950  0.24961  1.0000
  S   S141      1.0  0.22996  0.34297  0.29597  1.0000
  H   H1134     1.0  0.23675  0.00775  0.27673  1.0000
  H   H1135     1.0  0.24355  0.33392  0.34410  1.0000
  H   H1136     1.0  0.33954  0.40636  0.19002  1.0000
  H   H1137     1.0  0.29000  0.46583  0.29404  1.0000
  C   C659      1.0  0.23276  0.36647  0.15921  1.0000
  C   C660      1.0  0.22274  0.35427  0.17804  1.0000
  C   C661      1.0  0.21441  0.27783  0.42623  1.0000
  C   C662      1.0  0.26106  0.40517  0.10806  1.0000
  N   N39       1.0  0.36143  0.17340  0.37683  1.0000
  H   H1138     1.0  0.27542  0.29609  0.04133  1.0000
  C   C663      1.0  0.23612  0.33477  0.18380  1.0000
  H   H1139     1.0  0.29957  0.18015  0.47898  1.0000
  C   C664      1.0  0.20948  0.28443  0.04534  1.0000
  S   S142      1.0  0.22198  0.23312  0.45722  1.0000
  H   H1140     1.0  0.22818  0.26699  0.42651  1.0000
  C   C665      1.0  0.24727  0.38399  0.29698  1.0000
  H   H1141     1.0  0.38237  0.31152  0.24996  1.0000
  H   H1142     1.0  0.23426  0.38244  0.12177  1.0000
  H   H1143     1.0  0.23720  0.35739  0.14809  1.0000
  H   H1144     1.0  0.24657  0.36792  0.16207  1.0000
  H   H1145     1.0  0.20665  0.43073  0.18387  1.0000
  H   H1146     1.0  0.21654  0.29454  0.35824  1.0000
  C   C666      1.0  0.33770  0.13757  0.20662  1.0000
  H   H1147     1.0  0.33786  0.13244  0.22233  1.0000
  H   H1148     1.0  0.26226  0.38379  0.13439  1.0000
  H   H1149     1.0  0.20506  0.35573  0.26795  1.0000
  H   H1150     1.0  0.22076  0.28816  0.19419  1.0000
  C   C667      1.0  0.23198  0.32557  0.34705  1.0000
  H   H1151     1.0  0.38033  0.31891  0.21532  1.0000
  C   C668      1.0  0.35282  0.07153  0.12586  1.0000
  H   H1152     1.0  0.21737  0.17976  0.41606  1.0000
  H   H1153     1.0  0.22889  0.32645  0.19759  1.0000
  H   H1154     1.0  0.23958  0.32616  0.17234  1.0000
  H   H1155     1.0  0.24980  0.33702  0.18615  1.0000
  C   C669      1.0  0.23138  0.39714  0.28659  1.0000
  C   C670      1.0  0.35371  0.19469  0.36979  1.0000
  C   C671      1.0  0.33336  0.16577  0.43104  1.0000
  H   H1156     1.0  0.35890  0.39201  0.17566  1.0000
  H   H1157     1.0  0.36479  0.10271  0.32899  1.0000
  H   H1158     1.0  0.27607  0.40676  0.10704  1.0000
  C   C672      1.0  0.38121  0.09982  0.14148  1.0000
  C   C673      1.0  0.35244  0.07487  0.10396  1.0000
  C   C674      1.0  0.32157  0.11180  0.10378  1.0000
  H   H1159     1.0  0.32292  0.06035  0.46135  1.0000
  H   H1160     1.0  0.34192  0.08266  0.13294  1.0000
  C   C675      1.0  0.36369  0.42053  0.17446  1.0000
  H   H1161     1.0  0.27695  0.22361  0.99295  1.0000
  C   C676      1.0  0.22995  0.19075  0.38670  1.0000
  H   H1162     1.0  0.31391  0.14224  0.10615  1.0000
  H   H1163     1.0  0.31325  0.12507  0.12912  1.0000
  H   H1164     1.0  0.36322  0.06266  0.09840  1.0000
  H   H1165     1.0  0.20358  0.47356  0.28184  1.0000
  C   C677      1.0  0.35666  0.14388  0.19559  1.0000
  H   H1166     1.0  0.22886  0.44503  0.22852  1.0000
  H   H1167     1.0  0.34628  0.12481  0.09047  1.0000
  H   H1168     1.0  0.25618  0.39273  0.29999  1.0000
  H   H1169     1.0  0.37705  0.31544  0.14919  1.0000
  H   H1170     1.0  0.31352  0.06952  0.42964  1.0000
  H   H1171     1.0  0.25254  0.00004  0.30632  1.0000
  C   C678      1.0  0.38589  0.28769  0.10040  1.0000
  H   H1172     1.0  0.21173  0.36791  0.23242  1.0000
  H   H1173     1.0  0.20748  0.35843  0.01713  1.0000
  Fe  Fe70      1.0  0.36729  0.01795  0.23091  1.0000
  H   H1174     1.0  0.20959  0.08082  0.38341  1.0000
  H   H1175     1.0  0.38390  0.03929  0.35105  1.0000
  H   H1176     1.0  0.19144  0.38991  0.39433  1.0000
  H   H1177     1.0  0.36203  0.39522  0.19831  1.0000
  C   C679      1.0  0.35239  0.04712  0.38121  1.0000
  H   H1178     1.0  0.36925  0.09980  0.03130  1.0000
  H   H1179     1.0  0.33942  0.22662  0.34234  1.0000
  H   H1180     1.0  0.38054  0.98352  0.20267  1.0000
  C   C680      1.0  0.34799  0.16621  0.39536  1.0000
  H   H1181     1.0  0.34755  0.04500  0.36870  1.0000
  H   H1182     1.0  0.36648  0.07011  0.36141  1.0000
  H   H1183     1.0  0.22939  0.26403  0.02899  1.0000
  H   H1184     1.0  0.38553  0.11710  0.25280  1.0000
  H   H1185     1.0  0.38678  0.10354  0.31088  1.0000
  H   H1186     1.0  0.21736  0.40179  0.24804  1.0000
  H   H1187     1.0  0.22224  0.38779  0.28506  1.0000
  H   H1188     1.0  0.26454  0.44183  0.20287  1.0000
  H   H1189     1.0  0.21370  0.05970  0.41978  1.0000
  H   H1190     1.0  0.35725  0.06549  0.32988  1.0000
  H   H1191     1.0  0.27510  0.25858  0.98526  1.0000
  H   H1192     1.0  0.23524  0.31103  0.03640  1.0000
  H   H1193     1.0  0.29577  0.02048  0.40572  1.0000
  C   C681      1.0  0.36236  0.16179  0.36206  1.0000
  C   C682      1.0  0.30448  0.47631  0.19086  1.0000
  H   H1194     1.0  0.20635  0.26355  0.36645  1.0000
  H   H1195     1.0  0.21741  0.46763  0.24786  1.0000
  H   H1196     1.0  0.35522  0.14989  0.18026  1.0000
  H   H1197     1.0  0.31843  0.16931  0.42824  1.0000
  H   H1198     1.0  0.38666  0.08655  0.24315  1.0000
  Fe  Fe71      1.0  0.20240  0.30785  0.08718  1.0000
  H   H1199     1.0  0.20309  0.01223  0.29493  1.0000
  H   H1200     1.0  0.35468  0.20318  0.38008  1.0000
  C   C683      1.0  0.21441  0.18109  0.40148  1.0000
  H   H1201     1.0  0.22968  0.44287  0.27330  1.0000
  C   C684      1.0  0.34305  0.16390  0.35565  1.0000
  C   C685      1.0  0.21487  0.09598  0.40356  1.0000
  H   H1202     1.0  0.31016  0.00026  0.41947  1.0000
  Fe  Fe72      1.0  0.38250  0.19140  0.08603  1.0000
  H   H1203     1.0  0.29942  0.01912  0.24920  1.0000
  C   C686      1.0  0.34588  0.15236  0.33999  1.0000
  H   H1204     1.0  0.20723  0.37199  0.06269  1.0000
  C   C687      1.0  0.38006  0.10233  0.42058  1.0000
  H   H1205     1.0  0.36269  0.23174  0.32911  1.0000
  H   H1206     1.0  0.33799  0.19744  0.36973  1.0000
  H   H1207     1.0  0.33283  0.16976  0.39315  1.0000
  C   C688      1.0  0.20692  0.45907  0.25798  1.0000
  C   C689      1.0  0.23300  0.99666  0.28991  1.0000
  C   C690      1.0  0.20336  0.36704  0.05121  1.0000
  H   H1208     1.0  0.26995  0.47955  0.31977  1.0000
  H   H1209     1.0  0.38445  0.08158  0.32862  1.0000
  H   H1210     1.0  0.33705  0.17923  0.34958  1.0000
  H   H1211     1.0  0.33215  0.15826  0.36811  1.0000
  S   S143      1.0  0.38359  0.06510  0.16723  1.0000
  H   H1212     1.0  0.22102  0.12040  0.36675  1.0000
  H   H1213     1.0  0.19799  0.37999  0.04055  1.0000
  S   S144      1.0  0.27486  0.06310  0.47348  1.0000
  C   C691      1.0  0.37770  0.31606  0.16367  1.0000
  H   H1214     1.0  0.28729  0.25675  0.00454  1.0000
  C   C692      1.0  0.27757  0.25020  0.99980  1.0000
  C   C693      1.0  0.37389  0.10624  0.38838  1.0000
  C   C694      1.0  0.38752  0.04373  0.36299  1.0000
  H   H1215     1.0  0.35242  0.13688  0.34502  1.0000
  H   H1216     1.0  0.34163  0.08568  0.37895  1.0000
  H   H1217     1.0  0.35537  0.15852  0.32645  1.0000
  H   H1218     1.0  0.21870  0.31442  0.01069  1.0000
  H   H1219     1.0  0.21080  0.39000  0.35139  1.0000
  H   H1220     1.0  0.23666  0.09680  0.36568  1.0000
  H   H1221     1.0  0.19261  0.38038  0.16481  1.0000
  C   C695      1.0  0.27495  0.46006  0.27441  1.0000
  H   H1222     1.0  0.37928  0.30594  0.27605  1.0000
  H   H1223     1.0  0.35455  0.11074  0.06280  1.0000
  H   H1224     1.0  0.27526  0.00746  0.27817  1.0000
  H   H1225     1.0  0.33818  0.09489  0.07234  1.0000
  C   C696      1.0  0.38829  0.44977  0.17202  1.0000
  H   H1226     1.0  0.38148  0.05016  0.28327  1.0000
  H   H1227     1.0  0.21646  0.10478  0.35356  1.0000
  C   C697      1.0  0.32951  0.07783  0.38323  1.0000
  C   C698      1.0  0.32637  0.05782  0.43154  1.0000
  C   C699      1.0  0.34205  0.05765  0.41249  1.0000
  H   H1228     1.0  0.38058  0.14221  0.22419  1.0000
  H   H1229     1.0  0.24872  0.44071  0.24011  1.0000
  H   H1230     1.0  0.22841  0.32117  0.37779  1.0000
  H   H1231     1.0  0.38202  0.18120  0.38886  1.0000
  H   H1232     1.0  0.28429  0.28112  0.02347  1.0000
  C   C700      1.0  0.34369  0.11081  0.10016  1.0000
  H   H1233     1.0  0.25119  0.32663  0.03439  1.0000
  H   H1234     1.0  0.23380  0.39736  0.16932  1.0000
  H   H1235     1.0  0.19289  0.19886  0.38474  1.0000
  C   C701      1.0  0.36941  0.24626  0.15409  1.0000
  H   H1236     1.0  0.20815  0.35682  0.14157  1.0000
  H   H1237     1.0  0.36567  0.26238  0.12578  1.0000
  H   H1238     1.0  0.29435  0.12930  0.11580  1.0000
  H   H1239     1.0  0.31700  0.11754  0.37222  1.0000
  H   H1240     1.0  0.20803  0.43408  0.28161  1.0000
  C   C702      1.0  0.36264  0.47372  0.22506  1.0000
  C   C703      1.0  0.29688  0.98887  0.26088  1.0000
  N   N40       1.0  0.30457  0.27041  0.13018  1.0000
  C   C704      1.0  0.32493  0.26348  0.11965  1.0000
  C   C705      1.0  0.30472  0.28204  0.14465  1.0000
  C   C706      1.0  0.29664  0.25259  0.14144  1.0000
  C   C707      1.0  0.29139  0.28185  0.11636  1.0000
  C   C708      1.0  0.29831  0.29911  0.10105  1.0000
  C   C709      1.0  0.32694  0.25141  0.10424  1.0000
  C   C710      1.0  0.27679  0.25628  0.15569  1.0000
  C   C711      1.0  0.31993  0.29507  0.13897  1.0000
  C   C712      1.0  0.31701  0.30721  0.15415  1.0000
  C   C713      1.0  0.28625  0.30598  0.08527  1.0000
  C   C714      1.0  0.34783  0.24749  0.09288  1.0000
  C   C715      1.0  0.27015  0.23725  0.16577  1.0000
  H   H1241     1.0  0.33390  0.25448  0.13036  1.0000
  H   H1242     1.0  0.33219  0.27578  0.11208  1.0000
  H   H1243     1.0  0.29015  0.29136  0.14846  1.0000
  H   H1244     1.0  0.30768  0.27213  0.15854  1.0000
  H   H1245     1.0  0.30716  0.24245  0.15007  1.0000
  H   H1246     1.0  0.29475  0.24436  0.13138  1.0000
  H   H1247     1.0  0.28828  0.27207  0.10858  1.0000
  H   H1248     1.0  0.27693  0.28799  0.12445  1.0000
  H   H1249     1.0  0.31361  0.29543  0.09360  1.0000
  H   H1250     1.0  0.29642  0.31147  0.10807  1.0000
  H   H1251     1.0  0.32292  0.23717  0.11127  1.0000
  H   H1252     1.0  0.31764  0.25910  0.09353  1.0000
  H   H1253     1.0  0.26538  0.26572  0.14796  1.0000
  H   H1254     1.0  0.27765  0.26327  0.16721  1.0000
  H   H1255     1.0  0.33472  0.28592  0.13828  1.0000
  H   H1256     1.0  0.31924  0.30508  0.12477  1.0000
  H   H1257     1.0  0.32859  0.31576  0.15016  1.0000
  H   H1258     1.0  0.30282  0.31749  0.15484  1.0000
  H   H1259     1.0  0.31764  0.29781  0.16873  1.0000
  H   H1260     1.0  0.28867  0.29457  0.07681  1.0000
  H   H1261     1.0  0.27061  0.30954  0.09186  1.0000
  H   H1262     1.0  0.29044  0.31919  0.07515  1.0000
  H   H1263     1.0  0.34877  0.23925  0.08167  1.0000
  H   H1264     1.0  0.35262  0.26129  0.08535  1.0000
  H   H1265     1.0  0.35778  0.23878  0.10273  1.0000
  H   H1266     1.0  0.28075  0.22742  0.17437  1.0000
  H   H1267     1.0  0.25589  0.24026  0.17572  1.0000
  H   H1268     1.0  0.26842  0.22986  0.15491  1.0000
  N   N41       1.0  0.33940  0.28156  0.24916  1.0000
  C   C716      1.0  0.32171  0.29213  0.26113  1.0000
  C   C717      1.0  0.35674  0.29012  0.24748  1.0000
  C   C718      1.0  0.33561  0.28485  0.22894  1.0000
  C   C719      1.0  0.34347  0.25998  0.25710  1.0000
  C   C720      1.0  0.34654  0.25321  0.27826  1.0000
  C   C721      1.0  0.30238  0.28578  0.26337  1.0000
  C   C722      1.0  0.35295  0.27705  0.21352  1.0000
  H   H1269     1.0  0.34855  0.30914  0.09922  1.0000
  S   S145      1.0  0.30638  0.47922  0.22739  1.0000
  C   C723      1.0  0.34852  0.23123  0.28492  1.0000
  C   C724      1.0  0.28591  0.29681  0.27668  1.0000
  C   C725      1.0  0.34774  0.28233  0.19350  1.0000
  H   H1270     1.0  0.31952  0.30800  0.25467  1.0000
  H   H1271     1.0  0.32374  0.29078  0.27604  1.0000
  H   H1272     1.0  0.37043  0.27984  0.24307  1.0000
  H   H1273     1.0  0.35674  0.30327  0.23563  1.0000
  H   H1274     1.0  0.33076  0.30069  0.22327  1.0000
  H   H1275     1.0  0.32371  0.27783  0.22911  1.0000
  H   H1276     1.0  0.33185  0.25339  0.25570  1.0000
  H   H1277     1.0  0.35692  0.25287  0.24824  1.0000
  H   H1278     1.0  0.33433  0.26011  0.28851  1.0000
  H   H1279     1.0  0.36027  0.25645  0.27919  1.0000
  H   H1280     1.0  0.29801  0.28895  0.24916  1.0000
  H   H1281     1.0  0.30360  0.27007  0.26975  1.0000
  H   H1282     1.0  0.35720  0.26103  0.21728  1.0000
  H   H1283     1.0  0.36578  0.28313  0.21217  1.0000
  H   H1284     1.0  0.33202  0.01755  0.39387  1.0000
  C   C726      1.0  0.34735  0.17437  0.41327  1.0000
  H   H1285     1.0  0.37102  0.11558  0.19056  1.0000
  C   C727      1.0  0.22526  0.32656  0.00104  1.0000
  C   C728      1.0  0.21622  0.27503  0.02950  1.0000
  H   H1286     1.0  0.33498  0.22687  0.28498  1.0000
  H   H1287     1.0  0.36082  0.22363  0.27517  1.0000
  H   H1288     1.0  0.35150  0.22659  0.29984  1.0000
  H   H1289     1.0  0.28898  0.29374  0.29150  1.0000
  H   H1290     1.0  0.28390  0.31267  0.27069  1.0000
  H   H1291     1.0  0.27215  0.29231  0.27782  1.0000
  H   H1292     1.0  0.34169  0.29809  0.18957  1.0000
  H   H1293     1.0  0.36103  0.27874  0.18246  1.0000
  C   C729      1.0  0.35405  0.09719  0.16858  1.0000
  C   C730      1.0  0.34454  0.11579  0.16066  1.0000
  H   H1294     1.0  0.37274  0.07453  0.03107  1.0000
  C   C731      1.0  0.36248  0.32772  0.17436  1.0000
  C   C732      1.0  0.19372  0.29853  0.21305  1.0000
  C   C733      1.0  0.37768  0.25287  0.13253  1.0000
  C   C734      1.0  0.23346  0.21122  0.44997  1.0000
  C   C735      1.0  0.22148  0.10510  0.36665  1.0000
  H   H1295     1.0  0.37958  0.18917  0.16214  1.0000
  H   H1296     1.0  0.32447  0.03141  0.26203  1.0000
  C   C736      1.0  0.19199  0.41565  0.26626  1.0000
  C   C737      1.0  0.34843  0.05176  0.13689  1.0000
  H   H1297     1.0  0.35816  0.15560  0.20190  1.0000
  H   H1298     1.0  0.34704  0.08891  0.18194  1.0000
  H   H1299     1.0  0.26653  0.42056  0.19367  1.0000
  H   H1300     1.0  0.31681  0.11473  0.08979  1.0000
  H   H1301     1.0  0.21743  0.28062  0.05693  1.0000
  H   H1302     1.0  0.28553  0.43208  0.26611  1.0000
  C   C738      1.0  0.35816  0.31692  0.10254  1.0000
  S   S146      1.0  0.26545  0.15429  0.43199  1.0000
  H   H1303     1.0  0.33017  0.12180  0.16795  1.0000
  C   C739      1.0  0.30167  0.00553  0.24396  1.0000
  H   H1304     1.0  0.25714  0.45421  0.31412  1.0000
  H   H1305     1.0  0.36179  0.17080  0.41715  1.0000
  C   C740      1.0  0.35461  0.22535  0.34351  1.0000
  S   S147      1.0  0.19088  0.46757  0.33528  1.0000
  C   C741      1.0  0.25330  0.17591  0.43952  1.0000
  H   H1306     1.0  0.26730  0.17413  0.47945  1.0000
  H   H1307     1.0  0.26347  0.03269  0.46282  1.0000
  H   H1308     1.0  0.36090  0.07690  0.27737  1.0000
  C   C742      1.0  0.26231  0.30649  0.01566  1.0000
  H   H1309     1.0  0.37362  0.11951  0.21260  1.0000
  C   C743      1.0  0.25223  0.39730  0.12918  1.0000
  N   N42       1.0  0.33554  0.05746  0.39436  1.0000
  H   H1310     1.0  0.33167  0.15311  0.33659  1.0000
  Fe  Fe73      1.0  0.27968  0.13281  0.45506  1.0000
  C   C744      1.0  0.22439  0.19533  0.45573  1.0000
  H   H1311     1.0  0.23454  0.09245  0.46208  1.0000
  H   H1312     1.0  0.21973  0.41548  0.15424  1.0000
  C   C745      1.0  0.37859  0.04216  0.29845  1.0000
  C   C746      1.0  0.23840  0.43341  0.23712  1.0000
  H   H1313     1.0  0.21933  0.36169  0.19029  1.0000
  H   H1314     1.0  0.29244  0.00803  0.23318  1.0000
  C   C747      1.0  0.23918  0.46375  0.33926  1.0000
  C   C748      1.0  0.21196  0.08791  0.43875  1.0000
  H   H1315     1.0  0.35935  0.03992  0.13090  1.0000
  Fe  Fe74      1.0  0.28450  0.09030  0.47360  1.0000
  H   H1316     1.0  0.21654  0.11103  0.40225  1.0000
  S   S148      1.0  0.19870  0.33348  0.10047  1.0000
  C   C749      1.0  0.35831  0.29717  0.26534  1.0000
  H   H1317     1.0  0.36602  0.29546  0.12708  1.0000
  C   C750      1.0  0.24017  0.40802  0.26625  1.0000
  H   H1318     1.0  0.38405  0.15054  0.16212  1.0000
  H   H1319     1.0  0.25214  0.21845  0.39798  1.0000
  C   C751      1.0  0.36804  0.08738  0.30582  1.0000
  H   H1320     1.0  0.37899  0.19120  0.12774  1.0000
  C   C752      1.0  0.22031  0.40062  0.16350  1.0000
  H   H1321     1.0  0.30020  0.08416  0.40106  1.0000
  H   H1322     1.0  0.34440  0.43786  0.19457  1.0000
  H   H1323     1.0  0.28590  0.19181  0.99797  1.0000
  H   H1324     1.0  0.25678  0.37358  0.28806  1.0000
  H   H1325     1.0  0.33372  0.05073  0.13610  1.0000
  C   C753      1.0  0.19280  0.39685  0.37870  1.0000
  C   C754      1.0  0.19303  0.27092  0.37521  1.0000
  H   H1326     1.0  0.30424  0.44510  0.26374  1.0000
  S   S149      1.0  0.38562  0.15929  0.08996  1.0000
  H   H1327     1.0  0.34902  0.04980  0.15243  1.0000
  H   H1328     1.0  0.33305  0.17178  0.44371  1.0000
  H   H1329     1.0  0.20244  0.02980  0.43847  1.0000
  N   N43       1.0  0.35670  0.09400  0.09168  1.0000
  H   H1330     1.0  0.32534  0.15003  0.20484  1.0000
  H   H1331     1.0  0.23258  0.36290  0.03461  1.0000
  H   H1332     1.0  0.34688  0.04856  0.45101  1.0000
  H   H1333     1.0  0.24393  0.43783  0.19603  1.0000
  C   C755      1.0  0.28681  0.22910  0.99862  1.0000
  N   N44       1.0  0.22648  0.42427  0.25591  1.0000
  H   H1334     1.0  0.22862  0.19138  0.37165  1.0000
  C   C756      1.0  0.25041  0.41946  0.22340  1.0000
  C   C757      1.0  0.25671  0.43066  0.20277  1.0000
  H   H1335     1.0  0.34790  0.31117  0.26644  1.0000
  C   C758      1.0  0.35553  0.40247  0.18537  1.0000
  H   H1336     1.0  0.33544  0.12574  0.20093  1.0000
  H   H1337     1.0  0.29887  0.02161  0.42933  1.0000
  C   C759      1.0  0.38085  0.14214  0.00543  1.0000
  S   S150      1.0  0.19402  0.07676  0.34589  1.0000
  H   H1338     1.0  0.35480  0.23373  0.35421  1.0000
  H   H1339     1.0  0.29863  0.10630  0.36956  1.0000
  C   C760      1.0  0.18994  0.43540  0.32344  1.0000
  C   C761      1.0  0.23189  0.39323  0.13099  1.0000
  H   H1340     1.0  0.22638  0.34222  0.05289  1.0000
  H   H1341     1.0  0.37951  0.20371  0.34966  1.0000
  H   H1342     1.0  0.33368  0.02100  0.41696  1.0000
  H   H1343     1.0  0.23161  0.45142  0.34331  1.0000
  H   H1344     1.0  0.20469  0.43044  0.32562  1.0000
  H   H1345     1.0  0.35876  0.23713  0.15586  1.0000
  H   H1346     1.0  0.38570  0.04731  0.30739  1.0000
  H   H1347     1.0  0.19791  0.41055  0.37604  1.0000
  H   H1348     1.0  0.33812  0.14977  0.43484  1.0000
  H   H1349     1.0  0.36732  0.07188  0.12777  1.0000
  H   H1350     1.0  0.19331  0.20666  0.40559  1.0000
  C   C762      1.0  0.36651  0.08074  0.05995  1.0000
  H   H1351     1.0  0.21620  0.16646  0.39864  1.0000
  H   H1352     1.0  0.36202  0.25899  0.16075  1.0000
  H   H1353     1.0  0.36363  0.48116  0.18740  1.0000
  H   H1354     1.0  0.20272  0.08408  0.45326  1.0000
  C   C763      1.0  0.36405  0.08620  0.03884  1.0000
  H   H1355     1.0  0.38729  0.08046  0.08836  1.0000
  C   C764      1.0  0.37642  0.09416  0.31952  1.0000
  C   C765      1.0  0.20605  0.29682  0.19287  1.0000
  H   H1356     1.0  0.25731  0.19965  0.47628  1.0000
  C   C766      1.0  0.28826  0.19200  0.47317  1.0000
  H   H1357     1.0  0.36713  0.14607  0.36786  1.0000
  H   H1358     1.0  0.37905  0.09537  0.10553  1.0000
  H   H1359     1.0  0.19732  0.26285  0.40496  1.0000
  C   C767      1.0  0.38164  0.17093  0.38006  1.0000
  S   S151      1.0  0.38135  0.10327  0.36422  1.0000
  C   C768      1.0  0.35208  0.20235  0.99244  1.0000
  H   H1360     1.0  0.20689  0.42555  0.23733  1.0000
  H   H1361     1.0  0.21847  0.01893  0.30685  1.0000
  C   C769      1.0  0.20843  0.09588  0.38485  1.0000
  H   H1362     1.0  0.38407  0.45423  0.20926  1.0000
  H   H1363     1.0  0.19244  0.05821  0.45455  1.0000
  C   C770      1.0  0.37359  0.30266  0.11286  1.0000
  C   C771      1.0  0.20125  0.38521  0.15017  1.0000
  C   C772      1.0  0.38579  0.11116  0.07619  1.0000
  C   C773      1.0  0.19458  0.47126  0.27271  1.0000
  C   C774      1.0  0.20272  0.40309  0.18066  1.0000
  H   H1364     1.0  0.29310  0.48029  0.27040  1.0000
  H   H1365     1.0  0.20210  0.27036  0.42992  1.0000
  H   H1366     1.0  0.38637  0.01213  0.31364  1.0000
  H   H1367     1.0  0.38655  0.11007  0.06107  1.0000
  H   H1368     1.0  0.38206  0.07934  0.05972  1.0000
  H   H1369     1.0  0.20606  0.37739  0.12165  1.0000
  C   C775      1.0  0.19919  0.06944  0.42277  1.0000
  C   C776      1.0  0.21520  0.00657  0.30286  1.0000
  H   H1370     1.0  0.19887  0.14296  0.46765  1.0000
  H   H1371     1.0  0.19449  0.40719  0.28068  1.0000
  H   H1372     1.0  0.37941  0.41561  0.16904  1.0000
  H   H1373     1.0  0.38428  0.09319  0.47486  1.0000
  H   H1374     1.0  0.38197  0.01488  0.28954  1.0000
  C   C777      1.0  0.37863  0.30056  0.26332  1.0000
  H   H1375     1.0  0.34914  0.32703  0.11204  1.0000
  H   H1376     1.0  0.34667  0.47830  0.22912  1.0000
  Fe  Fe75      1.0  0.19831  0.31211  0.12884  1.0000
  H   H1377     1.0  0.19241  0.28366  0.22111  1.0000
  H   H1378     1.0  0.28959  0.20600  0.47557  1.0000
  H   H1379     1.0  0.19734  0.45677  0.24949  1.0000
  H   H1380     1.0  0.38798  0.17484  0.21778  1.0000
  C   C778      1.0  0.19390  0.19350  0.40029  1.0000
  H   H1381     1.0  0.37591  0.28033  0.09702  1.0000
  H   H1382     1.0  0.38280  0.31126  0.11555  1.0000
  C   C779      1.0  0.25005  0.98816  0.30077  1.0000
  H   H1383     1.0  0.19180  0.07000  0.41098  1.0000
  C   C780      1.0  0.20515  0.41617  0.19292  1.0000
  S   S152      1.0  0.38852  0.15128  0.03648  1.0000
  H   H1384     1.0  0.19075  0.31007  0.28033  1.0000
  H   H1385     1.0  0.37529  0.13437  0.98092  1.0000
  H   H1386     1.0  0.38953  0.28680  0.26264  1.0000
  H   H1387     1.0  0.19163  0.35877  0.05813  1.0000
  H   H1388     1.0  0.18998  0.15486  0.40674  1.0000
  H   H1389     1.0  0.19171  0.16878  0.46585  1.0000
  Fe  Fe76      1.0  0.24145  0.01454  0.72407  1.0000
  S   S153      1.0  0.22646  0.03836  0.74031  1.0000
  S   S154      1.0  0.27079  0.01518  0.70458  1.0000
  H   H1390     1.0  0.25901  0.29089  0.96705  1.0000
  C   C781      1.0  0.36211  0.19851  0.81618  1.0000
  C   C782      1.0  0.24545  0.41041  0.67737  1.0000
  C   C783      1.0  0.20180  0.26272  0.73526  1.0000
  Fe  Fe77      1.0  0.22003  0.01432  0.76549  1.0000
  S   S155      1.0  0.22404  0.01187  0.79570  1.0000
  S   S156      1.0  0.21539  0.01349  0.71374  1.0000
  C   C784      1.0  0.31834  0.99540  0.72399  1.0000
  Fe  Fe78      1.0  0.30504  0.11092  0.65726  1.0000
  S   S157      1.0  0.33181  0.09134  0.64484  1.0000
  S   S158      1.0  0.28164  0.10187  0.68247  1.0000
  Fe  Fe79      1.0  0.31708  0.14694  0.63028  1.0000
  S   S159      1.0  0.34509  0.13023  0.61591  1.0000
  S   S160      1.0  0.30867  0.17911  0.61974  1.0000
  Fe  Fe80      1.0  0.32672  0.10973  0.61565  1.0000
  S   S161      1.0  0.33003  0.09639  0.58953  1.0000
  N   N45       1.0  0.36418  0.10960  0.50958  1.0000
  S   S162      1.0  0.29856  0.12758  0.62824  1.0000
  S   S163      1.0  0.32064  0.13222  0.66061  1.0000
  Fe  Fe81      1.0  0.21161  0.23565  0.65574  1.0000
  S   S164      1.0  0.21853  0.25572  0.62703  1.0000
  S   S165      1.0  0.23287  0.21578  0.67340  1.0000
  C   C785      1.0  0.28070  0.28980  0.94037  1.0000
  H   H1391     1.0  0.20439  0.18409  0.52079  1.0000
  H   H1392     1.0  0.21905  0.37293  0.93826  1.0000
  H   H1393     1.0  0.34393  0.48126  0.85295  1.0000
  H   H1394     1.0  0.19853  0.24958  0.86610  1.0000
  H   H1395     1.0  0.19488  0.27008  0.89111  1.0000
  H   H1396     1.0  0.24050  0.20963  0.54387  1.0000
  Fe  Fe82      1.0  0.28825  0.38089  0.83139  1.0000
  S   S166      1.0  0.28730  0.40029  0.85113  1.0000
  S   S167      1.0  0.26436  0.38935  0.81456  1.0000
  Fe  Fe83      1.0  0.32626  0.35474  0.84047  1.0000
  S   S168      1.0  0.32903  0.37295  0.85987  1.0000
  S   S169      1.0  0.34417  0.32457  0.83963  1.0000
  Fe  Fe84      1.0  0.29746  0.37299  0.87167  1.0000
  S   S170      1.0  0.28646  0.36713  0.90398  1.0000
  Fe  Fe85      1.0  0.31868  0.39858  0.83741  1.0000
  S   S171      1.0  0.32915  0.42671  0.82534  1.0000
  S   S172      1.0  0.29498  0.35373  0.85342  1.0000
  S   S173      1.0  0.31925  0.38029  0.81652  1.0000
  S   S174      1.0  0.27049  0.33667  0.75564  1.0000
  C   C786      1.0  0.34394  0.08723  0.70756  1.0000
  C   C787      1.0  0.31795  0.12315  0.71487  1.0000
  C   C788      1.0  0.31232  0.47942  0.83968  1.0000
  Fe  Fe86      1.0  0.36203  0.15268  0.92019  1.0000
  H   H1397     1.0  0.35702  0.47265  0.79134  1.0000
  Fe  Fe87      1.0  0.32181  0.14648  0.92396  1.0000
  S   S175      1.0  0.30256  0.13977  0.90732  1.0000
  S   S176      1.0  0.33622  0.17172  0.90876  1.0000
  Fe  Fe88      1.0  0.30611  0.05782  0.85188  1.0000
  S   S177      1.0  0.32228  0.06371  0.87211  1.0000
  Fe  Fe89      1.0  0.27441  0.06497  0.82890  1.0000
  S   S178      1.0  0.24648  0.07980  0.81906  1.0000
  S   S179      1.0  0.27812  0.04720  0.85845  1.0000
  S   S180      1.0  0.30067  0.07784  0.82369  1.0000
  C   C789      1.0  0.35893  0.47956  0.87552  1.0000
  S   S181      1.0  0.28741  0.99398  0.85311  1.0000
  H   H1398     1.0  0.28867  0.27544  0.94688  1.0000
  S   S182      1.0  0.19221  0.22258  0.64589  1.0000
  C   C790      1.0  0.31764  0.27539  0.91235  1.0000
  S   S183      1.0  0.28976  0.04106  0.81307  1.0000
  H   H1399     1.0  0.33237  0.98673  0.69655  1.0000
  H   H1400     1.0  0.25935  0.06709  0.75412  1.0000
  H   H1401     1.0  0.33724  0.06265  0.51476  1.0000
  H   H1402     1.0  0.33736  0.23761  0.91300  1.0000
  S   S184      1.0  0.27854  0.13067  0.52475  1.0000
  H   H1403     1.0  0.21480  0.18370  0.94958  1.0000
  C   C791      1.0  0.36953  0.14995  0.68520  1.0000
  C   C792      1.0  0.21288  0.32180  0.67679  1.0000
  C   C793      1.0  0.19622  0.09725  0.73939  1.0000
  C   C794      1.0  0.22160  0.45181  0.73372  1.0000
  C   C795      1.0  0.21460  0.34793  0.64853  1.0000
  H   H1404     1.0  0.26375  0.10011  0.64154  1.0000
  H   H1405     1.0  0.22913  0.42693  0.69915  1.0000
  S   S185      1.0  0.22675  0.35353  0.67853  1.0000
  C   C796      1.0  0.31713  0.30998  0.89532  1.0000
  H   H1406     1.0  0.21521  0.31552  0.69141  1.0000
  C   C797      1.0  0.31696  0.08527  0.88115  1.0000
  C   C798      1.0  0.32744  0.08644  0.89444  1.0000
  C   C799      1.0  0.32333  0.10311  0.90238  1.0000
  C   C800      1.0  0.30873  0.11883  0.89705  1.0000
  C   C801      1.0  0.29855  0.11782  0.88342  1.0000
  C   C802      1.0  0.30263  0.10115  0.87549  1.0000
  H   H1407     1.0  0.33855  0.07424  0.89891  1.0000
  H   H1408     1.0  0.33120  0.10361  0.91293  1.0000
  H   H1409     1.0  0.28738  0.12992  0.87897  1.0000
  H   H1410     1.0  0.29454  0.10048  0.86520  1.0000
  H   H1411     1.0  0.36395  0.10843  0.55124  1.0000
  H   H1412     1.0  0.28426  0.33550  0.65882  1.0000
  S   S186      1.0  0.31049  0.15782  0.95168  1.0000
  H   H1413     1.0  0.22090  0.30410  0.78954  1.0000
  H   H1414     1.0  0.20110  0.47275  0.64655  1.0000
  H   H1415     1.0  0.37303  0.25406  0.78381  1.0000
  H   H1416     1.0  0.26258  0.34188  0.64911  1.0000
  H   H1417     1.0  0.37036  0.18751  0.90778  1.0000
  H   H1418     1.0  0.25381  0.13595  0.92043  1.0000
  H   H1419     1.0  0.24732  0.42985  0.72836  1.0000
  H   H1420     1.0  0.30925  0.21412  0.90655  1.0000
  H   H1421     1.0  0.28284  0.23477  0.89005  1.0000
  C   C803      1.0  0.26745  0.37543  0.79712  1.0000
  C   C804      1.0  0.28176  0.35851  0.79659  1.0000
  C   C805      1.0  0.28300  0.34685  0.78346  1.0000
  C   C806      1.0  0.26976  0.35196  0.77108  1.0000
  C   C807      1.0  0.25573  0.36908  0.77138  1.0000
  C   C808      1.0  0.25479  0.38093  0.78416  1.0000
  H   H1422     1.0  0.29167  0.35425  0.80647  1.0000
  H   H1423     1.0  0.29393  0.33366  0.78319  1.0000
  H   H1424     1.0  0.24563  0.37327  0.76170  1.0000
  H   H1425     1.0  0.24402  0.39423  0.78413  1.0000
  C   C809      1.0  0.31820  0.44530  0.83844  1.0000
  C   C810      1.0  0.31019  0.44105  0.85832  1.0000
  C   C811      1.0  0.30388  0.45591  0.86897  1.0000
  C   C812      1.0  0.20548  0.45650  0.68332  1.0000
  C   C813      1.0  0.21197  0.38015  0.81470  1.0000
  C   C814      1.0  0.31874  0.46458  0.82907  1.0000
  H   H1426     1.0  0.30949  0.42624  0.86563  1.0000
  H   H1427     1.0  0.29826  0.45248  0.88445  1.0000
  H   H1428     1.0  0.22029  0.33136  0.96231  1.0000
  H   H1429     1.0  0.32455  0.46802  0.81364  1.0000
  C   C815      1.0  0.27519  0.03730  0.75819  1.0000
  H   H1430     1.0  0.21739  0.20990  0.52129  1.0000
  C   C816      1.0  0.37971  0.33533  0.82647  1.0000
  C   C817      1.0  0.36947  0.32081  0.83693  1.0000
  H   H1431     1.0  0.30204  0.00536  0.79455  1.0000
  C   C818      1.0  0.36743  0.48110  0.79206  1.0000
  H   H1432     1.0  0.20760  0.40790  0.70494  1.0000
  H   H1433     1.0  0.37195  0.34960  0.82076  1.0000
  H   H1434     1.0  0.37176  0.29119  0.85256  1.0000
  H   H1435     1.0  0.36221  0.17640  0.80137  1.0000
  C   C819      1.0  0.26368  0.36093  0.91026  1.0000
  C   C820      1.0  0.24906  0.36978  0.92373  1.0000
  C   C821      1.0  0.23056  0.36550  0.92841  1.0000
  C   C822      1.0  0.22690  0.35169  0.92033  1.0000
  C   C823      1.0  0.24174  0.34217  0.90747  1.0000
  C   C824      1.0  0.26002  0.34716  0.90207  1.0000
  H   H1436     1.0  0.25185  0.38048  0.93000  1.0000
  H   H1437     1.0  0.32975  0.01390  0.80092  1.0000
  H   H1438     1.0  0.27130  0.34035  0.89165  1.0000
  H   H1439     1.0  0.22877  0.47509  0.61833  1.0000
  H   H1440     1.0  0.20142  0.09571  0.80205  1.0000
  H   H1441     1.0  0.20803  0.24717  0.73508  1.0000
  H   H1442     1.0  0.32768  0.27563  0.92148  1.0000
  C   C825      1.0  0.28834  0.18985  0.63503  1.0000
  C   C826      1.0  0.27619  0.20667  0.62722  1.0000
  C   C827      1.0  0.25934  0.21490  0.63905  1.0000
  C   C828      1.0  0.25485  0.20671  0.65885  1.0000
  C   C829      1.0  0.26749  0.19040  0.66686  1.0000
  C   C830      1.0  0.28401  0.18173  0.65486  1.0000
  H   H1443     1.0  0.27951  0.21298  0.61187  1.0000
  H   H1444     1.0  0.24982  0.22742  0.63271  1.0000
  H   H1445     1.0  0.26420  0.18413  0.68218  1.0000
  H   H1446     1.0  0.29345  0.16883  0.66087  1.0000
  C   C831      1.0  0.31447  0.10561  0.57259  1.0000
  C   C832      1.0  0.30152  0.12352  0.57228  1.0000
  C   C833      1.0  0.29018  0.13078  0.55789  1.0000
  C   C834      1.0  0.29192  0.12040  0.54349  1.0000
  C   C835      1.0  0.30448  0.10231  0.54410  1.0000
  C   C836      1.0  0.31563  0.09494  0.55861  1.0000
  H   H1447     1.0  0.30045  0.13188  0.58296  1.0000
  H   H1448     1.0  0.28042  0.14473  0.55762  1.0000
  H   H1449     1.0  0.30551  0.09394  0.53346  1.0000
  H   H1450     1.0  0.32521  0.08087  0.55903  1.0000
  C   C837      1.0  0.23015  0.03111  0.80167  1.0000
  C   C838      1.0  0.23504  0.02824  0.81974  1.0000
  C   C839      1.0  0.23982  0.04329  0.82510  1.0000
  C   C840      1.0  0.23935  0.06145  0.81259  1.0000
  C   C841      1.0  0.23442  0.06440  0.79450  1.0000
  C   C842      1.0  0.23000  0.04917  0.78897  1.0000
  H   H1451     1.0  0.19597  0.03565  0.67603  1.0000
  H   H1452     1.0  0.24395  0.04079  0.83896  1.0000
  H   H1453     1.0  0.23455  0.07828  0.78460  1.0000
  H   H1454     1.0  0.22657  0.05136  0.77489  1.0000
  C   C843      1.0  0.22906  0.33513  0.84124  1.0000
  H   H1455     1.0  0.35043  0.46914  0.88583  1.0000
  C   C844      1.0  0.23174  0.43274  0.73321  1.0000
  H   H1456     1.0  0.21162  0.13130  0.69450  1.0000
  C   C845      1.0  0.27385  0.03930  0.69590  1.0000
  C   C846      1.0  0.29241  0.04340  0.68839  1.0000
  C   C847      1.0  0.29495  0.06269  0.68349  1.0000
  C   C848      1.0  0.27892  0.07784  0.68635  1.0000
  C   C849      1.0  0.26037  0.07372  0.69336  1.0000
  C   C850      1.0  0.25782  0.05457  0.69764  1.0000
  H   H1457     1.0  0.30486  0.03169  0.68664  1.0000
  H   H1458     1.0  0.30933  0.06576  0.67810  1.0000
  H   H1459     1.0  0.24792  0.08529  0.69560  1.0000
  H   H1460     1.0  0.24339  0.05166  0.70237  1.0000
  C   C851      1.0  0.37094  0.07318  0.77216  1.0000
  N   N46       1.0  0.29745  0.00279  0.75704  1.0000
  H   H1461     1.0  0.36559  0.14748  0.86940  1.0000
  H   H1462     1.0  0.23442  0.17385  0.61032  1.0000
  H   H1463     1.0  0.27261  0.10251  0.78129  1.0000
  H   H1464     1.0  0.28937  0.98996  0.73734  1.0000
  H   H1465     1.0  0.25285  0.19657  0.57388  1.0000
  C   C852      1.0  0.26912  0.29990  0.95702  1.0000
  H   H1466     1.0  0.19024  0.43392  0.67017  1.0000
  H   H1467     1.0  0.23387  0.29362  0.80914  1.0000
  H   H1468     1.0  0.24229  0.21756  0.93617  1.0000
  H   H1469     1.0  0.28609  0.33738  0.63321  1.0000
  C   C853      1.0  0.27183  0.47085  0.77280  1.0000
  H   H1470     1.0  0.19707  0.24989  0.81326  1.0000
  S   S187      1.0  0.31593  0.21045  0.94501  1.0000
  H   H1471     1.0  0.19772  0.26450  0.75058  1.0000
  H   H1472     1.0  0.35715  0.45571  0.82628  1.0000
  H   H1473     1.0  0.30551  0.30230  0.93460  1.0000
  H   H1474     1.0  0.35285  0.13893  0.74624  1.0000
  C   C854      1.0  0.22494  0.24416  0.50441  1.0000
  H   H1475     1.0  0.25265  0.23594  0.87564  1.0000
  H   H1476     1.0  0.36726  0.39435  0.86285  1.0000
  C   C855      1.0  0.27747  0.33285  0.64796  1.0000
  H   H1477     1.0  0.26172  0.17308  0.91718  1.0000
  S   S188      1.0  0.23439  0.47090  0.72466  1.0000
  C   C856      1.0  0.30263  0.99004  0.74230  1.0000
  C   C857      1.0  0.34435  0.24819  0.90115  1.0000
  H   H1478     1.0  0.19356  0.46994  0.74108  1.0000
  H   H1479     1.0  0.23241  0.19146  0.96650  1.0000
  H   H1480     1.0  0.32140  0.98475  0.77001  1.0000
  C   C858      1.0  0.19562  0.41624  0.69747  1.0000
  H   H1481     1.0  0.26313  0.14986  0.89699  1.0000
  H   H1482     1.0  0.25489  0.25695  0.94176  1.0000
  H   H1483     1.0  0.23049  0.43385  0.64522  1.0000
  H   H1484     1.0  0.24666  0.09942  0.62780  1.0000
  H   H1485     1.0  0.20282  0.29738  0.67375  1.0000
  H   H1486     1.0  0.21479  0.26447  0.84985  1.0000
  H   H1487     1.0  0.21156  0.09011  0.73991  1.0000
  H   H1488     1.0  0.31890  0.14618  0.85726  1.0000
  H   H1489     1.0  0.26111  0.37627  0.96793  1.0000
  C   C859      1.0  0.23376  0.42980  0.68313  1.0000
  C   C860      1.0  0.20440  0.21482  0.94165  1.0000
  N   N47       1.0  0.34686  0.14902  0.83867  1.0000
  H   H1490     1.0  0.21465  0.24550  0.49497  1.0000
  H   H1491     1.0  0.33728  0.27636  0.88347  1.0000
  H   H1492     1.0  0.21836  0.33776  0.83197  1.0000
  H   H1493     1.0  0.19748  0.45157  0.64076  1.0000
  H   H1494     1.0  0.31999  0.14762  0.72637  1.0000
  H   H1495     1.0  0.27491  0.28548  0.59982  1.0000
  H   H1496     1.0  0.26466  0.19480  0.53958  1.0000
  C   C861      1.0  0.29736  0.22458  0.93313  1.0000
  N   N48       1.0  0.26937  0.45545  0.79114  1.0000
  H   H1497     1.0  0.36504  0.05337  0.84373  1.0000
  C   C862      1.0  0.24971  0.45048  0.79450  1.0000
  H   H1498     1.0  0.20499  0.30569  0.83264  1.0000
  C   C863      1.0  0.28546  0.43766  0.79062  1.0000
  C   C864      1.0  0.29425  0.43186  0.77054  1.0000
  C   C865      1.0  0.38367  0.24622  0.82578  1.0000
  C   C866      1.0  0.26882  0.45028  0.82814  1.0000
  C   C867      1.0  0.24640  0.44034  0.77974  1.0000
  C   C868      1.0  0.22538  0.43787  0.78427  1.0000
  C   C869      1.0  0.30735  0.41173  0.77271  1.0000
  H   H1499     1.0  0.34099  0.15407  0.80980  1.0000
  C   C870      1.0  0.38152  0.08692  0.79380  1.0000
  H   H1500     1.0  0.27899  0.30199  0.96534  1.0000
  H   H1501     1.0  0.38004  0.21891  0.90084  1.0000
  H   H1502     1.0  0.24654  0.44050  0.80869  1.0000
  H   H1503     1.0  0.23814  0.46386  0.79521  1.0000
  H   H1504     1.0  0.26584  0.45143  0.85832  1.0000
  H   H1505     1.0  0.20503  0.16775  0.49456  1.0000
  H   H1506     1.0  0.29793  0.43955  0.79570  1.0000
  H   H1507     1.0  0.28045  0.42499  0.80120  1.0000
  H   H1508     1.0  0.30324  0.44218  0.76100  1.0000
  H   H1509     1.0  0.28314  0.43183  0.76270  1.0000
  H   H1510     1.0  0.21670  0.24472  0.51943  1.0000
  H   H1511     1.0  0.22611  0.18235  0.54448  1.0000
  H   H1512     1.0  0.25798  0.44104  0.83200  1.0000
  H   H1513     1.0  0.24947  0.44869  0.76462  1.0000
  H   H1514     1.0  0.25562  0.42556  0.78085  1.0000
  H   H1515     1.0  0.34970  0.02847  0.86191  1.0000
  N   N49       1.0  0.21660  0.43974  0.67374  1.0000
  C   C871      1.0  0.21794  0.46638  0.61937  1.0000
  H   H1516     1.0  0.29889  0.40063  0.78153  1.0000
  H   H1517     1.0  0.31369  0.40812  0.75817  1.0000
  H   H1518     1.0  0.31935  0.41133  0.77973  1.0000
  C   C872      1.0  0.24760  0.20175  0.93644  1.0000
  H   H1519     1.0  0.23981  0.39907  0.88469  1.0000
  H   H1520     1.0  0.20580  0.21773  0.55746  1.0000
  C   C873      1.0  0.21456  0.17001  0.51981  1.0000
  H   H1521     1.0  0.28216  0.23792  0.95743  1.0000
  C   C874      1.0  0.35378  0.07145  0.80555  1.0000
  C   C875      1.0  0.21607  0.47343  0.67982  1.0000
  H   H1522     1.0  0.35045  0.06701  0.48982  1.0000
  H   H1523     1.0  0.28519  0.02390  0.73393  1.0000
  H   H1524     1.0  0.27195  0.46532  0.75992  1.0000
  C   C876      1.0  0.33501  0.12593  0.82443  1.0000
  H   H1525     1.0  0.33191  0.12350  0.70432  1.0000
  H   H1526     1.0  0.22135  0.42995  0.79946  1.0000
  H   H1527     1.0  0.25928  0.13381  0.72144  1.0000
  C   C877      1.0  0.21708  0.38581  0.85453  1.0000
  Fe  Fe90      1.0  0.33831  0.14060  0.96052  1.0000
  H   H1528     1.0  0.25894  0.19146  0.88639  1.0000
  C   C878      1.0  0.23111  0.35407  0.84579  1.0000
  S   S189      1.0  0.26336  0.11663  0.48214  1.0000
  Fe  Fe91      1.0  0.20609  0.28037  0.96529  1.0000
  H   H1529     1.0  0.30293  0.46871  0.77220  1.0000
  H   H1530     1.0  0.24288  0.37335  0.86770  1.0000
  C   C879      1.0  0.22830  0.38265  0.87093  1.0000
  H   H1531     1.0  0.23939  0.34923  0.85768  1.0000
  C   C880      1.0  0.31033  0.14397  0.71887  1.0000
  C   C881      1.0  0.28227  0.23707  0.94280  1.0000
  H   H1532     1.0  0.34594  0.12073  0.85759  1.0000
  C   C882      1.0  0.24145  0.18189  0.53675  1.0000
  H   H1533     1.0  0.36203  0.13609  0.81374  1.0000
  H   H1534     1.0  0.24519  0.15837  0.51142  1.0000
  H   H1535     1.0  0.30831  0.02659  0.77682  1.0000
  C   C883      1.0  0.36044  0.40853  0.86710  1.0000
  C   C884      1.0  0.26903  0.46424  0.80796  1.0000
  H   H1536     1.0  0.22224  0.12445  0.64312  1.0000
  C   C885      1.0  0.35579  0.06763  0.78720  1.0000
  H   H1537     1.0  0.30819  0.12043  0.70671  1.0000
  H   H1538     1.0  0.23519  0.17694  0.49337  1.0000
  S   S190      1.0  0.35481  0.16439  0.94742  1.0000
  C   C886      1.0  0.26687  0.24795  0.93388  1.0000
  S   S191      1.0  0.23707  0.99045  0.75007  1.0000
  H   H1539     1.0  0.36068  0.05841  0.71717  1.0000
  S   S192      1.0  0.19184  0.01372  0.75886  1.0000
  H   H1540     1.0  0.27474  0.47145  0.84113  1.0000
  H   H1541     1.0  0.31760  0.16403  0.83567  1.0000
  H   H1542     1.0  0.34683  0.11980  0.79546  1.0000
  C   C887      1.0  0.29990  0.10636  0.74461  1.0000
  H   H1543     1.0  0.33418  0.09797  0.75718  1.0000
  H   H1544     1.0  0.20352  0.24264  0.83669  1.0000
  C   C888      1.0  0.26701  0.24710  0.91487  1.0000
  H   H1545     1.0  0.25206  0.18736  0.61010  1.0000
  H   H1546     1.0  0.37081  0.42457  0.83890  1.0000
  C   C889      1.0  0.30949  0.15904  0.69997  1.0000
  H   H1547     1.0  0.38236  0.47406  0.78589  1.0000
  H   H1548     1.0  0.19671  0.21035  0.70437  1.0000
  H   H1549     1.0  0.37604  0.12294  0.74127  1.0000
  H   H1550     1.0  0.32527  0.11058  0.80799  1.0000
  C   C890      1.0  0.20065  0.37411  0.83571  1.0000
  H   H1551     1.0  0.22908  0.46848  0.68644  1.0000
  H   H1552     1.0  0.29933  0.15653  0.69230  1.0000
  H   H1553     1.0  0.31467  0.01077  0.71657  1.0000
  H   H1554     1.0  0.20982  0.35056  0.88084  1.0000
  H   H1555     1.0  0.38772  0.11165  0.52152  1.0000
  Fe  Fe92      1.0  0.32754  0.18103  0.93739  1.0000
  C   C891      1.0  0.29746  0.22357  0.91417  1.0000
  N   N50       1.0  0.32003  0.10702  0.73253  1.0000
  H   H1556     1.0  0.25257  0.29720  0.57663  1.0000
  C   C892      1.0  0.31279  0.01073  0.78175  1.0000
  H   H1557     1.0  0.21481  0.16128  0.53476  1.0000
  H   H1558     1.0  0.37375  0.47604  0.87846  1.0000
  H   H1559     1.0  0.27197  0.14073  0.69686  1.0000
  H   H1560     1.0  0.20528  0.34440  0.62414  1.0000
  H   H1561     1.0  0.30009  0.19210  0.87524  1.0000
  C   C893      1.0  0.27128  0.05773  0.74580  1.0000
  N   N51       1.0  0.21241  0.36793  0.85147  1.0000
  C   C894      1.0  0.33191  0.11059  0.74499  1.0000
  H   H1562     1.0  0.24235  0.13945  0.90017  1.0000
  H   H1563     1.0  0.25503  0.17572  0.95881  1.0000
  S   S193      1.0  0.32316  0.03255  0.83811  1.0000
  H   H1564     1.0  0.21383  0.28140  0.87459  1.0000
  H   H1565     1.0  0.37312  0.98635  0.86481  1.0000
  H   H1566     1.0  0.33924  0.18500  0.81594  1.0000
  H   H1567     1.0  0.25106  0.41235  0.66148  1.0000
  C   C895      1.0  0.26386  0.18619  0.50513  1.0000
  C   C896      1.0  0.24977  0.14639  0.90728  1.0000
  C   C897      1.0  0.37476  0.11773  0.48955  1.0000
  Fe  Fe93      1.0  0.19706  0.24438  0.61800  1.0000
  H   H1568     1.0  0.19197  0.38992  0.69107  1.0000
  H   H1569     1.0  0.19199  0.15669  0.51754  1.0000
  C   C898      1.0  0.37012  0.11752  0.88262  1.0000
  H   H1570     1.0  0.34515  0.41222  0.86534  1.0000
  H   H1571     1.0  0.36390  0.06672  0.69117  1.0000
  H   H1572     1.0  0.29438  0.18890  0.85366  1.0000
  H   H1573     1.0  0.37529  0.15595  0.82743  1.0000
  H   H1574     1.0  0.27259  0.17203  0.51126  1.0000
  C   C899      1.0  0.23530  0.17287  0.50919  1.0000
  H   H1575     1.0  0.21043  0.41452  0.66776  1.0000
  H   H1576     1.0  0.33993  0.14390  0.49042  1.0000
  H   H1577     1.0  0.20949  0.27335  0.82102  1.0000
  H   H1578     1.0  0.35332  0.20500  0.82870  1.0000
  C   C900      1.0  0.20743  0.33795  0.63881  1.0000
  C   C901      1.0  0.22395  0.44651  0.65229  1.0000
  H   H1579     1.0  0.36411  0.44199  0.87521  1.0000
  C   C902      1.0  0.37963  0.30236  0.84420  1.0000
  H   H1580     1.0  0.19595  0.34581  0.86663  1.0000
  H   H1581     1.0  0.34663  0.29750  0.90053  1.0000
  H   H1582     1.0  0.35075  0.98971  0.89682  1.0000
  C   C903      1.0  0.20710  0.33167  0.97404  1.0000
  H   H1583     1.0  0.32407  0.15836  0.69033  1.0000
  H   H1584     1.0  0.24954  0.22454  0.51415  1.0000
  C   C904      1.0  0.36350  0.07362  0.51057  1.0000
  H   H1585     1.0  0.25904  0.48310  0.77329  1.0000
  C   C905      1.0  0.24915  0.19463  0.54588  1.0000
  H   H1586     1.0  0.20145  0.07984  0.77631  1.0000
  H   H1587     1.0  0.23295  0.22364  0.90740  1.0000
  S   S194      1.0  0.30604  0.09151  0.49058  1.0000
  C   C906      1.0  0.24009  0.22527  0.50418  1.0000
  H   H1588     1.0  0.24420  0.43956  0.67982  1.0000
  C   C907      1.0  0.36958  0.09530  0.54477  1.0000
  C   C908      1.0  0.20598  0.31152  0.66679  1.0000
  S   S195      1.0  0.33927  0.05600  0.78321  1.0000
  S   S196      1.0  0.38716  0.15793  0.71045  1.0000
  H   H1589     1.0  0.35623  0.14441  0.66436  1.0000
  H   H1590     1.0  0.33789  0.99143  0.79250  1.0000
  H   H1591     1.0  0.25581  0.17209  0.57101  1.0000
  C   C909      1.0  0.28972  0.29432  0.89726  1.0000
  C   C910      1.0  0.29463  0.29768  0.87474  1.0000
  C   C911      1.0  0.27972  0.29194  0.86706  1.0000
  H   H1592     1.0  0.30773  0.32479  0.89356  1.0000
  H   H1593     1.0  0.32310  0.30769  0.88027  1.0000
  H   H1594     1.0  0.28509  0.28014  0.90295  1.0000
  H   H1595     1.0  0.27631  0.30537  0.90070  1.0000
  H   H1596     1.0  0.28687  0.31731  0.92271  1.0000
  H   H1597     1.0  0.27022  0.28744  0.93301  1.0000
  H   H1598     1.0  0.29448  0.31328  0.86853  1.0000
  H   H1599     1.0  0.30906  0.28943  0.86906  1.0000
  H   H1600     1.0  0.28328  0.29509  0.85093  1.0000
  H   H1601     1.0  0.27997  0.27617  0.87220  1.0000
  H   H1602     1.0  0.26491  0.30018  0.87200  1.0000
  H   H1603     1.0  0.33253  0.34170  0.89553  1.0000
  C   C912      1.0  0.35952  0.99751  0.86526  1.0000
  C   C913      1.0  0.35012  0.12645  0.51728  1.0000
  H   H1604     1.0  0.34191  0.05880  0.70469  1.0000
  C   C914      1.0  0.33401  0.13763  0.50569  1.0000
  C   C915      1.0  0.32142  0.15460  0.51475  1.0000
  H   H1605     1.0  0.35813  0.13707  0.51853  1.0000
  H   H1606     1.0  0.34211  0.12140  0.53223  1.0000
  H   H1607     1.0  0.33986  0.09520  0.52056  1.0000
  H   H1608     1.0  0.23311  0.17484  0.89895  1.0000
  C   C916      1.0  0.35190  0.06171  0.50525  1.0000
  H   H1609     1.0  0.32451  0.12787  0.50577  1.0000
  C   C917      1.0  0.19849  0.38786  0.80020  1.0000
  H   H1610     1.0  0.36053  0.16939  0.84470  1.0000
  H   H1611     1.0  0.31643  0.14985  0.53063  1.0000
  H   H1612     1.0  0.32968  0.16618  0.51222  1.0000
  H   H1613     1.0  0.30845  0.16064  0.50816  1.0000
  N   N52       1.0  0.26449  0.28668  0.64028  1.0000
  C   C918      1.0  0.25219  0.28659  0.62648  1.0000
  C   C919      1.0  0.25437  0.28053  0.66116  1.0000
  C   C920      1.0  0.26684  0.30732  0.63737  1.0000
  C   C921      1.0  0.28438  0.27401  0.63621  1.0000
  C   C922      1.0  0.28511  0.25247  0.63668  1.0000
  C   C923      1.0  0.26010  0.29373  0.60454  1.0000
  C   C924      1.0  0.27685  0.31136  0.65199  1.0000
  C   C925      1.0  0.24086  0.26594  0.66541  1.0000
  C   C926      1.0  0.23347  0.25985  0.68725  1.0000
  C   C927      1.0  0.30592  0.24170  0.63068  1.0000
  H   H1614     1.0  0.23754  0.29579  0.63020  1.0000
  H   H1615     1.0  0.24965  0.27190  0.62812  1.0000
  H   H1616     1.0  0.26511  0.27457  0.67079  1.0000
  H   H1617     1.0  0.24483  0.29334  0.66672  1.0000
  H   H1618     1.0  0.25235  0.31736  0.63805  1.0000
  H   H1619     1.0  0.27555  0.31201  0.62269  1.0000
  H   H1620     1.0  0.29287  0.28021  0.62194  1.0000
  H   H1621     1.0  0.29283  0.27379  0.64703  1.0000
  H   H1622     1.0  0.27674  0.25095  0.62661  1.0000
  H   H1623     1.0  0.27950  0.24501  0.65164  1.0000
  H   H1624     1.0  0.29200  0.30305  0.65080  1.0000
  H   H1625     1.0  0.26902  0.30750  0.66722  1.0000
  H   H1626     1.0  0.22798  0.27279  0.65873  1.0000
  H   H1627     1.0  0.24814  0.25274  0.65958  1.0000
  H   H1628     1.0  0.24562  0.25138  0.69449  1.0000
  H   H1629     1.0  0.22636  0.27281  0.69365  1.0000
  H   H1630     1.0  0.22268  0.25064  0.68999  1.0000
  H   H1631     1.0  0.31227  0.24809  0.61550  1.0000
  H   H1632     1.0  0.31505  0.24223  0.64057  1.0000
  H   H1633     1.0  0.30604  0.22624  0.63147  1.0000
  N   N53       1.0  0.24279  0.18760  0.51503  1.0000
  H   H1634     1.0  0.26876  0.21906  0.86165  1.0000
  H   H1635     1.0  0.19321  0.36254  0.83578  1.0000
  C   C928      1.0  0.36325  0.01779  0.86432  1.0000
  H   H1636     1.0  0.33045  0.16878  0.87112  1.0000
  H   H1637     1.0  0.37087  0.04616  0.87862  1.0000
  H   H1638     1.0  0.22492  0.20691  0.89918  1.0000
  H   H1639     1.0  0.20362  0.39693  0.85740  1.0000
  H   H1640     1.0  0.27320  0.41237  0.68212  1.0000
  C   C929      1.0  0.20922  0.14301  0.68157  1.0000
  H   H1641     1.0  0.37267  0.07006  0.75799  1.0000
  H   H1642     1.0  0.27895  0.03822  0.77169  1.0000
  H   H1643     1.0  0.24173  0.09145  0.65387  1.0000
  C   C930      1.0  0.35312  0.06645  0.70510  1.0000
  C   C931      1.0  0.25764  0.20041  0.96786  1.0000
  C   C932      1.0  0.20856  0.45960  0.64060  1.0000
  C   C933      1.0  0.20758  0.26815  0.87905  1.0000
  H   H1644     1.0  0.27012  0.19719  0.50811  1.0000
  H   H1645     1.0  0.20736  0.19176  0.92707  1.0000
  H   H1646     1.0  0.22420  0.20834  0.49664  1.0000
  H   H1647     1.0  0.26041  0.31421  0.95128  1.0000
  H   H1648     1.0  0.24919  0.22631  0.48932  1.0000
  Fe  Fe94      1.0  0.19306  0.27672  0.63951  1.0000
  C   C934      1.0  0.26811  0.18789  0.48284  1.0000
  H   H1649     1.0  0.38090  0.24334  0.75255  1.0000
  H   H1650     1.0  0.23222  0.25672  0.49897  1.0000
  C   C935      1.0  0.32323  0.17399  0.85858  1.0000
  S   S197      1.0  0.19289  0.35481  0.72995  1.0000
  C   C936      1.0  0.26444  0.46164  0.84425  1.0000
  H   H1651     1.0  0.34259  0.11187  0.83195  1.0000
  H   H1652     1.0  0.37763  0.07851  0.57181  1.0000
  H   H1653     1.0  0.32036  0.12964  0.83345  1.0000
  H   H1654     1.0  0.24926  0.16657  0.54076  1.0000
  C   C937      1.0  0.36942  0.46210  0.82640  1.0000
  C   C938      1.0  0.31527  0.00040  0.76501  1.0000
  C   C939      1.0  0.34688  0.14187  0.82090  1.0000
  C   C940      1.0  0.23033  0.20745  0.50948  1.0000
  H   H1655     1.0  0.38055  0.22990  0.85554  1.0000
  C   C941      1.0  0.38298  0.14251  0.69744  1.0000
  H   H1656     1.0  0.38309  0.30822  0.79987  1.0000
  C   C942      1.0  0.37604  0.29035  0.78327  1.0000
  H   H1657     1.0  0.36437  0.01845  0.87904  1.0000
  C   C943      1.0  0.37612  0.26653  0.81380  1.0000
  C   C944      1.0  0.38135  0.05118  0.86541  1.0000
  N   N54       1.0  0.38033  0.02368  0.84913  1.0000
  C   C945      1.0  0.37071  0.30729  0.79416  1.0000
  C   C946      1.0  0.20163  0.42094  0.74449  1.0000
  H   H1658     1.0  0.35740  0.08798  0.54705  1.0000
  H   H1659     1.0  0.25456  0.15882  0.70894  1.0000
  C   C947      1.0  0.36424  0.32679  0.78113  1.0000
  C   C948      1.0  0.37578  0.24491  0.84757  1.0000
  H   H1660     1.0  0.36214  0.28808  0.78133  1.0000
  H   H1661     1.0  0.34375  0.13859  0.88166  1.0000
  C   C949      1.0  0.35803  0.13545  0.87184  1.0000
  H   H1662     1.0  0.25643  0.47659  0.80930  1.0000
  H   H1663     1.0  0.36059  0.26746  0.81392  1.0000
  H   H1664     1.0  0.37610  0.27732  0.82219  1.0000
  C   C950      1.0  0.19139  0.24560  0.82912  1.0000
  H   H1665     1.0  0.22273  0.16118  0.92182  1.0000
  S   S198      1.0  0.20337  0.34756  0.92535  1.0000
  H   H1666     1.0  0.37203  0.12052  0.89613  1.0000
  H   H1667     1.0  0.35846  0.30498  0.80663  1.0000
  H   H1668     1.0  0.38388  0.29541  0.76834  1.0000
  H   H1669     1.0  0.19451  0.34075  0.96781  1.0000
  H   H1670     1.0  0.24946  0.47044  0.84560  1.0000
  H   H1671     1.0  0.35150  0.24107  0.88864  1.0000
  C   C951      1.0  0.20654  0.15912  0.50928  1.0000
  Fe  Fe95      1.0  0.20569  0.32954  0.75113  1.0000
  H   H1672     1.0  0.35266  0.12402  0.72045  1.0000
  C   C952      1.0  0.36031  0.12350  0.74698  1.0000
  S   S199      1.0  0.20515  0.23229  0.59063  1.0000
  H   H1673     1.0  0.35986  0.33833  0.78975  1.0000
  H   H1674     1.0  0.37628  0.33038  0.76886  1.0000
  H   H1675     1.0  0.26138  0.03210  0.76217  1.0000
  H   H1676     1.0  0.23639  0.39927  0.68186  1.0000
  H   H1677     1.0  0.29349  0.11979  0.75042  1.0000
  C   C953      1.0  0.24844  0.32496  0.83072  1.0000
  H   H1678     1.0  0.22268  0.36758  0.80992  1.0000
  H   H1679     1.0  0.26020  0.32368  0.83839  1.0000
  H   H1680     1.0  0.24750  0.31021  0.83002  1.0000
  H   H1681     1.0  0.25215  0.33331  0.81565  1.0000
  H   H1682     1.0  0.22599  0.31950  0.80255  1.0000
  C   C954      1.0  0.20331  0.42608  0.67625  1.0000
  H   H1683     1.0  0.32345  0.13615  0.79787  1.0000
  C   C955      1.0  0.36005  0.16339  0.83234  1.0000
  S   S200      1.0  0.34816  0.12687  0.93417  1.0000
  C   C956      1.0  0.35926  0.47906  0.85422  1.0000
  H   H1684     1.0  0.24293  0.22106  0.86562  1.0000
  H   H1685     1.0  0.34281  0.01384  0.77635  1.0000
  H   H1686     1.0  0.36167  0.16481  0.68420  1.0000
  C   C957      1.0  0.19475  0.13709  0.67302  1.0000
  C   C958      1.0  0.24598  0.17424  0.92377  1.0000
  H   H1687     1.0  0.21541  0.45224  0.78201  1.0000
  C   C959      1.0  0.37918  0.04499  0.84742  1.0000
  C   C960      1.0  0.36586  0.48251  0.81303  1.0000
  C   C961      1.0  0.36639  0.13840  0.67397  1.0000
  C   C962      1.0  0.23654  0.20823  0.90588  1.0000
  H   H1688     1.0  0.35948  0.04626  0.50721  1.0000
  H   H1689     1.0  0.22026  0.37591  0.88507  1.0000
  Fe  Fe96      1.0  0.20503  0.37293  0.74301  1.0000
  H   H1690     1.0  0.22362  0.42933  0.77447  1.0000
  H   H1691     1.0  0.28443  0.06407  0.74154  1.0000
  H   H1692     1.0  0.25812  0.40051  0.70330  1.0000
  H   H1693     1.0  0.27046  0.38806  0.68377  1.0000
  H   H1694     1.0  0.37812  0.07169  0.50125  1.0000
  H   H1695     1.0  0.22433  0.32507  0.85503  1.0000
  C   C963      1.0  0.20191  0.26431  0.86180  1.0000
  C   C964      1.0  0.29501  0.30204  0.92607  1.0000
  C   C965      1.0  0.35506  0.18069  0.81553  1.0000
  C   C966      1.0  0.24738  0.19108  0.95793  1.0000
  H   H1696     1.0  0.23598  0.45424  0.64983  1.0000
  H   H1697     1.0  0.37885  0.00572  0.83018  1.0000
  H   H1698     1.0  0.30858  0.26488  0.92149  1.0000
  H   H1699     1.0  0.24593  0.34868  0.97010  1.0000
  C   C967      1.0  0.37681  0.11933  0.67475  1.0000
  C   C968      1.0  0.23648  0.16497  0.91258  1.0000
  H   H1700     1.0  0.36526  0.22916  0.93859  1.0000
  H   H1701     1.0  0.36272  0.10512  0.88669  1.0000
  N   N55       1.0  0.38728  0.27159  0.79318  1.0000
  C   C969      1.0  0.38470  0.18897  0.89962  1.0000
  H   H1702     1.0  0.33263  0.99285  0.72798  1.0000
  H   H1703     1.0  0.30684  0.08977  0.77296  1.0000
  H   H1704     1.0  0.22710  0.19509  0.62117  1.0000
  H   H1705     1.0  0.36088  0.20954  0.80257  1.0000
  C   C970      1.0  0.29124  0.02357  0.74663  1.0000
  C   C971      1.0  0.23142  0.40186  0.87310  1.0000
  C   C972      1.0  0.25583  0.20562  0.89076  1.0000
  C   C973      1.0  0.26957  0.36113  0.96968  1.0000
  H   H1706     1.0  0.28327  0.44057  0.82834  1.0000
  C   C974      1.0  0.32623  0.15773  0.84726  1.0000
  H   H1707     1.0  0.34712  0.09982  0.49509  1.0000
  C   C975      1.0  0.30172  0.18154  0.86603  1.0000
  C   C976      1.0  0.28090  0.99634  0.77267  1.0000
  C   C977      1.0  0.28250  0.23517  0.90489  1.0000
  H   H1708     1.0  0.26036  0.30940  0.60128  1.0000
  C   C978      1.0  0.20072  0.35783  0.86975  1.0000
  C   C979      1.0  0.37853  0.10111  0.52282  1.0000
  H   H1709     1.0  0.27605  0.00555  0.78373  1.0000
  S   S201      1.0  0.37368  0.10464  0.66032  1.0000
  H   H1710     1.0  0.22607  0.39278  0.84105  1.0000
  H   H1711     1.0  0.38244  0.45301  0.81886  1.0000
  H   H1712     1.0  0.35825  0.11575  0.76237  1.0000
  H   H1713     1.0  0.24080  0.36151  0.83327  1.0000
  H   H1714     1.0  0.30428  0.17381  0.70317  1.0000
  C   C980      1.0  0.22182  0.41735  0.73874  1.0000
  S   S202      1.0  0.21466  0.34794  0.76635  1.0000
  H   H1715     1.0  0.21800  0.36196  0.64127  1.0000
  Fe  Fe97      1.0  0.22375  0.27669  0.92335  1.0000
  C   C981      1.0  0.33201  0.00719  0.78823  1.0000
  H   H1716     1.0  0.35562  0.25232  0.90613  1.0000
  C   C982      1.0  0.25491  0.22140  0.87232  1.0000
  H   H1717     1.0  0.36962  0.12431  0.84532  1.0000
  N   N56       1.0  0.22832  0.14605  0.66829  1.0000
  C   C983      1.0  0.22457  0.16217  0.65107  1.0000
  H   H1718     1.0  0.28208  0.47044  0.80549  1.0000
  C   C984      1.0  0.23945  0.15263  0.67952  1.0000
  C   C985      1.0  0.24020  0.12739  0.66241  1.0000
  C   C986      1.0  0.23759  0.12286  0.64360  1.0000
  C   C987      1.0  0.24283  0.16941  0.63803  1.0000
  C   C988      1.0  0.24178  0.13959  0.69973  1.0000
  H   H1719     1.0  0.21731  0.41163  0.87722  1.0000
  H   H1720     1.0  0.37749  0.19448  0.81760  1.0000
  C   C989      1.0  0.24807  0.10219  0.64164  1.0000
  C   C990      1.0  0.23873  0.18220  0.61873  1.0000
  C   C991      1.0  0.25790  0.14358  0.70715  1.0000
  H   H1721     1.0  0.21434  0.17501  0.65607  1.0000
  H   H1722     1.0  0.21722  0.15790  0.64172  1.0000
  S   S203      1.0  0.19413  0.30832  0.63424  1.0000
  C   C992      1.0  0.37137  0.42406  0.85413  1.0000
  H   H1723     1.0  0.23251  0.16761  0.68184  1.0000
  H   H1724     1.0  0.25434  0.15354  0.67094  1.0000
  H   H1725     1.0  0.25596  0.12715  0.65994  1.0000
  H   H1726     1.0  0.23764  0.11482  0.67449  1.0000
  H   H1727     1.0  0.24394  0.13278  0.63057  1.0000
  H   H1728     1.0  0.35159  0.32654  0.77538  1.0000
  H   H1729     1.0  0.24753  0.17829  0.64546  1.0000
  H   H1730     1.0  0.25514  0.15726  0.63504  1.0000
  H   H1731     1.0  0.24517  0.12400  0.69922  1.0000
  H   H1732     1.0  0.21307  0.27128  0.72734  1.0000
  H   H1733     1.0  0.38769  0.07929  0.84896  1.0000
  C   C993      1.0  0.35530  0.13168  0.85278  1.0000
  C   C994      1.0  0.30527  0.47508  0.85974  1.0000
  H   H1734     1.0  0.20168  0.15645  0.68720  1.0000
  S   S204      1.0  0.23371  0.36994  0.72236  1.0000
  H   H1735     1.0  0.23888  0.33157  0.90112  1.0000
  H   H1736     1.0  0.36386  0.02931  0.82659  1.0000
  H   H1737     1.0  0.24734  0.27559  0.59379  1.0000
  H   H1738     1.0  0.23200  0.29898  0.59655  1.0000
  Fe  Fe98      1.0  0.28616  0.11937  0.49673  1.0000
  H   H1739     1.0  0.30395  0.03064  0.74042  1.0000
  N   N57       1.0  0.30517  0.29522  0.90737  1.0000
  C   C995      1.0  0.24717  0.29119  0.59219  1.0000
  S   S205      1.0  0.22833  0.29420  0.94225  1.0000
  Fe  Fe99      1.0  0.24269  0.34387  0.74481  1.0000
  H   H1740     1.0  0.22985  0.40276  0.73835  1.0000
  H   H1741     1.0  0.32905  0.18664  0.84922  1.0000
  S   S206      1.0  0.24795  0.26081  0.90346  1.0000
  C   C996      1.0  0.21718  0.34010  0.66758  1.0000
  C   C997      1.0  0.36665  0.08101  0.80882  1.0000
  C   C998      1.0  0.34336  0.32842  0.89260  1.0000
  C   C999      1.0  0.21570  0.19525  0.93615  1.0000
  H   H1742     1.0  0.38053  0.07716  0.87492  1.0000
  H   H1743     1.0  0.32688  0.00606  0.75337  1.0000
  H   H1744     1.0  0.37733  0.02675  0.79090  1.0000
  H   H1745     1.0  0.34757  0.32910  0.87672  1.0000
  C   C1000     1.0  0.24728  0.18710  0.56777  1.0000
  H   H1746     1.0  0.32385  0.12290  0.75218  1.0000
  S   S207      1.0  0.23462  0.32353  0.73123  1.0000
  H   H1747     1.0  0.26311  0.20033  0.92899  1.0000
  Fe  Fe100     1.0  0.34728  0.11382  0.64638  1.0000
  H   H1748     1.0  0.28078  0.35947  0.97819  1.0000
  H   H1749     1.0  0.33165  0.31048  0.91870  1.0000
  H   H1750     1.0  0.23183  0.18741  0.57497  1.0000
  C   C1001     1.0  0.33250  0.12299  0.80522  1.0000
  Fe  Fe101     1.0  0.22248  0.34995  0.71099  1.0000
  C   C1002     1.0  0.35242  0.11422  0.73483  1.0000
  N   N58       1.0  0.23646  0.19482  0.92558  1.0000
  C   C1003     1.0  0.33504  0.31041  0.90302  1.0000
  Fe  Fe102     1.0  0.31635  0.05216  0.81046  1.0000
  H   H1751     1.0  0.26745  0.09233  0.76347  1.0000
  H   H1752     1.0  0.26672  0.05741  0.73248  1.0000
  H   H1753     1.0  0.31665  0.08170  0.72423  1.0000
  H   H1754     1.0  0.29010  0.10565  0.73537  1.0000
  H   H1755     1.0  0.21862  0.25572  0.88447  1.0000
  C   C1004     1.0  0.36249  0.44405  0.85998  1.0000
  H   H1756     1.0  0.35647  0.32800  0.89793  1.0000
  C   C1005     1.0  0.22206  0.30537  0.80407  1.0000
  C   C1006     1.0  0.20285  0.30429  0.81856  1.0000
  H   H1757     1.0  0.29451  0.16953  0.87489  1.0000
  H   H1758     1.0  0.29546  0.14562  0.72784  1.0000
  H   H1759     1.0  0.24990  0.98521  0.89342  1.0000
  H   H1760     1.0  0.34235  0.06704  0.81733  1.0000
  H   H1761     1.0  0.30354  0.07507  0.75814  1.0000
  H   H1762     1.0  0.31946  0.26147  0.88852  1.0000
  C   C1007     1.0  0.35291  0.09521  0.50870  1.0000
  Fe  Fe103     1.0  0.29494  0.02374  0.84212  1.0000
  H   H1763     1.0  0.36488  0.08414  0.82296  1.0000
  H   H1764     1.0  0.36244  0.10021  0.73304  1.0000
  H   H1765     1.0  0.35566  0.09444  0.70719  1.0000
  H   H1766     1.0  0.26813  0.20618  0.89676  1.0000
  C   C1008     1.0  0.27734  0.09035  0.77346  1.0000
  C   C1009     1.0  0.32835  0.08764  0.72658  1.0000
  H   H1767     1.0  0.27619  0.07663  0.78427  1.0000
  C   C1010     1.0  0.29832  0.08932  0.76251  1.0000
  H   H1768     1.0  0.33721  0.09469  0.69477  1.0000
  C   C1011     1.0  0.32939  0.26617  0.89487  1.0000
  H   H1769     1.0  0.23977  0.40910  0.85931  1.0000
  H   H1770     1.0  0.22810  0.14246  0.71055  1.0000
  C   C1012     1.0  0.20314  0.31972  0.64776  1.0000
  C   C1013     1.0  0.20150  0.45531  0.74041  1.0000
  N   N59       1.0  0.37099  0.46098  0.84710  1.0000
  H   H1771     1.0  0.33453  0.07680  0.73852  1.0000
  H   H1772     1.0  0.36254  0.07982  0.86087  1.0000
  C   C1014     1.0  0.26286  0.40241  0.68726  1.0000
  H   H1773     1.0  0.38472  0.11362  0.87353  1.0000
  H   H1774     1.0  0.21971  0.39172  0.81370  1.0000
  H   H1775     1.0  0.19130  0.06525  0.81494  1.0000
  S   S208      1.0  0.20327  0.26103  0.94682  1.0000
  H   H1776     1.0  0.35970  0.24866  0.85073  1.0000
  C   C1015     1.0  0.37779  0.07324  0.86225  1.0000
  C   C1016     1.0  0.29008  0.47979  0.76857  1.0000
  C   C1017     1.0  0.37852  0.23486  0.93675  1.0000
  H   H1777     1.0  0.26807  0.99836  0.76614  1.0000
  H   H1778     1.0  0.34660  0.44711  0.86053  1.0000
  C   C1018     1.0  0.34496  0.99125  0.88365  1.0000
  H   H1779     1.0  0.27326  0.19881  0.96094  1.0000
  H   H1780     1.0  0.19185  0.31692  0.81328  1.0000
  Fe  Fe104     1.0  0.20941  0.99152  0.74129  1.0000
  H   H1781     1.0  0.36521  0.06723  0.52579  1.0000
  H   H1782     1.0  0.24563  0.16452  0.93835  1.0000
  H   H1783     1.0  0.19276  0.28569  0.80618  1.0000
  H   H1784     1.0  0.19418  0.19430  0.59585  1.0000
  H   H1785     1.0  0.20188  0.45144  0.69939  1.0000
  Fe  Fe105     1.0  0.20314  0.31587  0.93253  1.0000
  C   C1019     1.0  0.19155  0.43994  0.74563  1.0000
  H   H1786     1.0  0.22514  0.45376  0.61242  1.0000
  H   H1787     1.0  0.21627  0.14483  0.50799  1.0000
  C   C1020     1.0  0.37826  0.02121  0.82976  1.0000
  H   H1788     1.0  0.37890  0.23491  0.82147  1.0000
  Fe  Fe106     1.0  0.19980  0.03564  0.73198  1.0000
  C   C1021     1.0  0.38803  0.25564  0.78308  1.0000
  H   H1789     1.0  0.19688  0.21532  0.82744  1.0000
  H   H1790     1.0  0.20068  0.12243  0.66975  1.0000
  H   H1791     1.0  0.27698  0.35834  0.95499  1.0000
  C   C1022     1.0  0.38378  0.08294  0.77543  1.0000
  H   H1792     1.0  0.22073  0.47942  0.66416  1.0000
  H   H1793     1.0  0.20062  0.08109  0.83715  1.0000
  H   H1794     1.0  0.19347  0.09656  0.72528  1.0000
  S   S209      1.0  0.20059  0.29991  0.91119  1.0000
  H   H1795     1.0  0.38128  0.12974  0.49023  1.0000
  H   H1796     1.0  0.38191  0.19491  0.95633  1.0000
  H   H1797     1.0  0.23541  0.01425  0.82956  1.0000
  H   H1798     1.0  0.20717  0.39184  0.78535  1.0000
  H   H1799     1.0  0.36076  0.40704  0.88260  1.0000
  H   H1800     1.0  0.38670  0.41919  0.85574  1.0000
  C   C1023     1.0  0.19336  0.22948  0.55880  1.0000
  H   H1801     1.0  0.19602  0.01007  0.68258  1.0000
  H   H1802     1.0  0.38671  0.23566  0.92154  1.0000
  H   H1803     1.0  0.37411  0.24978  0.93959  1.0000
  H   H1804     1.0  0.29816  0.47964  0.73757  1.0000
  C   C1024     1.0  0.19644  0.28508  0.82029  1.0000
  H   H1805     1.0  0.35324  0.99792  0.85272  1.0000
  H   H1806     1.0  0.38149  0.25484  0.85296  1.0000
  H   H1807     1.0  0.20665  0.47560  0.61129  1.0000
  H   H1808     1.0  0.21060  0.21822  0.95250  1.0000
  H   H1809     1.0  0.25092  0.21604  0.96705  1.0000
  H   H1810     1.0  0.19103  0.04991  0.78881  1.0000
  S   S210      1.0  0.19522  0.30177  0.76529  1.0000
  H   H1811     1.0  0.19611  0.18459  0.62084  1.0000
  H   H1812     1.0  0.19691  0.10709  0.83194  1.0000
  H   H1813     1.0  0.19385  0.11271  0.74016  1.0000
  H   H1814     1.0  0.20488  0.22680  0.92868  1.0000
  H   H1815     1.0  0.19129  0.14764  0.65976  1.0000
  S   S211      1.0  0.38907  0.14920  0.76478  1.0000
  H   H1816     1.0  0.19121  0.46248  0.67895  1.0000
  H   H1817     1.0  0.33104  0.00205  0.88428  1.0000
  H   H1818     1.0  0.30713  0.98566  0.70391  1.0000
  H   H1819     1.0  0.38349  0.22362  0.96565  1.0000
  H   H1820     1.0  0.38886  0.08818  0.51841  1.0000
  C   C1025     1.0  0.38453  0.08178  0.55614  1.0000
  C   C1026     1.0  0.25621  0.34683  0.97969  1.0000
  H   H1821     1.0  0.20453  0.31671  0.97971  1.0000
  C   C1027     1.0  0.19042  0.09473  0.83238  1.0000
  H   H1822     1.0  0.19070  0.37663  0.80014  1.0000
  H   H1823     1.0  0.34931  0.20783  0.97744  1.0000
  H   H1824     1.0  0.24795  0.71982  0.39584  1.0000
  H   H1825     1.0  0.30876  0.52421  0.27885  1.0000
  H   H1826     1.0  0.22657  0.51728  0.25261  1.0000
  H   H1827     1.0  0.36891  0.48665  0.21720  1.0000
  H   H1828     1.0  0.34903  0.70884  0.32811  1.0000
  C   C1028     1.0  0.31787  0.83105  0.09236  1.0000
  H   H1829     1.0  0.25746  0.84423  0.05470  1.0000
  H   H1830     1.0  0.24239  0.94004  0.27679  1.0000
  Fe  Fe107     1.0  0.34000  0.75747  0.14933  1.0000
  C   C1029     1.0  0.25581  0.71297  0.04069  1.0000
  H   H1831     1.0  0.31171  0.61964  0.45883  1.0000
  H   H1832     1.0  0.38550  0.68210  0.35741  1.0000
  C   C1030     1.0  0.29635  0.81409  0.01389  1.0000
  C   C1031     1.0  0.20858  0.96768  0.37792  1.0000
  Fe  Fe108     1.0  0.34062  0.90779  0.21066  1.0000
  S   S212      1.0  0.32543  0.90582  0.24184  1.0000
  S   S213      1.0  0.35138  0.93443  0.19212  1.0000
  Fe  Fe109     1.0  0.33944  0.86627  0.21104  1.0000
  S   S214      1.0  0.32424  0.86108  0.24219  1.0000
  S   S215      1.0  0.34910  0.83982  0.19777  1.0000
  Fe  Fe110     1.0  0.30620  0.89067  0.23430  1.0000
  S   S216      1.0  0.27418  0.89965  0.24500  1.0000
  Fe  Fe111     1.0  0.34483  0.87660  0.24688  1.0000
  S   S217      1.0  0.35726  0.86501  0.27381  1.0000
  S   S218      1.0  0.31973  0.89482  0.20248  1.0000
  S   S219      1.0  0.36176  0.87948  0.21633  1.0000
  Fe  Fe112     1.0  0.32593  0.77135  0.11132  1.0000
  S   S220      1.0  0.29495  0.78026  0.12599  1.0000
  S   S221      1.0  0.33604  0.77744  0.07881  1.0000
  H   H1833     1.0  0.23884  0.50891  0.28569  1.0000
  S   S222      1.0  0.31029  0.76484  0.16733  1.0000
  Fe  Fe113     1.0  0.30089  0.75202  0.14714  1.0000
  S   S223      1.0  0.27866  0.73324  0.15993  1.0000
  Fe  Fe114     1.0  0.30716  0.79223  0.14471  1.0000
  S   S224      1.0  0.29483  0.82159  0.15228  1.0000
  S   S225      1.0  0.33109  0.74207  0.13099  1.0000
  Fe  Fe115     1.0  0.24346  0.66862  0.11455  1.0000
  S   S226      1.0  0.24214  0.64709  0.09808  1.0000
  S   S227      1.0  0.27142  0.67919  0.10786  1.0000
  H   H1834     1.0  0.27065  0.91013  0.35165  1.0000
  C   C1032     1.0  0.29182  0.50418  0.29956  1.0000
  Fe  Fe116     1.0  0.22445  0.63363  0.12599  1.0000
  S   S228      1.0  0.22781  0.60206  0.14038  1.0000
  Fe  Fe117     1.0  0.21381  0.66647  0.09277  1.0000
  S   S229      1.0  0.21103  0.67920  0.06154  1.0000
  S   S230      1.0  0.22852  0.65333  0.14301  1.0000
  S   S231      1.0  0.21615  0.68876  0.10786  1.0000
  Fe  Fe118     1.0  0.30356  0.54716  0.23216  1.0000
  S   S232      1.0  0.28661  0.56243  0.25639  1.0000
  Fe  Fe119     1.0  0.31404  0.54810  0.18919  1.0000
  S   S233      1.0  0.33568  0.51985  0.19241  1.0000
  S   S234      1.0  0.31123  0.56667  0.15960  1.0000
  H   H1835     1.0  0.30357  0.96268  0.33219  1.0000
  S   S235      1.0  0.29054  0.53681  0.21282  1.0000
  S   S236      1.0  0.32530  0.56063  0.20822  1.0000
  H   H1836     1.0  0.33263  0.72422  0.37750  1.0000
  H   H1837     1.0  0.24514  0.88055  0.38237  1.0000
  H   H1838     1.0  0.26464  0.52027  0.29170  1.0000
  H   H1839     1.0  0.22884  0.76608  0.05654  1.0000
  C   C1033     1.0  0.25357  0.64851  0.01009  1.0000
  S   S237      1.0  0.20154  0.54856  0.27609  1.0000
  H   H1840     1.0  0.34279  0.66741  0.34794  1.0000
  Fe  Fe120     1.0  0.29291  0.71850  0.44324  1.0000
  S   S238      1.0  0.27067  0.74551  0.44688  1.0000
  S   S239      1.0  0.28367  0.69021  0.44880  1.0000
  Fe  Fe121     1.0  0.32639  0.73961  0.43031  1.0000
  S   S240      1.0  0.30702  0.76865  0.43288  1.0000
  S   S241      1.0  0.35867  0.73484  0.41923  1.0000
  Fe  Fe122     1.0  0.29169  0.75227  0.46083  1.0000
  Fe  Fe123     1.0  0.28791  0.75911  0.41891  1.0000
  S   S242      1.0  0.27552  0.77620  0.39293  1.0000
  S   S243      1.0  0.31267  0.72389  0.45945  1.0000
  S   S244      1.0  0.30851  0.73147  0.41410  1.0000
  H   H1841     1.0  0.23117  0.66923  0.43532  1.0000
  H   H1842     1.0  0.25854  0.81038  0.09044  1.0000
  S   S245      1.0  0.32420  0.51892  0.23904  1.0000
  H   H1843     1.0  0.25357  0.77632  0.10060  1.0000
  S   S246      1.0  0.22060  0.69521  0.40115  1.0000
  H   H1844     1.0  0.28388  0.82019  0.09650  1.0000
  H   H1845     1.0  0.27259  0.71810  0.41475  1.0000
  C   C1034     1.0  0.24461  0.87122  0.07738  1.0000
  C   C1035     1.0  0.25708  0.79600  0.39790  1.0000
  C   C1036     1.0  0.24989  0.80916  0.38244  1.0000
  C   C1037     1.0  0.23513  0.82515  0.38586  1.0000
  C   C1038     1.0  0.22715  0.82784  0.40483  1.0000
  C   C1039     1.0  0.23448  0.81481  0.42037  1.0000
  C   C1040     1.0  0.24957  0.79890  0.41689  1.0000
  H   H1846     1.0  0.25555  0.80685  0.36779  1.0000
  H   H1847     1.0  0.22983  0.83523  0.37373  1.0000
  H   H1848     1.0  0.25521  0.78880  0.42890  1.0000
  H   H1849     1.0  0.34356  0.68418  0.26029  1.0000
  H   H1850     1.0  0.25378  0.73197  0.10394  1.0000
  H   H1851     1.0  0.34261  0.65337  0.12593  1.0000
  H   H1852     1.0  0.28677  0.78279  0.08689  1.0000
  C   C1041     1.0  0.26213  0.56112  0.26176  1.0000
  C   C1042     1.0  0.22439  0.55440  0.27088  1.0000
  C   C1043     1.0  0.23427  0.55782  0.25151  1.0000
  C   C1044     1.0  0.25314  0.56110  0.24698  1.0000
  H   H1853     1.0  0.22762  0.55722  0.24003  1.0000
  H   H1854     1.0  0.26086  0.56329  0.23207  1.0000
  S   S247      1.0  0.33765  0.78586  0.12819  1.0000
  C   C1045     1.0  0.25099  0.59182  0.14556  1.0000
  C   C1046     1.0  0.25316  0.57760  0.16244  1.0000
  C   C1047     1.0  0.27161  0.56963  0.16688  1.0000
  C   C1048     1.0  0.28797  0.57553  0.15421  1.0000
  C   C1049     1.0  0.28582  0.58928  0.13706  1.0000
  C   C1050     1.0  0.26736  0.59766  0.13288  1.0000
  H   H1855     1.0  0.24052  0.57295  0.17221  1.0000
  H   H1856     1.0  0.27313  0.55889  0.18003  1.0000
  H   H1857     1.0  0.29846  0.59363  0.12706  1.0000
  H   H1858     1.0  0.26581  0.60846  0.11972  1.0000
  C   C1051     1.0  0.27314  0.69424  0.12240  1.0000
  C   C1052     1.0  0.28790  0.70489  0.11622  1.0000
  C   C1053     1.0  0.28932  0.71737  0.12738  1.0000
  C   C1054     1.0  0.27632  0.71880  0.14503  1.0000
  C   C1055     1.0  0.26171  0.70794  0.15133  1.0000
  C   C1056     1.0  0.26000  0.69581  0.13994  1.0000
  H   H1859     1.0  0.29800  0.70378  0.10258  1.0000
  H   H1860     1.0  0.30054  0.72576  0.12243  1.0000
  H   H1861     1.0  0.25161  0.70905  0.16496  1.0000
  H   H1862     1.0  0.24852  0.68769  0.14471  1.0000
  C   C1057     1.0  0.26399  0.88439  0.26586  1.0000
  C   C1058     1.0  0.27406  0.86568  0.27228  1.0000
  C   C1059     1.0  0.26526  0.85328  0.28828  1.0000
  C   C1060     1.0  0.24673  0.85987  0.29853  1.0000
  C   C1061     1.0  0.23674  0.87869  0.29237  1.0000
  C   C1062     1.0  0.24521  0.89079  0.27579  1.0000
  H   H1863     1.0  0.28847  0.86061  0.26481  1.0000
  H   H1864     1.0  0.27283  0.83863  0.29278  1.0000
  H   H1865     1.0  0.22236  0.88386  0.30012  1.0000
  H   H1866     1.0  0.23724  0.90520  0.27078  1.0000
  C   C1063     1.0  0.33400  0.83538  0.18475  1.0000
  C   C1064     1.0  0.31867  0.84971  0.17861  1.0000
  C   C1065     1.0  0.30675  0.84550  0.16844  1.0000
  C   C1066     1.0  0.31004  0.82694  0.16457  1.0000
  C   C1067     1.0  0.32542  0.81268  0.17067  1.0000
  C   C1068     1.0  0.33739  0.81691  0.18066  1.0000
  H   H1867     1.0  0.31620  0.86409  0.18142  1.0000
  H   H1868     1.0  0.29513  0.85665  0.16332  1.0000
  H   H1869     1.0  0.32815  0.79836  0.16764  1.0000
  H   H1870     1.0  0.34923  0.80577  0.18529  1.0000
  C   C1069     1.0  0.27622  0.78695  0.07722  1.0000
  H   H1871     1.0  0.30779  0.57703  0.46847  1.0000
  C   C1070     1.0  0.37366  0.74745  0.28846  1.0000
  C   C1071     1.0  0.36526  0.74401  0.39417  1.0000
  C   C1072     1.0  0.35115  0.75469  0.38347  1.0000
  C   C1073     1.0  0.35648  0.76127  0.36334  1.0000
  C   C1074     1.0  0.26574  0.69261  0.43568  1.0000
  H   H1872     1.0  0.26899  0.64161  0.01010  1.0000
  H   H1873     1.0  0.33615  0.75790  0.39073  1.0000
  H   H1874     1.0  0.34554  0.76950  0.35513  1.0000
  H   H1875     1.0  0.34455  0.66974  0.16464  1.0000
  H   H1876     1.0  0.37585  0.96224  0.18312  1.0000
  S   S248      1.0  0.29948  0.73069  0.98215  1.0000
  H   H1877     1.0  0.26213  0.89215  0.38584  1.0000
  H   H1878     1.0  0.28437  0.56676  0.01809  1.0000
  H   H1879     1.0  0.19106  0.63961  0.19860  1.0000
  C   C1075     1.0  0.33322  0.67470  0.15573  1.0000
  H   H1880     1.0  0.24488  0.51661  0.23068  1.0000
  H   H1881     1.0  0.25992  0.62822  0.45207  1.0000
  H   H1882     1.0  0.22947  0.71311  0.07352  1.0000
  H   H1883     1.0  0.26534  0.91620  0.39641  1.0000
  Fe  Fe124     1.0  0.20753  0.63326  0.44722  1.0000
  H   H1884     1.0  0.22658  0.98021  0.35172  1.0000
  C   C1076     1.0  0.23126  0.59747  0.00389  1.0000
  S   S249      1.0  0.22545  0.63833  0.41675  1.0000
  C   C1077     1.0  0.19656  0.56041  0.37791  1.0000
  H   H1885     1.0  0.20785  0.58138  0.01376  1.0000
  C   C1078     1.0  0.36679  0.96291  0.19735  1.0000
  C   C1079     1.0  0.35300  0.95113  0.20504  1.0000
  C   C1080     1.0  0.34118  0.95226  0.22332  1.0000
  C   C1081     1.0  0.34392  0.96415  0.23432  1.0000
  H   H1886     1.0  0.19308  0.55396  0.40908  1.0000
  H   H1887     1.0  0.24856  0.94838  0.40371  1.0000
  H   H1888     1.0  0.32997  0.94395  0.22900  1.0000
  H   H1889     1.0  0.25132  0.92119  0.33851  1.0000
  H   H1890     1.0  0.25495  0.81188  0.06690  1.0000
  H   H1891     1.0  0.28840  0.94746  0.34959  1.0000
  H   H1892     1.0  0.25690  0.89526  0.34638  1.0000
  C   C1082     1.0  0.32972  0.71949  0.36529  1.0000
  H   H1893     1.0  0.28109  0.84242  0.43197  1.0000
  C   C1083     1.0  0.24650  0.89396  0.38617  1.0000
  H   H1894     1.0  0.32465  0.67397  0.41410  1.0000
  C   C1084     1.0  0.34469  0.49303  0.13676  1.0000
  H   H1895     1.0  0.21191  0.68796  0.02088  1.0000
  H   H1896     1.0  0.29071  0.53486  0.29734  1.0000
  C   C1085     1.0  0.36941  0.97499  0.20835  1.0000
  H   H1897     1.0  0.25866  0.55930  0.29247  1.0000
  H   H1898     1.0  0.35650  0.48877  0.12462  1.0000
  C   C1086     1.0  0.26628  0.96296  0.28077  1.0000
  C   C1087     1.0  0.22775  0.78569  0.35098  1.0000
  C   C1088     1.0  0.31265  0.74740  0.04455  1.0000
  C   C1089     1.0  0.32369  0.76142  0.03489  1.0000
  C   C1090     1.0  0.33095  0.77045  0.04557  1.0000
  C   C1091     1.0  0.32694  0.76568  0.06592  1.0000
  C   C1092     1.0  0.31575  0.75176  0.07562  1.0000
  C   C1093     1.0  0.30873  0.74252  0.06492  1.0000
  H   H1899     1.0  0.36529  0.66710  0.08455  1.0000
  H   H1900     1.0  0.31259  0.74807  0.09132  1.0000
  H   H1901     1.0  0.30017  0.73165  0.07241  1.0000
  H   H1902     1.0  0.36669  0.67202  0.34046  1.0000
  H   H1903     1.0  0.34011  0.58418  0.46543  1.0000
  C   C1094     1.0  0.24960  0.70843  0.40857  1.0000
  C   C1095     1.0  0.27564  0.62120  0.45005  1.0000
  H   H1904     1.0  0.36639  0.71370  0.36900  1.0000
  C   C1096     1.0  0.28703  0.63454  0.43323  1.0000
  C   C1097     1.0  0.27901  0.63890  0.41473  1.0000
  C   C1098     1.0  0.27689  0.96279  0.32386  1.0000
  H   H1905     1.0  0.18970  0.95234  0.40127  1.0000
  H   H1906     1.0  0.24876  0.91994  0.29598  1.0000
  H   H1907     1.0  0.29562  0.95949  0.29572  1.0000
  H   H1908     1.0  0.28614  0.64860  0.43688  1.0000
  H   H1909     1.0  0.30253  0.62747  0.42972  1.0000
  H   H1910     1.0  0.27991  0.62530  0.41004  1.0000
  H   H1911     1.0  0.26369  0.64674  0.41719  1.0000
  H   H1912     1.0  0.28749  0.64823  0.40284  1.0000
  C   C1099     1.0  0.26201  0.71066  0.01923  1.0000
  C   C1100     1.0  0.19418  0.59749  0.24971  1.0000
  C   C1101     1.0  0.27942  0.69394  0.01669  1.0000
  H   H1913     1.0  0.22320  0.73462  0.02174  1.0000
  H   H1914     1.0  0.22321  0.71173  0.03732  1.0000
  H   H1915     1.0  0.25246  0.69886  0.04971  1.0000
  H   H1916     1.0  0.26610  0.72407  0.00973  1.0000
  H   H1917     1.0  0.25021  0.70762  0.01412  1.0000
  C   C1102     1.0  0.38650  0.54041  0.22376  1.0000
  H   H1918     1.0  0.36903  0.92980  0.28539  1.0000
  H   H1919     1.0  0.27568  0.68005  0.02563  1.0000
  H   H1920     1.0  0.28375  0.69271  0.00120  1.0000
  H   H1921     1.0  0.29193  0.69658  0.02102  1.0000
  H   H1922     1.0  0.20944  0.78601  0.41045  1.0000
  C   C1103     1.0  0.24506  0.74833  0.03481  1.0000
  N   N60       1.0  0.24121  0.61606  0.02469  1.0000
  C   C1104     1.0  0.22619  0.60641  0.02222  1.0000
  C   C1105     1.0  0.23527  0.62255  0.04392  1.0000
  C   C1106     1.0  0.24208  0.63389  0.00852  1.0000
  C   C1107     1.0  0.26109  0.60317  0.02274  1.0000
  C   C1108     1.0  0.26322  0.58378  0.03770  1.0000
  H   H1923     1.0  0.28029  0.95638  0.27228  1.0000
  C   C1109     1.0  0.38500  0.91581  0.24137  1.0000
  C   C1110     1.0  0.22405  0.60978  0.06154  1.0000
  C   C1111     1.0  0.22315  0.61548  0.08060  1.0000
  C   C1112     1.0  0.28290  0.57062  0.03229  1.0000
  H   H1924     1.0  0.28549  0.50227  0.31535  1.0000
  H   H1925     1.0  0.22766  0.92677  0.40350  1.0000
  H   H1926     1.0  0.21205  0.61696  0.02227  1.0000
  H   H1927     1.0  0.22311  0.59433  0.03459  1.0000
  H   H1928     1.0  0.24812  0.62467  0.04815  1.0000
  H   H1929     1.0  0.22538  0.63699  0.04244  1.0000
  H   H1930     1.0  0.22717  0.64218  0.00738  1.0000
  H   H1931     1.0  0.26726  0.95250  0.32652  1.0000
  H   H1932     1.0  0.24456  0.97793  0.31392  1.0000
  H   H1933     1.0  0.27187  0.61078  0.02423  1.0000
  H   H1934     1.0  0.25189  0.57574  0.03865  1.0000
  H   H1935     1.0  0.26235  0.58659  0.05223  1.0000
  H   H1936     1.0  0.27233  0.83271  0.02823  1.0000
  C   C1113     1.0  0.25487  0.93666  0.41492  1.0000
  H   H1937     1.0  0.19606  0.68732  0.33434  1.0000
  H   H1938     1.0  0.24737  0.65447  0.02346  1.0000
  H   H1939     1.0  0.20891  0.61184  0.05973  1.0000
  H   H1940     1.0  0.23060  0.59416  0.06308  1.0000
  N   N61       1.0  0.27989  0.82278  0.06726  1.0000
  C   C1114     1.0  0.20926  0.75520  0.41601  1.0000
  H   H1941     1.0  0.35098  0.72728  0.06499  1.0000
  H   H1942     1.0  0.31268  0.51885  0.30326  1.0000
  S   S250      1.0  0.21303  0.98110  0.39293  1.0000
  H   H1943     1.0  0.24838  0.49729  0.31687  1.0000
  H   H1944     1.0  0.37197  0.92566  0.23644  1.0000
  H   H1945     1.0  0.38683  0.73737  0.29278  1.0000
  C   C1115     1.0  0.25292  0.66573  0.99282  1.0000
  H   H1946     1.0  0.23336  0.66046  0.19361  1.0000
  C   C1116     1.0  0.28197  0.81851  0.03235  1.0000
  N   N62       1.0  0.28794  0.62699  0.18040  1.0000
  C   C1117     1.0  0.30111  0.61596  0.19435  1.0000
  C   C1118     1.0  0.27152  0.61666  0.18358  1.0000
  C   C1119     1.0  0.29950  0.62617  0.16005  1.0000
  C   C1120     1.0  0.28039  0.64806  0.18187  1.0000
  C   C1121     1.0  0.27729  0.65306  0.20211  1.0000
  C   C1122     1.0  0.32078  0.62233  0.19041  1.0000
  C   C1123     1.0  0.28815  0.63537  0.14340  1.0000
  C   C1124     1.0  0.25897  0.61307  0.20432  1.0000
  C   C1125     1.0  0.24411  0.60112  0.20545  1.0000
  C   C1126     1.0  0.26769  0.67440  0.20186  1.0000
  H   H1947     1.0  0.24144  0.79111  0.34693  1.0000
  C   C1127     1.0  0.30185  0.63603  0.12356  1.0000
  H   H1948     1.0  0.30456  0.60022  0.19404  1.0000
  H   H1949     1.0  0.29375  0.61668  0.20959  1.0000
  H   H1950     1.0  0.26120  0.62479  0.17391  1.0000
  H   H1951     1.0  0.27738  0.60223  0.17949  1.0000
  H   H1952     1.0  0.30617  0.61081  0.15883  1.0000
  H   H1953     1.0  0.31174  0.63378  0.15665  1.0000
  H   H1954     1.0  0.29042  0.65722  0.17187  1.0000
  H   H1955     1.0  0.26654  0.65376  0.17660  1.0000
  H   H1956     1.0  0.29138  0.65062  0.20646  1.0000
  H   H1957     1.0  0.26823  0.64409  0.21359  1.0000
  H   H1958     1.0  0.33100  0.61603  0.17833  1.0000
  H   H1959     1.0  0.31901  0.63832  0.18618  1.0000
  H   H1960     1.0  0.28023  0.65038  0.14437  1.0000
  H   H1961     1.0  0.27746  0.62678  0.14394  1.0000
  H   H1962     1.0  0.26782  0.60490  0.21530  1.0000
  H   H1963     1.0  0.25074  0.62700  0.20825  1.0000
  H   H1964     1.0  0.23497  0.59908  0.22029  1.0000
  H   H1965     1.0  0.23459  0.60849  0.19484  1.0000
  H   H1966     1.0  0.25155  0.58659  0.20235  1.0000
  H   H1967     1.0  0.25303  0.67776  0.19856  1.0000
  H   H1968     1.0  0.26631  0.67766  0.21631  1.0000
  H   H1969     1.0  0.27646  0.68411  0.19083  1.0000
  H   H1970     1.0  0.20048  0.63701  0.33066  1.0000
  H   H1971     1.0  0.19735  0.58619  0.41083  1.0000
  Fe  Fe125     1.0  0.19397  0.89999  0.35021  1.0000
  H   H1972     1.0  0.31023  0.64755  0.12071  1.0000
  H   H1973     1.0  0.31197  0.62187  0.12277  1.0000
  H   H1974     1.0  0.29333  0.63938  0.11202  1.0000
  N   N63       1.0  0.30367  0.82760  0.33719  1.0000
  C   C1128     1.0  0.29696  0.83352  0.35668  1.0000
  C   C1129     1.0  0.30008  0.84486  0.32068  1.0000
  C   C1130     1.0  0.29144  0.81369  0.33717  1.0000
  C   C1131     1.0  0.32463  0.81734  0.33404  1.0000
  C   C1132     1.0  0.33942  0.82894  0.33468  1.0000
  C   C1133     1.0  0.30252  0.81777  0.37446  1.0000
  C   C1134     1.0  0.29635  0.80513  0.31861  1.0000
  C   C1135     1.0  0.30168  0.86492  0.32298  1.0000
  C   C1136     1.0  0.29958  0.88023  0.30437  1.0000
  H   H1975     1.0  0.22026  0.96069  0.33142  1.0000
  C   C1137     1.0  0.29281  0.82451  0.39350  1.0000
  C   C1138     1.0  0.28033  0.79539  0.31801  1.0000
  H   H1976     1.0  0.28090  0.83875  0.35958  1.0000
  H   H1977     1.0  0.30302  0.84590  0.35691  1.0000
  H   H1978     1.0  0.30994  0.84201  0.30679  1.0000
  H   H1979     1.0  0.28512  0.84722  0.31814  1.0000
  H   H1980     1.0  0.27580  0.82099  0.33945  1.0000
  H   H1981     1.0  0.29251  0.80101  0.34944  1.0000
  H   H1982     1.0  0.32652  0.80326  0.34466  1.0000
  H   H1983     1.0  0.32934  0.81332  0.31954  1.0000
  H   H1984     1.0  0.33463  0.83656  0.34694  1.0000
  H   H1985     1.0  0.34166  0.83983  0.32088  1.0000
  H   H1986     1.0  0.29830  0.80405  0.37541  1.0000
  H   H1987     1.0  0.31842  0.81453  0.37357  1.0000
  H   H1988     1.0  0.30999  0.79398  0.31842  1.0000
  H   H1989     1.0  0.29835  0.81636  0.30515  1.0000
  H   H1990     1.0  0.28977  0.86993  0.33472  1.0000
  H   H1991     1.0  0.31573  0.86440  0.32650  1.0000
  H   H1992     1.0  0.30001  0.89455  0.30668  1.0000
  H   H1993     1.0  0.31158  0.87652  0.29213  1.0000
  H   H1994     1.0  0.28550  0.88146  0.30042  1.0000
  H   H1995     1.0  0.30318  0.49122  0.29681  1.0000
  H   H1996     1.0  0.28648  0.64493  0.46724  1.0000
  H   H1997     1.0  0.19775  0.91000  0.43071  1.0000
  H   H1998     1.0  0.20110  0.57104  0.34696  1.0000
  H   H1999     1.0  0.27680  0.82780  0.39524  1.0000
  H   H2000     1.0  0.29671  0.81280  0.40592  1.0000
  H   H2001     1.0  0.28450  0.78880  0.30500  1.0000
  H   H2002     1.0  0.27790  0.78384  0.33119  1.0000
  H   H2003     1.0  0.26657  0.80623  0.31716  1.0000
  H   H2004     1.0  0.23121  0.77023  0.34982  1.0000
  H   H2005     1.0  0.28426  0.55703  0.04354  1.0000
  S   S251      1.0  0.37691  0.52602  0.21384  1.0000
  H   H2006     1.0  0.28279  0.51250  0.27217  1.0000
  H   H2007     1.0  0.36159  0.94236  0.26329  1.0000
  H   H2008     1.0  0.19033  0.70500  0.45152  1.0000
  H   H2009     1.0  0.19064  0.67637  0.35908  1.0000
  H   H2010     1.0  0.25487  0.88107  0.07002  1.0000
  H   H2011     1.0  0.26253  0.85527  0.44845  1.0000
  H   H2012     1.0  0.23747  0.81821  0.19888  1.0000
  C   C1139     1.0  0.25397  0.93226  0.28507  1.0000
  H   H2013     1.0  0.37388  0.71569  0.98463  1.0000
  C   C1140     1.0  0.37221  0.66502  0.13111  1.0000
  C   C1141     1.0  0.34588  0.68632  0.37639  1.0000
  H   H2014     1.0  0.31011  0.69598  0.40290  1.0000
  H   H2015     1.0  0.38342  0.69526  0.33299  1.0000
  C   C1142     1.0  0.26643  0.80869  0.07551  1.0000
  H   H2016     1.0  0.36262  0.74941  0.30188  1.0000
  C   C1143     1.0  0.35823  0.97526  0.22706  1.0000
  H   H2017     1.0  0.30599  0.79966  0.01700  1.0000
  H   H2018     1.0  0.34441  0.61968  0.20467  1.0000
  C   C1144     1.0  0.29392  0.95252  0.33384  1.0000
  H   H2019     1.0  0.20208  0.84313  0.27021  1.0000
  H   H2020     1.0  0.28389  0.78357  0.06286  1.0000
  H   H2021     1.0  0.20216  0.76466  0.37758  1.0000
  H   H2022     1.0  0.23540  0.71881  0.10637  1.0000
  H   H2023     1.0  0.22415  0.64434  0.18501  1.0000
  H   H2024     1.0  0.22812  0.77961  0.38131  1.0000
  H   H2025     1.0  0.19876  0.72383  0.06295  1.0000
  C   C1145     1.0  0.38706  0.81475  0.22673  1.0000
  H   H2026     1.0  0.30641  0.59161  0.44444  1.0000
  H   H2027     1.0  0.37474  0.82991  0.29646  1.0000
  H   H2028     1.0  0.22140  0.84778  0.27844  1.0000
  H   H2029     1.0  0.25454  0.59328  0.46697  1.0000
  H   H2030     1.0  0.38645  0.72395  0.21276  1.0000
  H   H2031     1.0  0.21813  0.75134  0.40219  1.0000
  C   C1146     1.0  0.35176  0.67752  0.33792  1.0000
  C   C1147     1.0  0.28401  0.97086  0.30186  1.0000
  H   H2032     1.0  0.27720  0.85363  0.05559  1.0000
  C   C1148     1.0  0.31568  0.68038  0.40287  1.0000
  C   C1149     1.0  0.21781  0.78783  0.37173  1.0000
  H   H2033     1.0  0.32309  0.75857  0.22055  1.0000
  C   C1150     1.0  0.34041  0.68792  0.13611  1.0000
  H   H2034     1.0  0.33483  0.76708  0.19593  1.0000
  H   H2035     1.0  0.25502  0.66805  0.45438  1.0000
  H   H2036     1.0  0.27311  0.80721  0.03744  1.0000
  C   C1151     1.0  0.19858  0.77678  0.41317  1.0000
  H   H2037     1.0  0.33653  0.72371  0.17608  1.0000
  H   H2038     1.0  0.30354  0.80528  0.05040  1.0000
  C   C1152     1.0  0.19655  0.95411  0.38604  1.0000
  C   C1153     1.0  0.20509  0.65559  0.20969  1.0000
  C   C1154     1.0  0.24190  0.73121  0.09739  1.0000
  C   C1155     1.0  0.22017  0.65779  0.19083  1.0000
  C   C1156     1.0  0.33388  0.58627  0.45241  1.0000
  C   C1157     1.0  0.26180  0.86680  0.41772  1.0000
  H   H2039     1.0  0.29772  0.83757  0.39393  1.0000
  H   H2040     1.0  0.23460  0.87228  0.06774  1.0000
  C   C1158     1.0  0.33260  0.92526  0.28455  1.0000
  C   C1159     1.0  0.37590  0.75722  0.35382  1.0000
  H   H2041     1.0  0.21163  0.64329  0.22021  1.0000
  C   C1160     1.0  0.26521  0.58638  0.47650  1.0000
  S   S252      1.0  0.21738  0.61817  0.47555  1.0000
  H   H2042     1.0  0.33314  0.67402  0.10966  1.0000
  C   C1161     1.0  0.34995  0.70589  0.09208  1.0000
  H   H2043     1.0  0.34030  0.50910  0.13385  1.0000
  N   N64       1.0  0.23445  0.89558  0.40616  1.0000
  H   H2044     1.0  0.26862  0.97491  0.33122  1.0000
  C   C1162     1.0  0.24025  0.87744  0.42097  1.0000
  C   C1163     1.0  0.21359  0.89705  0.40541  1.0000
  H   H2045     1.0  0.21452  0.67026  0.17984  1.0000
  H   H2046     1.0  0.22917  0.73514  0.43329  1.0000
  H   H2047     1.0  0.20200  0.60496  0.99823  1.0000
  Fe  Fe126     1.0  0.31305  0.50946  0.21766  1.0000
  H   H2048     1.0  0.31578  0.71453  0.37104  1.0000
  N   N65       1.0  0.37409  0.72991  0.24167  1.0000
  H   H2049     1.0  0.23869  0.49430  0.24571  1.0000
  H   H2050     1.0  0.38592  0.91277  0.20393  1.0000
  H   H2051     1.0  0.35833  0.67428  0.37348  1.0000
  H   H2052     1.0  0.23211  0.86619  0.42152  1.0000
  H   H2053     1.0  0.21237  0.88521  0.39904  1.0000
  S   S253      1.0  0.27909  0.77363  0.99363  1.0000
  H   H2054     1.0  0.22711  0.91140  0.36667  1.0000
  H   H2055     1.0  0.37742  0.68648  0.09631  1.0000
  C   C1164     1.0  0.25600  0.91675  0.41097  1.0000
  H   H2056     1.0  0.38198  0.90098  0.24444  1.0000
  C   C1165     1.0  0.31176  0.59004  0.45783  1.0000
  H   H2057     1.0  0.24033  0.78760  0.01460  1.0000
  C   C1166     1.0  0.38114  0.73556  0.25686  1.0000
  H   H2058     1.0  0.36502  0.56669  0.21878  1.0000
  H   H2059     1.0  0.26215  0.64182  0.47662  1.0000
  H   H2060     1.0  0.23609  0.88056  0.43587  1.0000
  C   C1167     1.0  0.25608  0.90922  0.35036  1.0000
  H   H2061     1.0  0.26709  0.92633  0.27496  1.0000
  N   N66       1.0  0.28206  0.61601  0.46927  1.0000
  Fe  Fe127     1.0  0.21209  0.86137  0.33775  1.0000
  C   C1168     1.0  0.21371  0.95883  0.34666  1.0000
  H   H2062     1.0  0.23788  0.61220  0.08384  1.0000
  C   C1169     1.0  0.38477  0.69016  0.18736  1.0000
  S   S254      1.0  0.30385  0.73562  0.03146  1.0000
  S   S255      1.0  0.22006  0.87702  0.35627  1.0000
  C   C1170     1.0  0.32738  0.67734  0.38280  1.0000
  C   C1171     1.0  0.37818  0.55997  0.22422  1.0000
  S   S256      1.0  0.20509  0.51540  0.32889  1.0000
  C   C1172     1.0  0.25030  0.49778  0.27891  1.0000
  H   H2063     1.0  0.35203  0.67513  0.23816  1.0000
  H   H2064     1.0  0.23592  0.87605  0.09087  1.0000
  C   C1173     1.0  0.25565  0.85034  0.08252  1.0000
  H   H2065     1.0  0.32743  0.70095  0.34122  1.0000
  H   H2066     1.0  0.35824  0.63897  0.07750  1.0000
  C   C1174     1.0  0.38427  0.70973  0.17844  1.0000
  H   H2067     1.0  0.36392  0.49259  0.15488  1.0000
  H   H2068     1.0  0.35421  0.73629  0.21024  1.0000
  C   C1175     1.0  0.36465  0.71027  0.35551  1.0000
  H   H2069     1.0  0.30300  0.67332  0.40691  1.0000
  C   C1176     1.0  0.19547  0.66970  0.01583  1.0000
  H   H2070     1.0  0.33704  0.68055  0.31431  1.0000
  S   S257      1.0  0.36644  0.74600  0.16254  1.0000
  H   H2071     1.0  0.29557  0.74755  0.36354  1.0000
  H   H2072     1.0  0.32736  0.93810  0.27375  1.0000
  H   H2073     1.0  0.26914  0.75863  0.08721  1.0000
  H   H2074     1.0  0.30533  0.82530  0.00768  1.0000
  H   H2075     1.0  0.34920  0.71035  0.23128  1.0000
  C   C1177     1.0  0.30586  0.83518  0.07679  1.0000
  H   H2076     1.0  0.36982  0.82424  0.33581  1.0000
  Fe  Fe128     1.0  0.20078  0.67176  0.13491  1.0000
  H   H2077     1.0  0.31765  0.68289  0.37223  1.0000
  N   N67       1.0  0.26359  0.84423  0.22749  1.0000
  C   C1178     1.0  0.25876  0.86607  0.22155  1.0000
  C   C1179     1.0  0.25091  0.83807  0.24699  1.0000
  C   C1180     1.0  0.28438  0.83837  0.23014  1.0000
  C   C1181     1.0  0.26165  0.83410  0.21255  1.0000
  C   C1182     1.0  0.24584  0.84439  0.20036  1.0000
  C   C1183     1.0  0.27319  0.87517  0.20412  1.0000
  C   C1184     1.0  0.29133  0.81673  0.23933  1.0000
  C   C1185     1.0  0.22871  0.84397  0.24842  1.0000
  C   C1186     1.0  0.34316  0.69854  0.34121  1.0000
  C   C1187     1.0  0.24289  0.83089  0.18888  1.0000
  C   C1188     1.0  0.26487  0.89636  0.19608  1.0000
  C   C1189     1.0  0.31323  0.81164  0.23808  1.0000
  H   H2078     1.0  0.25804  0.87272  0.23394  1.0000
  H   H2079     1.0  0.24413  0.87132  0.21810  1.0000
  H   H2080     1.0  0.25392  0.82203  0.25177  1.0000
  H   H2081     1.0  0.25436  0.84386  0.25819  1.0000
  H   H2082     1.0  0.28690  0.84727  0.23924  1.0000
  H   H2083     1.0  0.29449  0.84144  0.21592  1.0000
  H   H2084     1.0  0.27548  0.83178  0.20168  1.0000
  H   H2085     1.0  0.25912  0.81924  0.21963  1.0000
  H   H2086     1.0  0.25026  0.85721  0.18970  1.0000
  H   H2087     1.0  0.23168  0.84947  0.20943  1.0000
  H   H2088     1.0  0.28668  0.87471  0.20880  1.0000
  H   H2089     1.0  0.27698  0.86714  0.19225  1.0000
  H   H2090     1.0  0.28766  0.80704  0.23188  1.0000
  H   H2091     1.0  0.28447  0.81362  0.25500  1.0000
  H   H2092     1.0  0.22386  0.85971  0.24300  1.0000
  H   H2093     1.0  0.36848  0.70349  0.11159  1.0000
  H   H2094     1.0  0.31617  0.83444  0.06272  1.0000
  H   H2095     1.0  0.26095  0.67618  0.99418  1.0000
  H   H2096     1.0  0.34843  0.69055  0.38909  1.0000
  H   H2097     1.0  0.23211  0.83881  0.17970  1.0000
  H   H2098     1.0  0.25671  0.82567  0.17922  1.0000
  H   H2099     1.0  0.25191  0.89757  0.19015  1.0000
  H   H2100     1.0  0.26084  0.90495  0.20763  1.0000
  H   H2101     1.0  0.27595  0.90258  0.18421  1.0000
  H   H2102     1.0  0.31760  0.82093  0.24544  1.0000
  H   H2103     1.0  0.31764  0.79626  0.24524  1.0000
  H   H2104     1.0  0.32098  0.81359  0.22268  1.0000
  H   H2105     1.0  0.26294  0.90573  0.42215  1.0000
  H   H2106     1.0  0.22198  0.82359  0.27590  1.0000
  H   H2107     1.0  0.37267  0.64556  0.10183  1.0000
  S   S258      1.0  0.38441  0.62825  0.24965  1.0000
  C   C1190     1.0  0.38031  0.85014  0.26945  1.0000
  H   H2108     1.0  0.33823  0.74457  0.34261  1.0000
  H   H2109     1.0  0.38645  0.95204  0.27822  1.0000
  H   H2110     1.0  0.35271  0.79726  0.26645  1.0000
  C   C1191     1.0  0.36394  0.69319  0.10552  1.0000
  C   C1192     1.0  0.35901  0.81553  0.33681  1.0000
  Fe  Fe129     1.0  0.30411  0.74947  0.99994  1.0000
  H   H2111     1.0  0.22776  0.91356  0.42745  1.0000
  H   H2112     1.0  0.35249  0.74978  0.27185  1.0000
  H   H2113     1.0  0.22077  0.73826  0.07121  1.0000
  H   H2114     1.0  0.26548  0.86056  0.40452  1.0000
  C   C1193     1.0  0.25859  0.94576  0.29543  1.0000
  H   H2115     1.0  0.33271  0.59920  0.21260  1.0000
  H   H2116     1.0  0.30834  0.83153  0.10691  1.0000
  H   H2117     1.0  0.25859  0.52182  0.25570  1.0000
  S   S259      1.0  0.20415  0.62024  0.38037  1.0000
  Fe  Fe130     1.0  0.19932  0.86253  0.38041  1.0000
  N   N68       1.0  0.38763  0.92029  0.25965  1.0000
  H   H2118     1.0  0.33734  0.68931  0.19270  1.0000
  C   C1194     1.0  0.35001  0.71439  0.17916  1.0000
  H   H2119     1.0  0.21834  0.79440  0.34062  1.0000
  H   H2120     1.0  0.33592  0.77828  0.21485  1.0000
  C   C1195     1.0  0.19568  0.56475  0.39588  1.0000
  C   C1196     1.0  0.19880  0.89694  0.42506  1.0000
  H   H2121     1.0  0.26611  0.60002  0.00786  1.0000
  C   C1197     1.0  0.35734  0.74583  0.23578  1.0000
  N   N69       1.0  0.23892  0.72936  0.04497  1.0000
  H   H2122     1.0  0.33512  0.96458  0.24864  1.0000
  C   C1198     1.0  0.24145  0.91115  0.36935  1.0000
  C   C1199     1.0  0.36572  0.73931  0.27542  1.0000
  C   C1200     1.0  0.35461  0.74964  0.21450  1.0000
  C   C1201     1.0  0.33593  0.76430  0.21141  1.0000
  C   C1202     1.0  0.24001  0.68000  0.43084  1.0000
  C   C1203     1.0  0.23553  0.91355  0.41216  1.0000
  H   H2123     1.0  0.27672  0.60811  0.44446  1.0000
  H   H2124     1.0  0.34339  0.74315  0.24560  1.0000
  H   H2125     1.0  0.35889  0.76008  0.23753  1.0000
  C   C1204     1.0  0.23950  0.78494  0.03051  1.0000
  H   H2126     1.0  0.29484  0.57789  0.03145  1.0000
  H   H2127     1.0  0.20717  0.60147  0.25169  1.0000
  H   H2128     1.0  0.35461  0.71297  0.26259  1.0000
  C   C1205     1.0  0.23788  0.69459  0.41435  1.0000
  H   H2129     1.0  0.22149  0.65805  0.46980  1.0000
  H   H2130     1.0  0.34461  0.69704  0.08508  1.0000
  C   C1206     1.0  0.35276  0.91472  0.27603  1.0000
  H   H2131     1.0  0.20287  0.88387  0.43618  1.0000
  H   H2132     1.0  0.22840  0.81688  0.43508  1.0000
  H   H2133     1.0  0.32230  0.91536  0.28834  1.0000
  S   S260      1.0  0.23630  0.84437  0.31892  1.0000
  H   H2134     1.0  0.33280  0.92991  0.29787  1.0000
  H   H2135     1.0  0.38776  0.89105  0.27617  1.0000
  C   C1207     1.0  0.25181  0.55897  0.28103  1.0000
  C   C1208     1.0  0.23300  0.55528  0.28566  1.0000
  C   C1209     1.0  0.26353  0.70746  0.41927  1.0000
  H   H2136     1.0  0.32091  0.62170  0.22056  1.0000
  H   H2137     1.0  0.22528  0.55292  0.30062  1.0000
  H   H2138     1.0  0.21204  0.64776  0.34309  1.0000
  C   C1210     1.0  0.26565  0.84994  0.43475  1.0000
  C   C1211     1.0  0.36190  0.70112  0.23712  1.0000
  C   C1212     1.0  0.22283  0.75089  0.43020  1.0000
  H   H2139     1.0  0.32689  0.76510  0.01918  1.0000
  H   H2140     1.0  0.24276  0.58415  0.00554  1.0000
  C   C1213     1.0  0.26140  0.77400  0.08586  1.0000
  C   C1214     1.0  0.22224  0.72720  0.03731  1.0000
  H   H2141     1.0  0.27174  0.87662  0.41587  1.0000
  C   C1215     1.0  0.25376  0.67913  0.44152  1.0000
  H   H2142     1.0  0.24481  0.84127  0.09035  1.0000
  C   C1216     1.0  0.30154  0.52159  0.29439  1.0000
  H   H2143     1.0  0.19861  0.74863  0.05088  1.0000
  H   H2144     1.0  0.36123  0.68560  0.30642  1.0000
  C   C1217     1.0  0.20133  0.73373  0.04852  1.0000
  H   H2145     1.0  0.31716  0.69996  0.16815  1.0000
  H   H2146     1.0  0.31203  0.67699  0.18245  1.0000
  C   C1218     1.0  0.29264  0.82025  0.08151  1.0000
  Fe  Fe131     1.0  0.20776  0.66865  0.41443  1.0000
  H   H2147     1.0  0.32083  0.73424  0.33736  1.0000
  Fe  Fe132     1.0  0.34504  0.53164  0.21347  1.0000
  H   H2148     1.0  0.37228  0.68324  0.15123  1.0000
  S   S261      1.0  0.19346  0.53737  0.37723  1.0000
  H   H2149     1.0  0.30248  0.80582  0.08254  1.0000
  H   H2150     1.0  0.24581  0.93816  0.42948  1.0000
  H   H2151     1.0  0.33967  0.78116  0.03804  1.0000
  H   H2152     1.0  0.32945  0.66172  0.15362  1.0000
  C   C1219     1.0  0.38719  0.57094  0.23140  1.0000
  H   H2153     1.0  0.26891  0.71470  0.04476  1.0000
  C   C1220     1.0  0.30356  0.60807  0.46714  1.0000
  H   H2154     1.0  0.25979  0.74807  0.03676  1.0000
  H   H2155     1.0  0.30258  0.68778  0.16062  1.0000
  C   C1221     1.0  0.27590  0.50764  0.28764  1.0000
  H   H2156     1.0  0.38752  0.74872  0.25035  1.0000
  C   C1222     1.0  0.21716  0.96997  0.35814  1.0000
  C   C1223     1.0  0.31517  0.68557  0.16742  1.0000
  H   H2157     1.0  0.26117  0.71485  0.07689  1.0000
  H   H2158     1.0  0.24671  0.75044  0.01883  1.0000
  H   H2159     1.0  0.36153  0.72554  0.28411  1.0000
  S   S262      1.0  0.19346  0.84494  0.36238  1.0000
  H   H2160     1.0  0.36844  0.67170  0.25407  1.0000
  H   H2161     1.0  0.32753  0.69549  0.12959  1.0000
  C   C1224     1.0  0.29264  0.81905  0.04812  1.0000
  H   H2162     1.0  0.24517  0.95073  0.30561  1.0000
  H   H2163     1.0  0.25414  0.78333  0.03340  1.0000
  S   S263      1.0  0.19868  0.93102  0.33978  1.0000
  H   H2164     1.0  0.36706  0.65276  0.14227  1.0000
  C   C1225     1.0  0.23374  0.72730  0.06675  1.0000
  H   H2165     1.0  0.21721  0.76896  0.03645  1.0000
  H   H2166     1.0  0.21392  0.60713  0.09275  1.0000
  C   C1226     1.0  0.26788  0.84307  0.06396  1.0000
  H   H2167     1.0  0.37382  0.80516  0.26752  1.0000
  C   C1227     1.0  0.35047  0.69494  0.18840  1.0000
  H   H2168     1.0  0.37414  0.69794  0.22501  1.0000
  C   C1228     1.0  0.27751  0.63451  0.47678  1.0000
  C   C1229     1.0  0.38476  0.74033  0.38471  1.0000
  C   C1230     1.0  0.23125  0.76682  0.04072  1.0000
  H   H2169     1.0  0.29728  0.85019  0.07611  1.0000
  C   C1231     1.0  0.33021  0.61526  0.20818  1.0000
  H   H2170     1.0  0.29147  0.98248  0.30164  1.0000
  H   H2171     1.0  0.25719  0.74067  0.06855  1.0000
  H   H2172     1.0  0.19038  0.81271  0.39449  1.0000
  H   H2173     1.0  0.30139  0.83044  0.04151  1.0000
  C   C1232     1.0  0.24997  0.72845  0.07648  1.0000
  H   H2174     1.0  0.22985  0.79772  0.03593  1.0000
  C   C1233     1.0  0.36316  0.80672  0.25841  1.0000
  C   C1234     1.0  0.20007  0.57436  0.36090  1.0000
  C   C1235     1.0  0.35996  0.65614  0.09713  1.0000
  H   H2175     1.0  0.36671  0.75581  0.20427  1.0000
  C   C1236     1.0  0.38260  0.67522  0.14052  1.0000
  C   C1237     1.0  0.36788  0.92777  0.27112  1.0000
  H   H2176     1.0  0.20229  0.66916  0.21505  1.0000
  C   C1238     1.0  0.36693  0.72177  0.17415  1.0000
  C   C1239     1.0  0.34692  0.66556  0.11417  1.0000
  H   H2177     1.0  0.31320  0.75759  0.36921  1.0000
  H   H2178     1.0  0.33720  0.71447  0.10040  1.0000
  H   H2179     1.0  0.33185  0.66142  0.38363  1.0000
  C   C1240     1.0  0.36756  0.71093  0.25073  1.0000
  H   H2180     1.0  0.26485  0.85007  0.09264  1.0000
  C   C1241     1.0  0.34880  0.64518  0.08996  1.0000
  C   C1242     1.0  0.35614  0.68189  0.24815  1.0000
  C   C1243     1.0  0.19304  0.94304  0.37446  1.0000
  H   H2181     1.0  0.25087  0.77681  0.07630  1.0000
  C   C1244     1.0  0.20270  0.59250  0.36190  1.0000
  H   H2182     1.0  0.30643  0.76613  0.34592  1.0000
  H   H2183     1.0  0.36436  0.80704  0.32515  1.0000
  H   H2184     1.0  0.33953  0.49130  0.16738  1.0000
  C   C1245     1.0  0.19982  0.67039  0.04779  1.0000
  C   C1246     1.0  0.36025  0.72002  0.07582  1.0000
  H   H2185     1.0  0.32693  0.84210  0.08897  1.0000
  H   H2186     1.0  0.21515  0.80338  0.37209  1.0000
  H   H2187     1.0  0.34540  0.69960  0.13960  1.0000
  H   H2188     1.0  0.33881  0.59858  0.44125  1.0000
  H   H2189     1.0  0.35779  0.80529  0.35112  1.0000
  C   C1247     1.0  0.25626  0.50709  0.25710  1.0000
  H   H2190     1.0  0.21488  0.75510  0.44418  1.0000
  H   H2191     1.0  0.21770  0.58509  0.98797  1.0000
  H   H2192     1.0  0.19671  0.61302  0.22030  1.0000
  H   H2193     1.0  0.36219  0.80128  0.23107  1.0000
  H   H2194     1.0  0.35795  0.66103  0.31530  1.0000
  H   H2195     1.0  0.34422  0.63308  0.10168  1.0000
  H   H2196     1.0  0.36438  0.72405  0.34457  1.0000
  C   C1248     1.0  0.20313  0.67714  0.02756  1.0000
  C   C1249     1.0  0.35195  0.67620  0.31723  1.0000
  H   H2197     1.0  0.23487  0.75886  0.42384  1.0000
  H   H2198     1.0  0.24280  0.48604  0.27987  1.0000
  C   C1250     1.0  0.21796  0.83928  0.26953  1.0000
  H   H2199     1.0  0.20828  0.91060  0.39558  1.0000
  H   H2200     1.0  0.19870  0.74551  0.42211  1.0000
  H   H2201     1.0  0.26963  0.93855  0.41446  1.0000
  H   H2202     1.0  0.25652  0.83925  0.43653  1.0000
  C   C1251     1.0  0.36786  0.68276  0.19226  1.0000
  H   H2203     1.0  0.37696  0.82877  0.22268  1.0000
  H   H2204     1.0  0.20870  0.65917  0.31862  1.0000
  H   H2205     1.0  0.33581  0.65508  0.08504  1.0000
  S   S264      1.0  0.36823  0.65824  0.20264  1.0000
  N   N70       1.0  0.35590  0.67791  0.12170  1.0000
  H   H2206     1.0  0.24118  0.92526  0.37261  1.0000
  C   C1252     1.0  0.38521  0.83352  0.28334  1.0000
  S   S265      1.0  0.20775  0.84722  0.40898  1.0000
  H   H2207     1.0  0.22417  0.83565  0.24017  1.0000
  H   H2208     1.0  0.32765  0.81656  0.09280  1.0000
  C   C1253     1.0  0.32548  0.73781  0.34918  1.0000
  N   N71       1.0  0.34597  0.70322  0.35926  1.0000
  C   C1254     1.0  0.20161  0.59693  0.37990  1.0000
  H   H2209     1.0  0.30434  0.49169  0.18648  1.0000
  Fe  Fe133     1.0  0.20092  0.63177  0.40748  1.0000
  H   H2210     1.0  0.21687  0.63116  0.07981  1.0000
  C   C1255     1.0  0.30917  0.75315  0.35751  1.0000
  S   S266      1.0  0.38172  0.76422  0.32839  1.0000
  H   H2211     1.0  0.25669  0.96917  0.27002  1.0000
  H   H2212     1.0  0.27784  0.57799  0.46804  1.0000
  H   H2213     1.0  0.37880  0.70020  0.25798  1.0000
  C   C1256     1.0  0.24057  0.50887  0.24590  1.0000
  H   H2214     1.0  0.35511  0.82202  0.25593  1.0000
  C   C1257     1.0  0.20210  0.65097  0.33283  1.0000
  S   S267      1.0  0.19568  0.65112  0.11941  1.0000
  H   H2215     1.0  0.20562  0.60312  0.34867  1.0000
  C   C1258     1.0  0.20188  0.94515  0.35479  1.0000
  H   H2216     1.0  0.28839  0.81391  0.00281  1.0000
  H   H2217     1.0  0.30234  0.93978  0.32754  1.0000
  H   H2218     1.0  0.19828  0.67484  0.00023  1.0000
  H   H2219     1.0  0.33943  0.57293  0.44632  1.0000
  H   H2220     1.0  0.23083  0.74484  0.09782  1.0000
  H   H2221     1.0  0.26985  0.93695  0.30368  1.0000
  H   H2222     1.0  0.35164  0.91020  0.26304  1.0000
  H   H2223     1.0  0.29873  0.97603  0.25461  1.0000
  H   H2224     1.0  0.33198  0.48698  0.13738  1.0000
  H   H2225     1.0  0.37725  0.76178  0.28089  1.0000
  C   C1259     1.0  0.37349  0.80078  0.23908  1.0000
  C   C1260     1.0  0.35159  0.48586  0.15602  1.0000
  C   C1261     1.0  0.19860  0.78032  0.37815  1.0000
  N   N72       1.0  0.26660  0.49064  0.28992  1.0000
  H   H2226     1.0  0.24869  0.62979  0.99423  1.0000
  C   C1262     1.0  0.38352  0.69664  0.34776  1.0000
  H   H2227     1.0  0.19250  0.70026  0.37108  1.0000
  H   H2228     1.0  0.38372  0.65810  0.12023  1.0000
  C   C1263     1.0  0.25825  0.48457  0.31130  1.0000
  H   H2229     1.0  0.38087  0.58605  0.23160  1.0000
  H   H2230     1.0  0.36319  0.73132  0.08180  1.0000
  H   H2231     1.0  0.38066  0.78304  0.17404  1.0000
  C   C1264     1.0  0.21359  0.59187  0.00087  1.0000
  H   H2232     1.0  0.19731  0.73388  0.35876  1.0000
  H   H2233     1.0  0.27000  0.49883  0.24995  1.0000
  H   H2234     1.0  0.37808  0.80516  0.19721  1.0000
  H   H2235     1.0  0.19012  0.78758  0.36656  1.0000
  H   H2236     1.0  0.23772  0.67344  0.99236  1.0000
  H   H2237     1.0  0.37407  0.71231  0.06807  1.0000
  H   H2238     1.0  0.35675  0.90148  0.28701  1.0000
  C   C1265     1.0  0.19812  0.58297  0.39691  1.0000
  N   N73       1.0  0.26890  0.97870  0.28930  1.0000
  H   H2239     1.0  0.23654  0.60747  0.99046  1.0000
  S   S268      1.0  0.19185  0.66402  0.44530  1.0000
  H   H2240     1.0  0.19863  0.58319  0.24550  1.0000
  H   H2241     1.0  0.38139  0.78561  0.24235  1.0000
  H   H2242     1.0  0.36268  0.79636  0.65990  1.0000
  H   H2243     1.0  0.33242  0.83245  0.61693  1.0000
  H   H2244     1.0  0.19367  0.83469  0.64290  1.0000
  H   H2245     1.0  0.34330  0.76277  0.69530  1.0000
  H   H2246     1.0  0.23501  0.67608  0.65681  1.0000
  H   H2247     1.0  0.28239  0.96428  0.67512  1.0000
  S   S269      1.0  0.29327  0.76992  0.94813  1.0000
  S   S270      1.0  0.34061  0.73751  0.93256  1.0000
  S   S271      1.0  0.22006  0.64376  0.96781  1.0000
  C   C1266     1.0  0.27953  0.77306  0.87209  1.0000
  C   C1267     1.0  0.28474  0.97508  0.78413  1.0000
  H   H2248     1.0  0.33069  0.92048  0.85874  1.0000
  H   H2249     1.0  0.22235  0.74546  0.65225  1.0000
  S   S272      1.0  0.30433  0.81621  0.95579  1.0000
  S   S273      1.0  0.20328  0.52671  0.71861  1.0000
  H   H2250     1.0  0.19622  0.76384  0.79102  1.0000
  Fe  Fe134     1.0  0.31048  0.89553  0.82173  1.0000
  S   S274      1.0  0.27854  0.89710  0.83220  1.0000
  S   S275      1.0  0.32536  0.92111  0.81399  1.0000
  Fe  Fe135     1.0  0.31857  0.85245  0.82096  1.0000
  S   S276      1.0  0.28725  0.85055  0.83153  1.0000
  S   S277      1.0  0.20362  0.50085  0.76352  1.0000
  Fe  Fe136     1.0  0.28148  0.87879  0.81073  1.0000
  S   S278      1.0  0.26066  0.88709  0.79048  1.0000
  Fe  Fe137     1.0  0.28700  0.86867  0.85228  1.0000
  S   S279      1.0  0.26884  0.86280  0.88246  1.0000
  S   S280      1.0  0.31285  0.87951  0.79836  1.0000
  S   S281      1.0  0.31889  0.86832  0.84360  1.0000
  Fe  Fe138     1.0  0.32260  0.71851  0.61050  1.0000
  S   S282      1.0  0.30275  0.73881  0.59164  1.0000
  S   S283      1.0  0.31951  0.68732  0.61785  1.0000
  Fe  Fe139     1.0  0.34407  0.74976  0.60994  1.0000
  S   S284      1.0  0.32578  0.77199  0.59076  1.0000
  H   H2251     1.0  0.22491  0.62477  0.90716  1.0000
  Fe  Fe140     1.0  0.30085  0.75963  0.61037  1.0000
  S   S285      1.0  0.27310  0.78037  0.61957  1.0000
  Fe  Fe141     1.0  0.32949  0.74911  0.57403  1.0000
  S   S286      1.0  0.33960  0.75373  0.54150  1.0000
  S   S287      1.0  0.31877  0.73860  0.63078  1.0000
  S   S288      1.0  0.34972  0.72749  0.59161  1.0000
  Fe  Fe142     1.0  0.24179  0.82658  0.70776  1.0000
  S   S289      1.0  0.21765  0.81458  0.72909  1.0000
  S   S290      1.0  0.26777  0.80415  0.69863  1.0000
  Fe  Fe143     1.0  0.21754  0.83649  0.74571  1.0000
  S   S291      1.0  0.21817  0.82730  0.77755  1.0000
  S   S292      1.0  0.24347  0.84660  0.72567  1.0000
  Fe  Fe144     1.0  0.28868  0.56643  0.85012  1.0000
  S   S293      1.0  0.31375  0.57275  0.82584  1.0000
  S   S294      1.0  0.26430  0.59149  0.85617  1.0000
  Fe  Fe145     1.0  0.31011  0.54702  0.81641  1.0000
  S   S295      1.0  0.30897  0.54596  0.78596  1.0000
  Fe  Fe146     1.0  0.33183  0.55109  0.84569  1.0000
  S   S296      1.0  0.20554  0.54690  0.75353  1.0000
  H   H2252     1.0  0.23436  0.93750  0.68940  1.0000
  S   S297      1.0  0.21291  0.65615  0.92338  1.0000
  S   S298      1.0  0.20547  0.65064  0.62161  1.0000
  Fe  Fe147     1.0  0.22023  0.65772  0.56542  1.0000
  S   S299      1.0  0.24240  0.64679  0.58452  1.0000
  S   S300      1.0  0.22795  0.66609  0.53251  1.0000
  Fe  Fe148     1.0  0.22121  0.62859  0.60360  1.0000
  S   S301      1.0  0.22997  0.59686  0.61669  1.0000
  Fe  Fe149     1.0  0.22477  0.66971  0.60111  1.0000
  S   S302      1.0  0.23323  0.69070  0.61376  1.0000
  H   H2253     1.0  0.26544  0.97734  0.69248  1.0000
  Fe  Fe150     1.0  0.22157  0.49982  0.73365  1.0000
  S   S303      1.0  0.24299  0.51605  0.73618  1.0000
  C   C1268     1.0  0.21061  0.76743  0.67798  1.0000
  H   H2254     1.0  0.21627  0.60878  0.51670  1.0000
  Fe  Fe151     1.0  0.22299  0.54304  0.72411  1.0000
  S   S304      1.0  0.23123  0.57129  0.70643  1.0000
  Fe  Fe152     1.0  0.22375  0.51877  0.76507  1.0000
  S   S305      1.0  0.23471  0.51339  0.79253  1.0000
  C   C1269     1.0  0.24191  0.77915  0.93196  1.0000
  H   H2255     1.0  0.20635  0.74042  0.93376  1.0000
  C   C1270     1.0  0.22515  0.93496  0.70366  1.0000
  H   H2256     1.0  0.19776  0.55016  0.89686  1.0000
  C   C1271     1.0  0.21984  0.91685  0.71125  1.0000
  C   C1272     1.0  0.22371  0.66159  0.49765  1.0000
  H   H2257     1.0  0.19740  0.56557  0.87347  1.0000
  C   C1273     1.0  0.22875  0.59000  0.64197  1.0000
  C   C1274     1.0  0.23121  0.57028  0.65093  1.0000
  C   C1275     1.0  0.23129  0.56436  0.67091  1.0000
  C   C1276     1.0  0.22926  0.57816  0.68191  1.0000
  C   C1277     1.0  0.22654  0.59788  0.67304  1.0000
  C   C1278     1.0  0.22610  0.60381  0.65316  1.0000
  H   H2258     1.0  0.33608  0.70218  0.96259  1.0000
  H   H2259     1.0  0.22438  0.61897  0.64638  1.0000
  C   C1279     1.0  0.28988  0.53496  0.78654  1.0000
  C   C1280     1.0  0.28074  0.53974  0.77065  1.0000
  C   C1281     1.0  0.26391  0.53290  0.77217  1.0000
  C   C1282     1.0  0.25631  0.52123  0.78957  1.0000
  C   C1283     1.0  0.26595  0.51579  0.80507  1.0000
  C   C1284     1.0  0.28290  0.52229  0.80337  1.0000
  H   H2260     1.0  0.28620  0.54934  0.75747  1.0000
  H   H2261     1.0  0.25656  0.53711  0.76010  1.0000
  H   H2262     1.0  0.26034  0.50654  0.81846  1.0000
  C   C1285     1.0  0.25591  0.59341  0.88051  1.0000
  C   C1286     1.0  0.26141  0.57834  0.89565  1.0000
  C   C1287     1.0  0.25401  0.58027  0.91503  1.0000
  C   C1288     1.0  0.24105  0.59721  0.91926  1.0000
  C   C1289     1.0  0.23537  0.61203  0.90408  1.0000
  C   C1290     1.0  0.24293  0.61025  0.88477  1.0000
  H   H2263     1.0  0.27113  0.56513  0.89247  1.0000
  H   H2264     1.0  0.25832  0.56864  0.92675  1.0000
  H   H2265     1.0  0.23845  0.62185  0.87310  1.0000
  C   C1291     1.0  0.29556  0.68731  0.61742  1.0000
  C   C1292     1.0  0.28065  0.70210  0.62361  1.0000
  C   C1293     1.0  0.26156  0.70267  0.62279  1.0000
  C   C1294     1.0  0.25724  0.68863  0.61551  1.0000
  C   C1295     1.0  0.27206  0.67361  0.60957  1.0000
  C   C1296     1.0  0.29127  0.67292  0.61053  1.0000
  H   H2266     1.0  0.28384  0.71317  0.62906  1.0000
  H   H2267     1.0  0.25018  0.71423  0.62757  1.0000
  H   H2268     1.0  0.26863  0.66271  0.60415  1.0000
  H   H2269     1.0  0.30283  0.66152  0.60562  1.0000
  C   C1297     1.0  0.32260  0.75653  0.52711  1.0000
  C   C1298     1.0  0.30268  0.76010  0.53479  1.0000
  C   C1299     1.0  0.28947  0.76242  0.52287  1.0000
  C   C1300     1.0  0.29613  0.76086  0.50334  1.0000
  C   C1301     1.0  0.20483  0.54046  0.83163  1.0000
  C   C1302     1.0  0.32923  0.75530  0.50751  1.0000
  H   H2270     1.0  0.29746  0.76132  0.54983  1.0000
  H   H2271     1.0  0.27407  0.76524  0.52883  1.0000
  S   S306      1.0  0.20447  0.68233  0.58048  1.0000
  H   H2272     1.0  0.20052  0.77703  0.68742  1.0000
  C   C1303     1.0  0.27159  0.78696  0.64155  1.0000
  C   C1304     1.0  0.26052  0.80497  0.64500  1.0000
  C   C1305     1.0  0.25882  0.81022  0.66272  1.0000
  C   C1306     1.0  0.26837  0.79752  0.67693  1.0000
  C   C1307     1.0  0.27939  0.77953  0.67349  1.0000
  C   C1308     1.0  0.28093  0.77423  0.65588  1.0000
  H   H2273     1.0  0.25339  0.81492  0.63387  1.0000
  H   H2274     1.0  0.25048  0.82424  0.66516  1.0000
  H   H2275     1.0  0.28662  0.76956  0.68454  1.0000
  H   H2276     1.0  0.28897  0.76011  0.65364  1.0000
  C   C1309     1.0  0.24814  0.87030  0.78835  1.0000
  C   C1310     1.0  0.23698  0.87574  0.77403  1.0000
  C   C1311     1.0  0.22771  0.86255  0.77093  1.0000
  C   C1312     1.0  0.22907  0.84391  0.78248  1.0000
  C   C1313     1.0  0.23971  0.83850  0.79729  1.0000
  C   C1314     1.0  0.24937  0.85168  0.80014  1.0000
  H   H2277     1.0  0.23567  0.89014  0.76502  1.0000
  H   H2278     1.0  0.21938  0.86693  0.75960  1.0000
  H   H2279     1.0  0.24080  0.82408  0.80625  1.0000
  H   H2280     1.0  0.25779  0.84742  0.81136  1.0000
  C   C1315     1.0  0.32085  0.80897  0.63922  1.0000
  H   H2281     1.0  0.23343  0.54912  0.67768  1.0000
  H   H2282     1.0  0.35224  0.66758  0.96205  1.0000
  H   H2283     1.0  0.23325  0.55954  0.64235  1.0000
  Fe  Fe153     1.0  0.21631  0.67103  0.94528  1.0000
  C   C1316     1.0  0.35323  0.83858  0.77802  1.0000
  C   C1317     1.0  0.36418  0.83658  0.75948  1.0000
  H   H2284     1.0  0.34389  0.85229  0.78010  1.0000
  H   H2285     1.0  0.36307  0.84877  0.74734  1.0000
  H   H2286     1.0  0.26916  0.62476  0.50852  1.0000
  C   C1318     1.0  0.26081  0.71963  0.96113  1.0000
  C   C1319     1.0  0.25973  0.70557  0.95167  1.0000
  C   C1320     1.0  0.24173  0.70203  0.95170  1.0000
  H   H2287     1.0  0.27470  0.72261  0.96061  1.0000
  H   H2288     1.0  0.27285  0.69768  0.94398  1.0000
  C   C1321     1.0  0.19472  0.58520  0.82206  1.0000
  C   C1322     1.0  0.29534  0.82704  0.93442  1.0000
  C   C1323     1.0  0.27587  0.82834  0.93444  1.0000
  C   C1324     1.0  0.26802  0.83922  0.91828  1.0000
  C   C1325     1.0  0.27970  0.84824  0.90176  1.0000
  C   C1326     1.0  0.29937  0.84638  0.90141  1.0000
  C   C1327     1.0  0.30711  0.83601  0.91786  1.0000
  H   H2289     1.0  0.26667  0.82170  0.94729  1.0000
  H   H2290     1.0  0.25276  0.84089  0.91868  1.0000
  H   H2291     1.0  0.30845  0.85341  0.88876  1.0000
  H   H2292     1.0  0.32214  0.83517  0.91787  1.0000
  H   H2293     1.0  0.21591  0.80553  0.67257  1.0000
  H   H2294     1.0  0.27623  0.72011  0.50060  1.0000
  C   C1328     1.0  0.35036  0.71287  0.93333  1.0000
  C   C1329     1.0  0.34618  0.69838  0.94974  1.0000
  H   H2295     1.0  0.27143  0.84710  0.68481  1.0000
  C   C1330     1.0  0.37413  0.72665  0.97081  1.0000
  H   H2296     1.0  0.38880  0.80162  0.55044  1.0000
  C   C1331     1.0  0.30537  0.83058  0.66187  1.0000
  C   C1332     1.0  0.25575  0.57215  0.49337  1.0000
  C   C1333     1.0  0.31680  0.97256  0.83002  1.0000
  C   C1334     1.0  0.32510  0.95611  0.82171  1.0000
  C   C1335     1.0  0.31429  0.94204  0.82372  1.0000
  C   C1336     1.0  0.29498  0.94483  0.83351  1.0000
  C   C1337     1.0  0.28663  0.96138  0.84157  1.0000
  H   H2297     1.0  0.34595  0.59237  0.83111  1.0000
  H   H2298     1.0  0.34008  0.95402  0.81415  1.0000
  H   H2299     1.0  0.28645  0.93430  0.83477  1.0000
  H   H2300     1.0  0.27161  0.96356  0.84892  1.0000
  C   C1338     1.0  0.24339  0.74680  0.91286  1.0000
  H   H2301     1.0  0.28611  0.76029  0.90934  1.0000
  C   C1339     1.0  0.24387  0.73047  0.97035  1.0000
  C   C1340     1.0  0.20604  0.94680  0.73248  1.0000
  C   C1341     1.0  0.27590  0.75022  0.91305  1.0000
  C   C1342     1.0  0.28725  0.73071  0.90729  1.0000
  H   H2302     1.0  0.36289  0.63351  0.78837  1.0000
  H   H2303     1.0  0.23880  0.78806  0.90182  1.0000
  C   C1343     1.0  0.22291  0.76091  0.64529  1.0000
  H   H2304     1.0  0.25140  0.64455  0.68903  1.0000
  C   C1344     1.0  0.30522  0.72287  0.91628  1.0000
  H   H2305     1.0  0.20192  0.59725  0.78171  1.0000
  H   H2306     1.0  0.34755  0.80261  0.86079  1.0000
  H   H2307     1.0  0.38276  0.69816  0.83080  1.0000
  H   H2308     1.0  0.23083  0.67685  0.68211  1.0000
  C   C1345     1.0  0.19218  0.57681  0.91764  1.0000
  Fe  Fe154     1.0  0.31811  0.74699  0.95737  1.0000
  H   H2309     1.0  0.34126  0.69450  0.50074  1.0000
  C   C1346     1.0  0.37807  0.80326  0.77232  1.0000
  H   H2310     1.0  0.28492  0.86597  0.93764  1.0000
  H   H2311     1.0  0.27201  0.74714  0.92917  1.0000
  H   H2312     1.0  0.29214  0.73233  0.89134  1.0000
  H   H2313     1.0  0.27820  0.71958  0.91249  1.0000
  S   S307      1.0  0.38056  0.65013  0.93161  1.0000
  H   H2314     1.0  0.26053  0.97159  0.91391  1.0000
  H   H2315     1.0  0.25341  0.77226  0.94043  1.0000
  H   H2316     1.0  0.19088  0.80842  0.67256  1.0000
  C   C1347     1.0  0.20929  0.74141  0.91782  1.0000
  H   H2317     1.0  0.24593  0.80801  0.93071  1.0000
  Fe  Fe155     1.0  0.27510  0.75535  0.97503  1.0000
  H   H2318     1.0  0.19092  0.79532  0.72385  1.0000
  S   S308      1.0  0.27936  0.76258  0.48906  1.0000
  H   H2319     1.0  0.30135  0.72131  0.93232  1.0000
  H   H2320     1.0  0.31254  0.70837  0.91303  1.0000
  H   H2321     1.0  0.31555  0.73278  0.91019  1.0000
  H   H2322     1.0  0.28606  0.76132  0.84589  1.0000
  H   H2323     1.0  0.22106  0.73475  0.62306  1.0000
  C   C1348     1.0  0.26667  0.97064  0.79916  1.0000
  H   H2324     1.0  0.20652  0.75302  0.68414  1.0000
  H   H2325     1.0  0.34530  0.77590  0.66066  1.0000
  C   C1349     1.0  0.21816  0.62360  0.51137  1.0000
  H   H2326     1.0  0.25958  0.73990  0.58901  1.0000
  C   C1350     1.0  0.28253  0.77563  0.85008  1.0000
  H   H2327     1.0  0.38358  0.56598  0.87166  1.0000
  C   C1351     1.0  0.21839  0.94986  0.71428  1.0000
  H   H2328     1.0  0.22235  0.96383  0.70820  1.0000
  C   C1352     1.0  0.33064  0.77700  0.66985  1.0000
  H   H2329     1.0  0.33300  0.79710  0.63503  1.0000
  H   H2330     1.0  0.19306  0.64725  0.67084  1.0000
  H   H2331     1.0  0.19562  0.51551  0.82834  1.0000
  N   N74       1.0  0.20416  0.57326  0.80664  1.0000
  C   C1353     1.0  0.23392  0.66707  0.67176  1.0000
  H   H2332     1.0  0.30844  0.97483  0.74891  1.0000
  H   H2333     1.0  0.37027  0.68640  0.79894  1.0000
  C   C1354     1.0  0.22485  0.71179  0.96219  1.0000
  H   H2334     1.0  0.37661  0.78393  0.91492  1.0000
  H   H2335     1.0  0.30601  0.84400  0.65041  1.0000
  H   H2336     1.0  0.34391  0.76479  0.89709  1.0000
  H   H2337     1.0  0.22619  0.67622  0.49215  1.0000
  H   H2338     1.0  0.20381  0.89974  0.73571  1.0000
  H   H2339     1.0  0.26178  0.78792  0.90571  1.0000
  S   S309      1.0  0.22817  0.89871  0.69722  1.0000
  C   C1355     1.0  0.19032  0.60763  0.81502  1.0000
  H   H2340     1.0  0.26570  0.74837  0.87834  1.0000
  H   H2341     1.0  0.32743  0.94078  0.75536  1.0000
  C   C1356     1.0  0.23417  0.79970  0.93561  1.0000
  H   H2342     1.0  0.33800  0.54255  0.90294  1.0000
  H   H2343     1.0  0.29469  0.62436  0.50001  1.0000
  N   N75       1.0  0.30664  0.60897  0.89175  1.0000
  C   C1357     1.0  0.28774  0.62083  0.90061  1.0000
  C   C1358     1.0  0.30622  0.60787  0.87136  1.0000
  C   C1359     1.0  0.30852  0.58865  0.90399  1.0000
  C   C1360     1.0  0.32400  0.61661  0.89184  1.0000
  C   C1361     1.0  0.32422  0.63799  0.88172  1.0000
  C   C1362     1.0  0.28556  0.62253  0.92192  1.0000
  C   C1363     1.0  0.32597  0.57335  0.89621  1.0000
  C   C1364     1.0  0.29545  0.62612  0.85890  1.0000
  C   C1365     1.0  0.30042  0.62494  0.83746  1.0000
  C   C1366     1.0  0.34055  0.64473  0.88607  1.0000
  C   C1367     1.0  0.26704  0.63689  0.92823  1.0000
  C   C1368     1.0  0.32577  0.55326  0.90927  1.0000
  H   H2344     1.0  0.27547  0.61461  0.90013  1.0000
  H   H2345     1.0  0.28497  0.63582  0.89200  1.0000
  H   H2346     1.0  0.32122  0.60388  0.86307  1.0000
  H   H2347     1.0  0.29896  0.59599  0.87172  1.0000
  H   H2348     1.0  0.29509  0.58316  0.90583  1.0000
  H   H2349     1.0  0.31000  0.58851  0.91887  1.0000
  H   H2350     1.0  0.32603  0.61443  0.90696  1.0000
  H   H2351     1.0  0.33752  0.60812  0.88435  1.0000
  H   H2352     1.0  0.31053  0.64791  0.88655  1.0000
  H   H2353     1.0  0.32700  0.63943  0.86573  1.0000
  H   H2354     1.0  0.28455  0.60834  0.93197  1.0000
  H   H2355     1.0  0.29789  0.62770  0.92374  1.0000
  H   H2356     1.0  0.33995  0.57704  0.89571  1.0000
  H   H2357     1.0  0.32563  0.57226  0.88140  1.0000
  H   H2358     1.0  0.27953  0.62729  0.86399  1.0000
  H   H2359     1.0  0.29891  0.63969  0.85984  1.0000
  H   H2360     1.0  0.29653  0.61186  0.83563  1.0000
  H   H2361     1.0  0.29209  0.63789  0.82906  1.0000
  H   H2362     1.0  0.31613  0.62439  0.83149  1.0000
  H   H2363     1.0  0.34107  0.65975  0.87780  1.0000
  H   H2364     1.0  0.33813  0.64463  0.90182  1.0000
  H   H2365     1.0  0.35476  0.63520  0.88167  1.0000
  C   C1369     1.0  0.21101  0.79496  0.64873  1.0000
  H   H2366     1.0  0.26548  0.63753  0.94366  1.0000
  H   H2367     1.0  0.26746  0.65168  0.91924  1.0000
  C   C1370     1.0  0.25357  0.70890  0.49639  1.0000
  H   H2368     1.0  0.36688  0.76746  0.83671  1.0000
  H   H2369     1.0  0.37622  0.49127  0.81300  1.0000
  H   H2370     1.0  0.22370  0.77990  0.70547  1.0000
  H   H2371     1.0  0.37432  0.75932  0.91742  1.0000
  H   H2372     1.0  0.30145  0.82452  0.69399  1.0000
  C   C1371     1.0  0.26257  0.76254  0.88283  1.0000
  H   H2373     1.0  0.37511  0.66392  0.77590  1.0000
  H   H2374     1.0  0.29333  0.76467  0.87633  1.0000
  H   H2375     1.0  0.29765  0.92826  0.77317  1.0000
  H   H2376     1.0  0.22483  0.60855  0.68159  1.0000
  S   S310      1.0  0.29917  0.49315  0.87363  1.0000
  C   C1372     1.0  0.32964  0.70487  0.50821  1.0000
  H   H2377     1.0  0.37658  0.72821  0.51932  1.0000
  C   C1373     1.0  0.25019  0.77934  0.91005  1.0000
  H   H2378     1.0  0.23705  0.76287  0.61471  1.0000
  H   H2379     1.0  0.36063  0.80378  0.63459  1.0000
  C   C1374     1.0  0.20474  0.83007  0.65211  1.0000
  H   H2380     1.0  0.21451  0.77930  0.61778  1.0000
  H   H2381     1.0  0.26931  0.78456  0.84485  1.0000
  H   H2382     1.0  0.22033  0.62719  0.53933  1.0000
  C   C1375     1.0  0.31991  0.81725  0.60339  1.0000
  H   H2383     1.0  0.30752  0.80291  0.64245  1.0000
  H   H2384     1.0  0.30699  0.79707  0.68184  1.0000
  H   H2385     1.0  0.29177  0.82617  0.66204  1.0000
  H   H2386     1.0  0.30626  0.83639  0.62295  1.0000
  H   H2387     1.0  0.28942  0.93569  0.70155  1.0000
  H   H2388     1.0  0.31872  0.82920  0.59045  1.0000
  H   H2389     1.0  0.33364  0.80666  0.60001  1.0000
  H   H2390     1.0  0.30743  0.81001  0.60645  1.0000
  H   H2391     1.0  0.28534  0.86571  0.67297  1.0000
  C   C1376     1.0  0.36126  0.61133  0.83701  1.0000
  H   H2392     1.0  0.24886  0.73281  0.90790  1.0000
  C   C1377     1.0  0.22599  0.56934  0.80365  1.0000
  H   H2393     1.0  0.26380  0.69735  0.48934  1.0000
  H   H2394     1.0  0.33651  0.90471  0.88111  1.0000
  Fe  Fe156     1.0  0.19809  0.83847  0.71283  1.0000
  C   C1378     1.0  0.23542  0.58732  0.79753  1.0000
  C   C1379     1.0  0.25752  0.58144  0.79320  1.0000
  C   C1380     1.0  0.22198  0.76440  0.62343  1.0000
  H   H2395     1.0  0.22444  0.75683  0.89154  1.0000
  C   C1381     1.0  0.30276  0.83686  0.68142  1.0000
  H   H2396     1.0  0.23094  0.56107  0.81724  1.0000
  H   H2397     1.0  0.23266  0.55999  0.79272  1.0000
  H   H2398     1.0  0.20374  0.58149  0.83329  1.0000
  H   H2399     1.0  0.25415  0.63230  0.92685  1.0000
  C   C1382     1.0  0.20789  0.91366  0.72966  1.0000
  H   H2400     1.0  0.30551  0.90814  0.76097  1.0000
  C   C1383     1.0  0.38906  0.74749  0.67189  1.0000
  H   H2401     1.0  0.20535  0.78366  0.79385  1.0000
  H   H2402     1.0  0.23113  0.59721  0.78428  1.0000
  H   H2403     1.0  0.23131  0.59528  0.80958  1.0000
  H   H2404     1.0  0.26260  0.57519  0.77996  1.0000
  H   H2405     1.0  0.26395  0.59436  0.79060  1.0000
  H   H2406     1.0  0.26281  0.57065  0.80558  1.0000
  H   H2407     1.0  0.36040  0.73307  0.64994  1.0000
  H   H2408     1.0  0.21543  0.72664  0.91473  1.0000
  H   H2409     1.0  0.23785  0.76215  0.64521  1.0000
  H   H2410     1.0  0.31203  0.54873  0.91042  1.0000
  H   H2411     1.0  0.33821  0.89472  0.86033  1.0000
  C   C1384     1.0  0.22352  0.65296  0.51732  1.0000
  S   S311      1.0  0.24077  0.68720  0.93656  1.0000
  C   C1385     1.0  0.33961  0.79100  0.86243  1.0000
  C   C1386     1.0  0.37019  0.74112  0.65169  1.0000
  C   C1387     1.0  0.19798  0.55392  0.81327  1.0000
  C   C1388     1.0  0.32127  0.79487  0.87848  1.0000
  C   C1389     1.0  0.30727  0.81337  0.87143  1.0000
  H   H2412     1.0  0.27741  0.65055  0.51811  1.0000
  H   H2413     1.0  0.33314  0.76246  0.85253  1.0000
  C   C1390     1.0  0.28006  0.63240  0.49783  1.0000
  H   H2414     1.0  0.33502  0.79378  0.84833  1.0000
  H   H2415     1.0  0.24951  0.72151  0.48479  1.0000
  C   C1391     1.0  0.28443  0.85250  0.68463  1.0000
  H   H2416     1.0  0.26305  0.66144  0.49984  1.0000
  H   H2417     1.0  0.37036  0.74130  0.97429  1.0000
  C   C1392     1.0  0.23139  0.76554  0.70206  1.0000
  H   H2418     1.0  0.31326  0.78295  0.88304  1.0000
  H   H2419     1.0  0.32540  0.79663  0.89154  1.0000
  H   H2420     1.0  0.30251  0.81216  0.85852  1.0000
  H   H2421     1.0  0.29426  0.81578  0.88310  1.0000
  H   H2422     1.0  0.31428  0.82607  0.86753  1.0000
  H   H2423     1.0  0.26055  0.95583  0.68816  1.0000
  H   H2424     1.0  0.35098  0.49049  0.81804  1.0000
  H   H2425     1.0  0.25044  0.75019  0.56695  1.0000
  N   N76       1.0  0.32203  0.79879  0.75288  1.0000
  C   C1393     1.0  0.30449  0.79921  0.74518  1.0000
  C   C1394     1.0  0.33819  0.80352  0.73590  1.0000
  C   C1395     1.0  0.32768  0.77880  0.76495  1.0000
  C   C1396     1.0  0.31768  0.81349  0.76548  1.0000
  C   C1397     1.0  0.31083  0.83489  0.75550  1.0000
  C   C1398     1.0  0.28504  0.79966  0.76027  1.0000
  C   C1399     1.0  0.34641  0.77498  0.77297  1.0000
  C   C1400     1.0  0.34682  0.78806  0.72313  1.0000
  C   C1401     1.0  0.36210  0.79483  0.70565  1.0000
  C   C1402     1.0  0.30189  0.84765  0.77052  1.0000
  C   C1403     1.0  0.26901  0.79732  0.75158  1.0000
  C   C1404     1.0  0.35244  0.75360  0.78224  1.0000
  H   H2426     1.0  0.30688  0.78634  0.73866  1.0000
  H   H2427     1.0  0.30220  0.81183  0.73296  1.0000
  H   H2428     1.0  0.33308  0.81740  0.72612  1.0000
  H   H2429     1.0  0.35026  0.80633  0.74085  1.0000
  H   H2430     1.0  0.32917  0.76745  0.75664  1.0000
  H   H2431     1.0  0.31599  0.77587  0.77784  1.0000
  H   H2432     1.0  0.30690  0.80958  0.77899  1.0000
  H   H2433     1.0  0.33083  0.81330  0.77067  1.0000
  H   H2434     1.0  0.29983  0.83653  0.74683  1.0000
  H   H2435     1.0  0.32342  0.84059  0.74563  1.0000
  H   H2436     1.0  0.28636  0.78789  0.77327  1.0000
  H   H2437     1.0  0.28017  0.81372  0.76508  1.0000
  H   H2438     1.0  0.34389  0.78343  0.78437  1.0000
  H   H2439     1.0  0.35878  0.77896  0.76141  1.0000
  H   H2440     1.0  0.35399  0.77427  0.73149  1.0000
  H   H2441     1.0  0.33532  0.78502  0.71762  1.0000
  H   H2442     1.0  0.35589  0.80865  0.69660  1.0000
  C   C1405     1.0  0.38026  0.78748  0.84226  1.0000
  H   H2443     1.0  0.36773  0.78365  0.69658  1.0000
  H   H2444     1.0  0.29829  0.86308  0.76311  1.0000
  H   H2445     1.0  0.28834  0.84339  0.77969  1.0000
  H   H2446     1.0  0.31207  0.84624  0.78005  1.0000
  H   H2447     1.0  0.25509  0.79873  0.76231  1.0000
  H   H2448     1.0  0.26719  0.80875  0.73839  1.0000
  H   H2449     1.0  0.27239  0.78290  0.74767  1.0000
  H   H2450     1.0  0.34072  0.74882  0.79430  1.0000
  H   H2451     1.0  0.35595  0.74446  0.77122  1.0000
  H   H2452     1.0  0.36560  0.75149  0.78822  1.0000
  N   N77       1.0  0.27681  0.93308  0.74155  1.0000
  C   C1406     1.0  0.26904  0.94840  0.72547  1.0000
  C   C1407     1.0  0.26363  0.93588  0.76081  1.0000
  C   C1408     1.0  0.27944  0.91268  0.73859  1.0000
  C   C1409     1.0  0.26508  0.90873  0.72825  1.0000
  C   C1410     1.0  0.24200  0.93572  0.76315  1.0000
  C   C1411     1.0  0.23032  0.94022  0.78273  1.0000
  C   C1412     1.0  0.26904  0.88722  0.72771  1.0000
  H   H2453     1.0  0.26552  0.96294  0.72925  1.0000
  H   H2454     1.0  0.25512  0.94614  0.72382  1.0000
  H   H2455     1.0  0.26862  0.92440  0.77289  1.0000
  H   H2456     1.0  0.26427  0.94989  0.76389  1.0000
  H   H2457     1.0  0.29411  0.90802  0.72987  1.0000
  H   H2458     1.0  0.27904  0.90224  0.75277  1.0000
  H   H2459     1.0  0.26659  0.91685  0.71298  1.0000
  H   H2460     1.0  0.24983  0.91300  0.73546  1.0000
  H   H2461     1.0  0.23548  0.94668  0.75173  1.0000
  H   H2462     1.0  0.24024  0.92121  0.76290  1.0000
  H   H2463     1.0  0.23584  0.92923  0.79487  1.0000
  H   H2464     1.0  0.23104  0.95487  0.78396  1.0000
  H   H2465     1.0  0.21490  0.93985  0.78401  1.0000
  H   H2466     1.0  0.28356  0.88282  0.71871  1.0000
  H   H2467     1.0  0.26832  0.87810  0.74257  1.0000
  H   H2468     1.0  0.25798  0.88454  0.72126  1.0000
  H   H2469     1.0  0.32746  0.55324  0.92403  1.0000
  C   C1413     1.0  0.22062  0.77124  0.76933  1.0000
  H   H2470     1.0  0.33421  0.50379  0.87764  1.0000
  N   N78       1.0  0.27588  0.91802  0.89586  1.0000
  C   C1414     1.0  0.26605  0.93492  0.90568  1.0000
  C   C1415     1.0  0.27566  0.89954  0.91111  1.0000
  C   C1416     1.0  0.29633  0.92021  0.88610  1.0000
  C   C1417     1.0  0.26544  0.91733  0.88070  1.0000
  C   C1418     1.0  0.24351  0.91724  0.88769  1.0000
  C   C1419     1.0  0.26250  0.95515  0.89205  1.0000
  C   C1420     1.0  0.30877  0.90380  0.87553  1.0000
  C   C1421     1.0  0.28940  0.89548  0.92550  1.0000
  C   C1422     1.0  0.28474  0.87908  0.94275  1.0000
  C   C1423     1.0  0.23468  0.91643  0.87105  1.0000
  C   C1424     1.0  0.25192  0.97091  0.90360  1.0000
  C   C1425     1.0  0.32982  0.90613  0.86857  1.0000
  H   H2471     1.0  0.27479  0.93613  0.91562  1.0000
  H   H2472     1.0  0.25189  0.93250  0.91517  1.0000
  H   H2473     1.0  0.26075  0.89942  0.91993  1.0000
  H   H2474     1.0  0.27925  0.88673  0.90428  1.0000
  H   H2475     1.0  0.30415  0.92190  0.89666  1.0000
  H   H2476     1.0  0.29630  0.93376  0.87482  1.0000
  H   H2477     1.0  0.26731  0.92952  0.86802  1.0000
  H   H2478     1.0  0.27201  0.90399  0.87472  1.0000
  H   H2479     1.0  0.23546  0.93048  0.89325  1.0000
  H   H2480     1.0  0.24110  0.90436  0.89936  1.0000
  H   H2481     1.0  0.27642  0.95916  0.88376  1.0000
  H   H2482     1.0  0.25353  0.95557  0.88167  1.0000
  H   H2483     1.0  0.30324  0.90435  0.86248  1.0000
  H   H2484     1.0  0.30865  0.88925  0.88503  1.0000
  H   H2485     1.0  0.30467  0.89107  0.91810  1.0000
  H   H2486     1.0  0.28825  0.90838  0.93140  1.0000
  H   H2487     1.0  0.22172  0.65948  0.67506  1.0000
  C   C1426     1.0  0.34934  0.49965  0.87990  1.0000
  H   H2488     1.0  0.29572  0.87532  0.95198  1.0000
  H   H2489     1.0  0.23672  0.92900  0.85882  1.0000
  H   H2490     1.0  0.24150  0.90278  0.86572  1.0000
  H   H2491     1.0  0.21892  0.91680  0.87624  1.0000
  C   C1427     1.0  0.38237  0.59656  0.85993  1.0000
  S   S312      1.0  0.38088  0.66652  0.87709  1.0000
  H   H2492     1.0  0.19771  0.58136  0.95258  1.0000
  S   S313      1.0  0.19607  0.96544  0.74578  1.0000
  H   H2493     1.0  0.38306  0.68551  0.90399  1.0000
  H   H2494     1.0  0.29474  0.78318  0.84284  1.0000
  N   N79       1.0  0.27524  0.62241  0.66104  1.0000
  C   C1428     1.0  0.27637  0.60960  0.64729  1.0000
  C   C1429     1.0  0.27274  0.61097  0.68184  1.0000
  C   C1430     1.0  0.25749  0.63846  0.65947  1.0000
  C   C1431     1.0  0.29261  0.63179  0.65583  1.0000
  C   C1432     1.0  0.31282  0.61827  0.65332  1.0000
  C   C1433     1.0  0.27683  0.61972  0.62568  1.0000
  C   C1434     1.0  0.25287  0.65247  0.67368  1.0000
  C   C1435     1.0  0.28230  0.58904  0.68529  1.0000
  C   C1436     1.0  0.28121  0.58031  0.70696  1.0000
  C   C1437     1.0  0.32879  0.63008  0.64645  1.0000
  C   C1438     1.0  0.28136  0.60483  0.61287  1.0000
  H   H2495     1.0  0.36293  0.72548  0.96356  1.0000
  H   H2496     1.0  0.26377  0.60236  0.65213  1.0000
  H   H2497     1.0  0.28915  0.59749  0.64775  1.0000
  H   H2498     1.0  0.27787  0.61782  0.69110  1.0000
  H   H2499     1.0  0.25707  0.61124  0.68834  1.0000
  H   H2500     1.0  0.24450  0.63220  0.66162  1.0000
  H   H2501     1.0  0.25889  0.64783  0.64466  1.0000
  H   H2502     1.0  0.29212  0.64309  0.64230  1.0000
  H   H2503     1.0  0.29218  0.63976  0.66712  1.0000
  H   H2504     1.0  0.31480  0.60949  0.64232  1.0000
  H   H2505     1.0  0.31506  0.60861  0.66740  1.0000
  H   H2506     1.0  0.26245  0.62899  0.62388  1.0000
  H   H2507     1.0  0.28798  0.62876  0.62018  1.0000
  H   H2508     1.0  0.26442  0.66091  0.67040  1.0000
  H   H2509     1.0  0.19532  0.74700  0.91287  1.0000
  H   H2510     1.0  0.27450  0.58100  0.67977  1.0000
  H   H2511     1.0  0.29769  0.58634  0.67788  1.0000
  H   H2512     1.0  0.28957  0.58711  0.71317  1.0000
  H   H2513     1.0  0.26590  0.58233  0.71499  1.0000
  C   C1439     1.0  0.37258  0.69326  0.82502  1.0000
  H   H2514     1.0  0.32786  0.63902  0.65705  1.0000
  H   H2515     1.0  0.34321  0.62017  0.64496  1.0000
  H   H2516     1.0  0.32757  0.63982  0.63208  1.0000
  H   H2517     1.0  0.29630  0.59611  0.61276  1.0000
  H   H2518     1.0  0.27092  0.59495  0.61823  1.0000
  H   H2519     1.0  0.28015  0.61235  0.59775  1.0000
  C   C1440     1.0  0.36858  0.67410  0.93278  1.0000
  H   H2520     1.0  0.38856  0.70264  0.94442  1.0000
  H   H2521     1.0  0.22983  0.77126  0.93779  1.0000
  H   H2522     1.0  0.38146  0.75673  0.85457  1.0000
  C   C1441     1.0  0.23139  0.76531  0.68111  1.0000
  H   H2523     1.0  0.37663  0.78935  0.57360  1.0000
  H   H2524     1.0  0.21913  0.83180  0.64290  1.0000
  H   H2525     1.0  0.19007  0.49634  0.68206  1.0000
  C   C1442     1.0  0.36689  0.80519  0.79083  1.0000
  H   H2526     1.0  0.33567  0.70965  0.51834  1.0000
  H   H2527     1.0  0.35753  0.51071  0.87041  1.0000
  H   H2528     1.0  0.19754  0.75029  0.62702  1.0000
  C   C1443     1.0  0.22592  0.72616  0.97137  1.0000
  H   H2529     1.0  0.26939  0.95520  0.80671  1.0000
  H   H2530     1.0  0.26594  0.56426  0.50320  1.0000
  H   H2531     1.0  0.29672  0.97244  0.79192  1.0000
  H   H2532     1.0  0.21092  0.70899  0.96239  1.0000
  C   C1444     1.0  0.22322  0.75508  0.90739  1.0000
  C   C1445     1.0  0.21854  0.63218  0.49165  1.0000
  H   H2533     1.0  0.37219  0.72522  0.68078  1.0000
  C   C1446     1.0  0.37720  0.57866  0.86208  1.0000
  H   H2534     1.0  0.23833  0.77712  0.67141  1.0000
  H   H2535     1.0  0.19329  0.80532  0.76625  1.0000
  C   C1447     1.0  0.27208  0.96266  0.68932  1.0000
  H   H2536     1.0  0.19972  0.63695  0.88601  1.0000
  H   H2537     1.0  0.19746  0.64196  0.73606  1.0000
  C   C1448     1.0  0.36345  0.70793  0.91689  1.0000
  H   H2538     1.0  0.30774  0.60370  0.48154  1.0000
  N   N80       1.0  0.35233  0.77106  0.86582  1.0000
  H   H2539     1.0  0.22217  0.80729  0.92785  1.0000
  N   N81       1.0  0.27816  0.70176  0.54062  1.0000
  C   C1449     1.0  0.26826  0.69785  0.52652  1.0000
  C   C1450     1.0  0.28207  0.68380  0.55628  1.0000
  C   C1451     1.0  0.26437  0.71749  0.55032  1.0000
  C   C1452     1.0  0.29657  0.70893  0.53051  1.0000
  C   C1453     1.0  0.31260  0.69516  0.51918  1.0000
  C   C1454     1.0  0.26306  0.71502  0.50970  1.0000
  C   C1455     1.0  0.27080  0.72242  0.56699  1.0000
  C   C1456     1.0  0.28700  0.66382  0.55031  1.0000
  C   C1457     1.0  0.29583  0.64755  0.56547  1.0000
  C   C1458     1.0  0.25457  0.73646  0.57733  1.0000
  H   H2540     1.0  0.25465  0.69277  0.53458  1.0000
  H   H2541     1.0  0.27725  0.68592  0.51937  1.0000
  H   H2542     1.0  0.29388  0.68460  0.56305  1.0000
  H   H2543     1.0  0.26910  0.68309  0.56836  1.0000
  H   H2544     1.0  0.24989  0.71351  0.55630  1.0000
  H   H2545     1.0  0.26201  0.73139  0.53960  1.0000
  H   H2546     1.0  0.29332  0.72309  0.52045  1.0000
  H   H2547     1.0  0.30339  0.71193  0.54117  1.0000
  C   C1459     1.0  0.19839  0.58268  0.78731  1.0000
  H   H2548     1.0  0.31842  0.68214  0.52945  1.0000
  H   H2549     1.0  0.25265  0.72735  0.51524  1.0000
  H   H2550     1.0  0.28346  0.72949  0.56117  1.0000
  H   H2551     1.0  0.27478  0.70937  0.57811  1.0000
  H   H2552     1.0  0.27349  0.66036  0.54888  1.0000
  H   H2553     1.0  0.29732  0.66355  0.53627  1.0000
  H   H2554     1.0  0.30961  0.65021  0.56712  1.0000
  H   H2555     1.0  0.28564  0.64640  0.57971  1.0000
  H   H2556     1.0  0.29891  0.63352  0.56083  1.0000
  H   H2557     1.0  0.24169  0.72980  0.58409  1.0000
  S   S314      1.0  0.20038  0.63774  0.58323  1.0000
  H   H2558     1.0  0.24965  0.77119  0.87683  1.0000
  H   H2559     1.0  0.20716  0.57432  0.77605  1.0000
  H   H2560     1.0  0.29467  0.95715  0.70504  1.0000
  H   H2561     1.0  0.20298  0.80172  0.63673  1.0000
  H   H2562     1.0  0.19591  0.64603  0.70145  1.0000
  H   H2563     1.0  0.32494  0.71761  0.49706  1.0000
  C   C1460     1.0  0.36019  0.80892  0.64779  1.0000
  C   C1461     1.0  0.22339  0.56183  0.88446  1.0000
  C   C1462     1.0  0.29503  0.49000  0.74734  1.0000
  H   H2564     1.0  0.35514  0.62391  0.82716  1.0000
  C   C1463     1.0  0.23399  0.54496  0.87441  1.0000
  Fe  Fe157     1.0  0.30445  0.52269  0.85686  1.0000
  Fe  Fe158     1.0  0.22196  0.86851  0.70982  1.0000
  H   H2565     1.0  0.35744  0.81582  0.54038  1.0000
  H   H2566     1.0  0.21105  0.50173  0.68675  1.0000
  C   C1464     1.0  0.38087  0.69146  0.80389  1.0000
  C   C1465     1.0  0.36410  0.57701  0.85167  1.0000
  C   C1466     1.0  0.35597  0.59349  0.83928  1.0000
  H   H2567     1.0  0.30715  0.69078  0.50838  1.0000
  H   H2568     1.0  0.20079  0.83970  0.66272  1.0000
  H   H2569     1.0  0.22817  0.55883  0.89844  1.0000
  H   H2570     1.0  0.22826  0.57500  0.87511  1.0000
  H   H2571     1.0  0.36206  0.73672  0.84783  1.0000
  C   C1467     1.0  0.30562  0.92366  0.75936  1.0000
  S   S315      1.0  0.28351  0.54270  0.83921  1.0000
  C   C1468     1.0  0.35263  0.73620  0.86249  1.0000
  H   H2572     1.0  0.24655  0.76300  0.70396  1.0000
  S   S316      1.0  0.33099  0.52585  0.83361  1.0000
  H   H2573     1.0  0.24984  0.54306  0.87318  1.0000
  H   H2574     1.0  0.22957  0.53123  0.88295  1.0000
  H   H2575     1.0  0.23107  0.54791  0.85955  1.0000
  H   H2576     1.0  0.22860  0.79906  0.95143  1.0000
  S   S317      1.0  0.22246  0.84911  0.68992  1.0000
  C   C1469     1.0  0.37683  0.73677  0.66917  1.0000
  C   C1470     1.0  0.31983  0.82533  0.62080  1.0000
  H   H2577     1.0  0.33521  0.74698  0.68514  1.0000
  H   H2578     1.0  0.28261  0.85653  0.69880  1.0000
  H   H2579     1.0  0.36699  0.71900  0.90434  1.0000
  H   H2580     1.0  0.29055  0.51747  0.81516  1.0000
  C   C1471     1.0  0.20526  0.80908  0.66302  1.0000
  H   H2581     1.0  0.30803  0.49626  0.74498  1.0000
  C   C1472     1.0  0.28279  0.95012  0.70523  1.0000
  S   S318      1.0  0.23222  0.59976  0.94348  1.0000
  N   N82       1.0  0.32267  0.81468  0.65713  1.0000
  C   C1473     1.0  0.32216  0.79761  0.67421  1.0000
  C   C1474     1.0  0.35537  0.67888  0.94946  1.0000
  C   C1475     1.0  0.37467  0.61288  0.84710  1.0000
  S   S319      1.0  0.36678  0.76317  0.61515  1.0000
  H   H2582     1.0  0.32128  0.77326  0.66205  1.0000
  C   C1476     1.0  0.29633  0.93633  0.74203  1.0000
  H   H2583     1.0  0.33026  0.72025  0.87946  1.0000
  H   H2584     1.0  0.38238  0.79334  0.85393  1.0000
  C   C1477     1.0  0.35731  0.76558  0.88568  1.0000
  H   H2585     1.0  0.35867  0.70399  0.82599  1.0000
  H   H2586     1.0  0.24053  0.75136  0.67776  1.0000
  H   H2587     1.0  0.28837  0.96462  0.77447  1.0000
  S   S320      1.0  0.30681  0.54611  0.87056  1.0000
  H   H2588     1.0  0.37769  0.82421  0.65647  1.0000
  H   H2589     1.0  0.20312  0.54559  0.80139  1.0000
  H   H2590     1.0  0.37850  0.74982  0.57896  1.0000
  H   H2591     1.0  0.32126  0.75617  0.48061  1.0000
  H   H2592     1.0  0.29523  0.95177  0.74224  1.0000
  H   H2593     1.0  0.34843  0.70784  0.86255  1.0000
  N   N83       1.0  0.25801  0.75971  0.90468  1.0000
  H   H2594     1.0  0.32935  0.79939  0.68521  1.0000
  H   H2595     1.0  0.20084  0.59830  0.86973  1.0000
  C   C1478     1.0  0.37596  0.75612  0.63670  1.0000
  H   H2596     1.0  0.30702  0.93352  0.72857  1.0000
  H   H2597     1.0  0.33008  0.72766  0.85371  1.0000
  C   C1479     1.0  0.38197  0.65257  0.78690  1.0000
  H   H2598     1.0  0.34461  0.75260  0.50148  1.0000
  H   H2599     1.0  0.22047  0.53380  0.82797  1.0000
  C   C1480     1.0  0.35434  0.82282  0.79369  1.0000
  H   H2600     1.0  0.35753  0.82157  0.56304  1.0000
  C   C1481     1.0  0.36837  0.77877  0.89031  1.0000
  C   C1482     1.0  0.27721  0.65230  0.50256  1.0000
  C   C1483     1.0  0.37259  0.68875  0.91667  1.0000
  H   H2601     1.0  0.23081  0.76001  0.77744  1.0000
  H   H2602     1.0  0.24131  0.74264  0.92896  1.0000
  H   H2603     1.0  0.36206  0.79435  0.88582  1.0000
  C   C1484     1.0  0.32661  0.92550  0.75663  1.0000
  Fe  Fe159     1.0  0.21421  0.62937  0.94686  1.0000
  S   S321      1.0  0.33970  0.82441  0.81680  1.0000
  C   C1485     1.0  0.35798  0.80964  0.55593  1.0000
  S   S322      1.0  0.38907  0.81671  0.73293  1.0000
  C   C1486     1.0  0.22046  0.63400  0.52421  1.0000
  C   C1487     1.0  0.29758  0.97512  0.84018  1.0000
  H   H2604     1.0  0.31512  0.84303  0.68155  1.0000
  C   C1488     1.0  0.33942  0.72223  0.86467  1.0000
  C   C1489     1.0  0.31603  0.75734  0.49567  1.0000
  S   S323      1.0  0.32560  0.76326  0.97573  1.0000
  H   H2605     1.0  0.32943  0.75465  0.87824  1.0000
  H   H2606     1.0  0.33262  0.91655  0.76945  1.0000
  H   H2607     1.0  0.33565  0.92023  0.74349  1.0000
  N   N84       1.0  0.20811  0.77439  0.65715  1.0000
  H   H2608     1.0  0.27665  0.78770  0.87536  1.0000
  C   C1490     1.0  0.34086  0.75677  0.86489  1.0000
  H   H2609     1.0  0.20226  0.61304  0.80388  1.0000
  C   C1491     1.0  0.37712  0.81919  0.64347  1.0000
  H   H2610     1.0  0.22430  0.75405  0.71237  1.0000
  C   C1492     1.0  0.33170  0.76163  0.68856  1.0000
  H   H2611     1.0  0.37124  0.79937  0.83348  1.0000
  C   C1493     1.0  0.20090  0.92864  0.74014  1.0000
  H   H2612     1.0  0.31761  0.76316  0.69904  1.0000
  H   H2613     1.0  0.27022  0.88353  0.95173  1.0000
  H   H2614     1.0  0.22757  0.78389  0.76237  1.0000
  H   H2615     1.0  0.28739  0.56449  0.70904  1.0000
  C   C1494     1.0  0.19566  0.59921  0.88531  1.0000
  C   C1495     1.0  0.20105  0.56421  0.88781  1.0000
  H   H2616     1.0  0.24026  0.70352  0.50471  1.0000
  H   H2617     1.0  0.36350  0.77225  0.55433  1.0000
  H   H2618     1.0  0.23744  0.96816  0.91173  1.0000
  H   H2619     1.0  0.36187  0.72993  0.87339  1.0000
  H   H2620     1.0  0.21799  0.76520  0.75790  1.0000
  H   H2621     1.0  0.33998  0.83646  0.64292  1.0000
  H   H2622     1.0  0.20840  0.60072  0.89008  1.0000
  C   C1496     1.0  0.37654  0.81892  0.75658  1.0000
  H   H2623     1.0  0.28891  0.65989  0.49351  1.0000
  S   S324      1.0  0.35877  0.55406  0.85400  1.0000
  H   H2624     1.0  0.22648  0.79509  0.64172  1.0000
  H   H2625     1.0  0.34175  0.82639  0.66731  1.0000
  H   H2626     1.0  0.36394  0.49588  0.78309  1.0000
  C   C1497     1.0  0.34071  0.82258  0.65383  1.0000
  H   H2627     1.0  0.38380  0.77567  0.88288  1.0000
  H   H2628     1.0  0.21652  0.76932  0.91146  1.0000
  H   H2629     1.0  0.31320  0.49415  0.83238  1.0000
  Fe  Fe160     1.0  0.29989  0.78562  0.96752  1.0000
  H   H2630     1.0  0.19144  0.92612  0.75427  1.0000
  H   H2631     1.0  0.21288  0.75283  0.60329  1.0000
  H   H2632     1.0  0.20748  0.57681  0.91750  1.0000
  C   C1498     1.0  0.20169  0.77721  0.78334  1.0000
  H   H2633     1.0  0.37456  0.65496  0.80169  1.0000
  H   H2634     1.0  0.20252  0.54856  0.84328  1.0000
  C   C1499     1.0  0.37652  0.79431  0.55788  1.0000
  C   C1500     1.0  0.21275  0.74971  0.61909  1.0000
  H   H2635     1.0  0.28741  0.49085  0.77747  1.0000
  H   H2636     1.0  0.36634  0.75076  0.88803  1.0000
  H   H2637     1.0  0.19985  0.51387  0.85213  1.0000
  C   C1501     1.0  0.36802  0.77478  0.91208  1.0000
  H   H2638     1.0  0.35291  0.77830  0.92033  1.0000
  H   H2639     1.0  0.38200  0.70624  0.79513  1.0000
  H   H2640     1.0  0.34203  0.97705  0.88357  1.0000
  C   C1502     1.0  0.19063  0.63592  0.87631  1.0000
  H   H2641     1.0  0.36426  0.49221  0.84496  1.0000
  H   H2642     1.0  0.37579  0.83177  0.63111  1.0000
  H   H2643     1.0  0.36773  0.79290  0.80284  1.0000
  H   H2644     1.0  0.34499  0.80327  0.56305  1.0000
  H   H2645     1.0  0.20185  0.68031  0.65120  1.0000
  H   H2646     1.0  0.36986  0.67908  0.83415  1.0000
  C   C1503     1.0  0.37037  0.76970  0.84993  1.0000
  C   C1504     1.0  0.22101  0.65133  0.48494  1.0000
  H   H2647     1.0  0.28285  0.50202  0.74362  1.0000
  H   H2648     1.0  0.37448  0.79696  0.71056  1.0000
  H   H2649     1.0  0.25641  0.61015  0.49074  1.0000
  H   H2650     1.0  0.34900  0.49957  0.89527  1.0000
  H   H2651     1.0  0.32482  0.96729  0.71579  1.0000
  C   C1505     1.0  0.19392  0.52385  0.83970  1.0000
  H   H2652     1.0  0.25418  0.97324  0.79205  1.0000
  H   H2653     1.0  0.24241  0.57998  0.50175  1.0000
  S   S325      1.0  0.19580  0.85988  0.73134  1.0000
  S   S326      1.0  0.38212  0.63520  0.84241  1.0000
  H   H2654     1.0  0.27825  0.59462  0.49615  1.0000
  H   H2655     1.0  0.21277  0.73436  0.97871  1.0000
  H   H2656     1.0  0.20021  0.61586  0.83691  1.0000
  H   H2657     1.0  0.19981  0.63459  0.86179  1.0000
  H   H2658     1.0  0.26283  0.97989  0.81014  1.0000
  H   H2659     1.0  0.37807  0.73963  0.54927  1.0000
  C   C1506     1.0  0.37868  0.63313  0.78550  1.0000
  C   C1507     1.0  0.37744  0.77736  0.54830  1.0000
  H   H2660     1.0  0.37738  0.78405  0.53276  1.0000
  H   H2661     1.0  0.37626  0.76273  0.51744  1.0000
  C   C1508     1.0  0.38920  0.73481  0.51102  1.0000
  H   H2662     1.0  0.38508  0.62119  0.79648  1.0000
  C   C1509     1.0  0.20290  0.49013  0.68892  1.0000
  H   H2663     1.0  0.38703  0.69016  0.76772  1.0000
  H   H2664     1.0  0.38524  0.63008  0.77077  1.0000
  H   H2665     1.0  0.38779  0.70208  0.73231  1.0000
  H   H2666     1.0  0.25160  0.56142  0.48762  1.0000
  C   C1510     1.0  0.27061  0.60205  0.48395  1.0000
  H   H2667     1.0  0.38761  0.74000  0.49563  1.0000
  S   S327      1.0  0.24487  0.75043  0.97912  1.0000
  H   H2668     1.0  0.19796  0.48514  0.70479  1.0000
  H   H2669     1.0  0.38762  0.78960  0.77016  1.0000
  C   C1511     1.0  0.38878  0.76638  0.63913  1.0000
  H   H2670     1.0  0.25962  0.66085  0.97890  1.0000
  H   H2671     1.0  0.32544  0.98291  0.82916  1.0000
  C   C1512     1.0  0.32076  0.98292  0.70924  1.0000
  H   H2672     1.0  0.19021  0.56194  0.92535  1.0000
  H   H2673     1.0  0.18974  0.58721  0.67512  1.0000
  Fe  Fe161     1.0  0.56145  0.12014  0.36631  1.0000
  H   H2674     1.0  0.52173  0.16551  0.31066  1.0000
  H   H2675     1.0  0.42548  0.45304  0.17307  1.0000
  H   H2676     1.0  0.39538  0.09358  0.13397  1.0000
  C   C1513     1.0  0.39807  0.46751  0.16410  1.0000
  S   S328      1.0  0.52876  0.12981  0.37088  1.0000
  H   H2677     1.0  0.49405  0.17538  0.37346  1.0000
  H   H2678     1.0  0.39563  0.24879  0.28891  1.0000
  H   H2679     1.0  0.57892  0.09409  0.28111  1.0000
  H   H2680     1.0  0.52537  0.19333  0.28775  1.0000
  H   H2681     1.0  0.42392  0.06549  0.18405  1.0000
  H   H2682     1.0  0.51654  0.20917  0.16378  1.0000
  S   S329      1.0  0.57484  0.24465  0.24510  1.0000
  H   H2683     1.0  0.41012  0.27591  0.06742  1.0000
  C   C1514     1.0  0.45080  0.28270  0.11386  1.0000
  H   H2684     1.0  0.40915  0.12416  0.46292  1.0000
  C   C1515     1.0  0.56301  0.20965  0.30986  1.0000
  H   H2685     1.0  0.39345  0.14005  0.37977  1.0000
  Fe  Fe162     1.0  0.56904  0.25765  0.21501  1.0000
  S   S330      1.0  0.53873  0.27073  0.20922  1.0000
  H   H2686     1.0  0.49759  0.19039  0.38795  1.0000
  H   H2687     1.0  0.57868  0.27129  0.14032  1.0000
  C   C1516     1.0  0.54629  0.14641  0.29720  1.0000
  H   H2688     1.0  0.39260  0.44147  0.16020  1.0000
  C   C1517     1.0  0.55202  0.19787  0.32832  1.0000
  Fe  Fe163     1.0  0.45417  0.23047  0.19572  1.0000
  S   S331      1.0  0.43618  0.25792  0.20472  1.0000
  S   S332      1.0  0.48588  0.21873  0.19765  1.0000
  Fe  Fe164     1.0  0.41958  0.21917  0.18784  1.0000
  H   H2689     1.0  0.39441  0.47707  0.17471  1.0000
  H   H2690     1.0  0.40639  0.29723  0.19708  1.0000
  Fe  Fe165     1.0  0.42223  0.26138  0.17949  1.0000
  N   N85       1.0  0.39384  0.13090  0.18722  1.0000
  Fe  Fe166     1.0  0.41448  0.23952  0.22125  1.0000
  H   H2691     1.0  0.51484  0.22555  0.26858  1.0000
  S   S333      1.0  0.44212  0.23548  0.16870  1.0000
  S   S334      1.0  0.43311  0.21175  0.21407  1.0000
  H   H2692     1.0  0.49687  0.22128  0.29060  1.0000
  C   C1518     1.0  0.58021  0.23124  0.14738  1.0000
  H   H2693     1.0  0.54625  0.17501  0.24864  1.0000
  Fe  Fe167     1.0  0.44940  0.11515  0.32573  1.0000
  S   S335      1.0  0.42886  0.12887  0.34964  1.0000
  S   S336      1.0  0.48113  0.10185  0.32506  1.0000
  Fe  Fe168     1.0  0.41951  0.12531  0.30028  1.0000
  C   C1519     1.0  0.57526  0.26424  0.15591  1.0000
  C   C1520     1.0  0.40521  0.20230  0.11636  1.0000
  Fe  Fe169     1.0  0.42059  0.15280  0.32492  1.0000
  S   S337      1.0  0.41466  0.18401  0.32683  1.0000
  Fe  Fe170     1.0  0.40698  0.11498  0.34438  1.0000
  C   C1521     1.0  0.40573  0.20028  0.15545  1.0000
  S   S338      1.0  0.44245  0.14020  0.30139  1.0000
  S   S339      1.0  0.42815  0.09891  0.32255  1.0000
  H   H2694     1.0  0.51909  0.21602  0.32008  1.0000
  C   C1522     1.0  0.39474  0.13689  0.16561  1.0000
  H   H2695     1.0  0.40636  0.25202  0.13538  1.0000
  H   H2696     1.0  0.54115  0.20885  0.28619  1.0000
  N   N86       1.0  0.40192  0.27305  0.10894  1.0000
  C   C1523     1.0  0.42750  0.24779  0.06495  1.0000
  S   S340      1.0  0.41148  0.28886  0.15923  1.0000
  C   C1524     1.0  0.40888  0.10495  0.26813  1.0000
  C   C1525     1.0  0.42207  0.08816  0.27421  1.0000
  C   C1526     1.0  0.42277  0.07087  0.26868  1.0000
  S   S341      1.0  0.39707  0.14029  0.32176  1.0000
  C   C1527     1.0  0.52647  0.20600  0.29286  1.0000
  H   H2697     1.0  0.43212  0.08864  0.28265  1.0000
  H   H2698     1.0  0.41265  0.10348  0.45223  1.0000
  S   S342      1.0  0.39769  0.24485  0.25061  1.0000
  H   H2699     1.0  0.39965  0.05157  0.35670  1.0000
  H   H2700     1.0  0.43094  0.17340  0.01917  1.0000
  C   C1528     1.0  0.41016  0.20032  0.30525  1.0000
  C   C1529     1.0  0.41240  0.19401  0.28800  1.0000
  C   C1530     1.0  0.40892  0.20758  0.27092  1.0000
  C   C1531     1.0  0.42013  0.46113  0.15963  1.0000
  H   H2701     1.0  0.56713  0.20735  0.18497  1.0000
  H   H2702     1.0  0.41680  0.17872  0.28778  1.0000
  C   C1532     1.0  0.55474  0.21299  0.15347  1.0000
  H   H2703     1.0  0.51346  0.23685  0.28828  1.0000
  H   H2704     1.0  0.53728  0.13625  0.29711  1.0000
  H   H2705     1.0  0.50829  0.19682  0.32032  1.0000
  C   C1533     1.0  0.52820  0.17796  0.34534  1.0000
  H   H2706     1.0  0.41867  0.07290  0.20692  1.0000
  C   C1534     1.0  0.51195  0.22347  0.28467  1.0000
  H   H2707     1.0  0.42665  0.12862  0.15624  1.0000
  C   C1535     1.0  0.42331  0.17663  0.99135  1.0000
  H   H2708     1.0  0.39523  0.44002  0.18397  1.0000
  C   C1536     1.0  0.42035  0.20706  0.14060  1.0000
  H   H2709     1.0  0.53521  0.17995  0.22796  1.0000
  H   H2710     1.0  0.41614  0.09689  0.07528  1.0000
  H   H2711     1.0  0.56297  0.18715  0.33608  1.0000
  H   H2712     1.0  0.43200  0.21126  0.14416  1.0000
  S   S343      1.0  0.41164  0.04856  0.25017  1.0000
  H   H2713     1.0  0.51742  0.17017  0.34413  1.0000
  C   C1537     1.0  0.56630  0.24673  0.15843  1.0000
  S   S344      1.0  0.39412  0.02895  0.21419  1.0000
  H   H2714     1.0  0.44828  0.14299  0.24122  1.0000
  C   C1538     1.0  0.52404  0.25593  0.20656  1.0000
  C   C1539     1.0  0.53059  0.23592  0.20781  1.0000
  C   C1540     1.0  0.51880  0.22476  0.20491  1.0000
  C   C1541     1.0  0.50018  0.23337  0.20118  1.0000
  C   C1542     1.0  0.49346  0.25328  0.20033  1.0000
  C   C1543     1.0  0.50539  0.26450  0.20289  1.0000
  H   H2715     1.0  0.54472  0.22903  0.21099  1.0000
  H   H2716     1.0  0.52411  0.20939  0.20558  1.0000
  H   H2717     1.0  0.47918  0.26012  0.19743  1.0000
  H   H2718     1.0  0.50015  0.27994  0.20196  1.0000
  C   C1544     1.0  0.39109  0.15019  0.38956  1.0000
  H   H2719     1.0  0.56236  0.24068  0.17416  1.0000
  C   C1545     1.0  0.53636  0.15778  0.31322  1.0000
  H   H2720     1.0  0.53452  0.14704  0.32711  1.0000
  H   H2721     1.0  0.47881  0.17877  0.32466  1.0000
  C   C1546     1.0  0.40989  0.25774  0.09684  1.0000
  N   N87       1.0  0.53767  0.18769  0.32543  1.0000
  H   H2722     1.0  0.42061  0.15527  0.37977  1.0000
  H   H2723     1.0  0.52048  0.18442  0.16142  1.0000
  H   H2724     1.0  0.58003  0.23700  0.13164  1.0000
  H   H2725     1.0  0.46249  0.24760  0.24558  1.0000
  H   H2726     1.0  0.53925  0.16667  0.35245  1.0000
  C   C1547     1.0  0.51584  0.12217  0.35773  1.0000
  C   C1548     1.0  0.52498  0.10850  0.34614  1.0000
  C   C1549     1.0  0.51421  0.10253  0.33605  1.0000
  C   C1550     1.0  0.49429  0.11024  0.33738  1.0000
  C   C1551     1.0  0.48526  0.12428  0.34860  1.0000
  C   C1552     1.0  0.49601  0.13018  0.35877  1.0000
  H   H2727     1.0  0.54027  0.10227  0.34521  1.0000
  H   H2728     1.0  0.52128  0.09168  0.32739  1.0000
  H   H2729     1.0  0.46997  0.13038  0.34966  1.0000
  H   H2730     1.0  0.48889  0.14082  0.36766  1.0000
  C   C1553     1.0  0.39535  0.14422  0.21643  1.0000
  H   H2731     1.0  0.43971  0.24866  0.26275  1.0000
  H   H2732     1.0  0.53638  0.15652  0.24438  1.0000
  H   H2733     1.0  0.51472  0.17153  0.27082  1.0000
  H   H2734     1.0  0.45502  0.29079  0.09878  1.0000
  H   H2735     1.0  0.46071  0.16923  0.31935  1.0000
  C   C1554     1.0  0.54857  0.17187  0.31449  1.0000
  H   H2736     1.0  0.57144  0.17740  0.21008  1.0000
  C   C1555     1.0  0.50511  0.18057  0.37771  1.0000
  H   H2737     1.0  0.41282  0.13034  0.12795  1.0000
  H   H2738     1.0  0.46208  0.24074  0.27148  1.0000
  S   S345      1.0  0.57879  0.09220  0.38038  1.0000
  H   H2739     1.0  0.54820  0.15638  0.28279  1.0000
  H   H2740     1.0  0.40245  0.22502  0.31872  1.0000
  S   S346      1.0  0.40856  0.12717  0.27346  1.0000
  H   H2741     1.0  0.47772  0.15598  0.23612  1.0000
  C   C1556     1.0  0.54684  0.19407  0.15957  1.0000
  H   H2742     1.0  0.46609  0.15132  0.26135  1.0000
  H   H2743     1.0  0.41194  0.12288  0.06722  1.0000
  H   H2744     1.0  0.46400  0.27311  0.11858  1.0000
  H   H2745     1.0  0.56065  0.13780  0.29987  1.0000
  H   H2746     1.0  0.58643  0.18425  0.14298  1.0000
  C   C1557     1.0  0.39891  0.16165  0.22197  1.0000
  H   H2747     1.0  0.55283  0.22238  0.30344  1.0000
  C   C1558     1.0  0.42363  0.07751  0.19097  1.0000
  H   H2748     1.0  0.43195  0.21231  0.10975  1.0000
  S   S347      1.0  0.57983  0.11958  0.33665  1.0000
  H   H2749     1.0  0.40631  0.10726  0.20823  1.0000
  C   C1559     1.0  0.39419  0.30571  0.19069  1.0000
  H   H2750     1.0  0.44555  0.16725  0.22668  1.0000
  C   C1560     1.0  0.41734  0.28348  0.10889  1.0000
  H   H2751     1.0  0.43287  0.27064  0.07508  1.0000
  H   H2752     1.0  0.44342  0.26004  0.10524  1.0000
  H   H2753     1.0  0.42363  0.11623  0.18840  1.0000
  C   C1561     1.0  0.52629  0.19792  0.15598  1.0000
  C   C1562     1.0  0.51730  0.19138  0.35987  1.0000
  H   H2754     1.0  0.40608  0.13142  0.22180  1.0000
  H   H2755     1.0  0.42020  0.16180  0.99617  1.0000
  C   C1563     1.0  0.42019  0.26464  0.07560  1.0000
  H   H2756     1.0  0.48606  0.15789  0.31360  1.0000
  H   H2757     1.0  0.58360  0.20526  0.12464  1.0000
  S   S348      1.0  0.40586  0.19838  0.18004  1.0000
  C   C1564     1.0  0.43625  0.27047  0.11488  1.0000
  H   H2758     1.0  0.55588  0.18289  0.15140  1.0000
  H   H2759     1.0  0.41744  0.15415  0.15522  1.0000
  H   H2760     1.0  0.44695  0.21288  0.27390  1.0000
  H   H2761     1.0  0.52775  0.19637  0.36524  1.0000
  C   C1565     1.0  0.57987  0.20239  0.17385  1.0000
  H   H2762     1.0  0.56072  0.16277  0.32154  1.0000
  H   H2763     1.0  0.41259  0.14943  0.18766  1.0000
  H   H2764     1.0  0.44453  0.29314  0.12370  1.0000
  H   H2765     1.0  0.43850  0.17566  0.98320  1.0000
  C   C1566     1.0  0.52227  0.20189  0.31549  1.0000
  S   S349      1.0  0.58492  0.23161  0.20281  1.0000
  H   H2766     1.0  0.51416  0.19542  0.25518  1.0000
  C   C1567     1.0  0.42025  0.20773  0.12114  1.0000
  H   H2767     1.0  0.51451  0.16791  0.38536  1.0000
  C   C1568     1.0  0.58830  0.19950  0.13883  1.0000
  H   H2768     1.0  0.54520  0.22219  0.16368  1.0000
  C   C1569     1.0  0.41082  0.14984  0.39345  1.0000
  H   H2769     1.0  0.42136  0.29286  0.09440  1.0000
  C   C1570     1.0  0.40631  0.11073  0.07806  1.0000
  H   H2770     1.0  0.55268  0.25208  0.15276  1.0000
  H   H2771     1.0  0.42017  0.24566  0.10396  1.0000
  C   C1571     1.0  0.39597  0.10422  0.25713  1.0000
  C   C1572     1.0  0.40981  0.09569  0.18287  1.0000
  H   H2772     1.0  0.55566  0.17796  0.29956  1.0000
  H   H2773     1.0  0.52625  0.20284  0.14020  1.0000
  C   C1573     1.0  0.42159  0.18404  0.00969  1.0000
  H   H2774     1.0  0.55188  0.22054  0.13875  1.0000
  S   S350      1.0  0.39901  0.24539  0.19681  1.0000
  H   H2775     1.0  0.50751  0.20421  0.35305  1.0000
  H   H2776     1.0  0.41365  0.16429  0.21475  1.0000
  C   C1574     1.0  0.41450  0.14079  0.15290  1.0000
  H   H2777     1.0  0.54598  0.18831  0.17540  1.0000
  H   H2778     1.0  0.43364  0.16285  0.25207  1.0000
  C   C1575     1.0  0.40416  0.22008  0.30546  1.0000
  H   H2779     1.0  0.54471  0.20856  0.33769  1.0000
  N   N88       1.0  0.47755  0.18601  0.25783  1.0000
  C   C1576     1.0  0.47570  0.20767  0.25454  1.0000
  C   C1577     1.0  0.49776  0.17719  0.24836  1.0000
  C   C1578     1.0  0.46367  0.18246  0.24744  1.0000
  C   C1579     1.0  0.47268  0.17651  0.27908  1.0000
  C   C1580     1.0  0.47759  0.18540  0.29402  1.0000
  C   C1581     1.0  0.45482  0.21956  0.25957  1.0000
  C   C1582     1.0  0.46487  0.16098  0.24702  1.0000
  C   C1583     1.0  0.51478  0.17995  0.25576  1.0000
  C   C1584     1.0  0.53430  0.17235  0.24340  1.0000
  C   C1585     1.0  0.47567  0.17197  0.31410  1.0000
  C   C1586     1.0  0.45488  0.24041  0.25987  1.0000
  C   C1587     1.0  0.44697  0.15847  0.24137  1.0000
  H   H2780     1.0  0.48152  0.21359  0.23902  1.0000
  H   H2781     1.0  0.48472  0.21133  0.26270  1.0000
  H   H2782     1.0  0.49952  0.16124  0.25030  1.0000
  H   H2783     1.0  0.50014  0.18308  0.23234  1.0000
  H   H2784     1.0  0.46589  0.19059  0.23206  1.0000
  H   H2785     1.0  0.44844  0.18812  0.25423  1.0000
  H   H2786     1.0  0.45683  0.17675  0.28381  1.0000
  H   H2787     1.0  0.47977  0.16085  0.28134  1.0000
  H   H2788     1.0  0.46744  0.19942  0.29551  1.0000
  H   H2789     1.0  0.49242  0.18819  0.28972  1.0000
  H   H2790     1.0  0.44661  0.22033  0.24836  1.0000
  H   H2791     1.0  0.40232  0.09722  0.39524  1.0000
  H   H2792     1.0  0.43323  0.26220  0.13003  1.0000
  H   H2793     1.0  0.43766  0.23596  0.07257  1.0000
  C   C1588     1.0  0.41015  0.07027  0.25727  1.0000
  H   H2794     1.0  0.42627  0.19813  0.00592  1.0000
  H   H2795     1.0  0.39813  0.25099  0.09600  1.0000
  H   H2796     1.0  0.58638  0.22544  0.30112  1.0000
  C   C1589     1.0  0.40291  0.22736  0.27125  1.0000
  C   C1590     1.0  0.57834  0.21754  0.31470  1.0000
  H   H2797     1.0  0.57146  0.22772  0.32470  1.0000
  C   C1591     1.0  0.39655  0.08692  0.25175  1.0000
  H   H2798     1.0  0.43854  0.08019  0.18793  1.0000
  S   S351      1.0  0.40470  0.20477  0.09174  1.0000
  C   C1592     1.0  0.39756  0.14717  0.19414  1.0000
  C   C1593     1.0  0.41442  0.14380  0.13132  1.0000
  N   N89       1.0  0.57583  0.21107  0.15367  1.0000
  H   H2799     1.0  0.43524  0.25288  0.04993  1.0000
  H   H2800     1.0  0.39034  0.12594  0.16036  1.0000
  H   H2801     1.0  0.43328  0.05799  0.27304  1.0000
  H   H2802     1.0  0.57599  0.17244  0.17631  1.0000
  H   H2803     1.0  0.41058  0.20271  0.25763  1.0000
  H   H2804     1.0  0.42825  0.14766  0.12243  1.0000
  H   H2805     1.0  0.57040  0.20071  0.29889  1.0000
  H   H2806     1.0  0.56483  0.27496  0.16397  1.0000
  H   H2807     1.0  0.41494  0.09923  0.16688  1.0000
  H   H2808     1.0  0.41159  0.29366  0.11903  1.0000
  S   S352      1.0  0.57772  0.13890  0.37350  1.0000
  C   C1594     1.0  0.40889  0.11288  0.19222  1.0000
  H   H2809     1.0  0.41762  0.13470  0.39944  1.0000
  H   H2810     1.0  0.39245  0.03064  0.37373  1.0000
  C   C1595     1.0  0.39094  0.19440  0.15072  1.0000
  H   H2811     1.0  0.41517  0.24192  0.06409  1.0000
  H   H2812     1.0  0.42679  0.47411  0.15370  1.0000
  H   H2813     1.0  0.39165  0.17482  0.36598  1.0000
  C   C1596     1.0  0.58581  0.17994  0.17954  1.0000
  C   C1597     1.0  0.58610  0.17333  0.20119  1.0000
  H   H2814     1.0  0.58231  0.10496  0.29930  1.0000
  H   H2815     1.0  0.40634  0.11246  0.09279  1.0000
  C   C1598     1.0  0.39458  0.26332  0.12958  1.0000
  H   H2816     1.0  0.40641  0.18590  0.01803  1.0000
  S   S353      1.0  0.58856  0.18883  0.24382  1.0000
  H   H2817     1.0  0.40234  0.15578  0.12722  1.0000
  H   H2818     1.0  0.39368  0.47592  0.15033  1.0000
  H   H2819     1.0  0.39776  0.15882  0.23794  1.0000
  H   H2820     1.0  0.58475  0.15466  0.27270  1.0000
  H   H2821     1.0  0.42481  0.45182  0.14868  1.0000
  H   H2822     1.0  0.40396  0.01973  0.29236  1.0000
  H   H2823     1.0  0.40919  0.15889  0.40415  1.0000
  H   H2824     1.0  0.39403  0.18765  0.98681  1.0000
  H   H2825     1.0  0.39580  0.14270  0.99886  1.0000
  C   C1599     1.0  0.40032  0.23352  0.28860  1.0000
  H   H2826     1.0  0.39544  0.09193  0.18580  1.0000
  C   C1600     1.0  0.40163  0.11411  0.45994  1.0000
  C   C1601     1.0  0.39335  0.30469  0.17201  1.0000
  C   C1602     1.0  0.39057  0.19556  0.13123  1.0000
  H   H2827     1.0  0.58871  0.25982  0.16186  1.0000
  H   H2828     1.0  0.39200  0.29629  0.08615  1.0000
  H   H2829     1.0  0.39028  0.27383  0.13939  1.0000
  C   C1603     1.0  0.39083  0.10336  0.47889  1.0000
  H   H2830     1.0  0.39142  0.12245  0.45024  1.0000
  H   H2831     1.0  0.58888  0.20551  0.32159  1.0000
  H   H2832     1.0  0.39014  0.09831  0.43025  1.0000
  H   H2833     1.0  0.45604  0.20781  0.89964  1.0000
  C   C1604     1.0  0.45507  0.20144  0.91541  1.0000
  H   H2834     1.0  0.43578  0.10717  0.69438  1.0000
  H   H2835     1.0  0.54213  0.18585  0.73739  1.0000
  H   H2836     1.0  0.40600  0.16977  0.93003  1.0000
  H   H2837     1.0  0.45441  0.08863  0.72027  1.0000
  H   H2838     1.0  0.44986  0.12676  0.70645  1.0000
  C   C1605     1.0  0.43166  0.19227  0.94729  1.0000
  C   C1606     1.0  0.40105  0.00400  0.87509  1.0000
  S   S354      1.0  0.57737  0.28097  0.84019  1.0000
  H   H2839     1.0  0.43114  0.16050  0.93183  1.0000
  H   H2840     1.0  0.47528  0.08238  0.70162  1.0000
  H   H2841     1.0  0.40257  0.02705  0.78105  1.0000
  H   H2842     1.0  0.42528  0.21529  0.92208  1.0000
  Fe  Fe171     1.0  0.56303  0.14919  0.76477  1.0000
  S   S355      1.0  0.53020  0.15553  0.77016  1.0000
  H   H2843     1.0  0.40311  0.11733  0.70831  1.0000
  Fe  Fe172     1.0  0.44062  0.23844  0.85937  1.0000
  Fe  Fe173     1.0  0.48217  0.24442  0.84749  1.0000
  S   S356      1.0  0.47845  0.26076  0.81752  1.0000
  S   S357      1.0  0.51059  0.23371  0.85784  1.0000
  Fe  Fe174     1.0  0.44936  0.27542  0.83241  1.0000
  Fe  Fe175     1.0  0.46311  0.23759  0.81802  1.0000
  S   S358      1.0  0.46995  0.22486  0.79131  1.0000
  S   S359      1.0  0.45454  0.26128  0.86244  1.0000
  S   S360      1.0  0.46854  0.22008  0.84708  1.0000
  H   H2844     1.0  0.58180  0.20214  0.92058  1.0000
  H   H2845     1.0  0.50839  0.23382  0.71117  1.0000
  H   H2846     1.0  0.39380  0.27184  0.75264  1.0000
  Fe  Fe176     1.0  0.44399  0.13376  0.74559  1.0000
  S   S361      1.0  0.42718  0.16335  0.73461  1.0000
  S   S362      1.0  0.47614  0.12419  0.73467  1.0000
  Fe  Fe177     1.0  0.41310  0.16253  0.76600  1.0000
  C   C1607     1.0  0.56748  0.22642  0.96076  1.0000
  H   H2847     1.0  0.58188  0.28880  0.87989  1.0000
  C   C1608     1.0  0.39130  0.22197  0.95074  1.0000
  S   S363      1.0  0.43163  0.13427  0.77701  1.0000
  S   S364      1.0  0.42259  0.11762  0.74272  1.0000
  C   C1609     1.0  0.43403  0.20038  0.92502  1.0000
  C   C1610     1.0  0.45183  0.10457  0.69090  1.0000
  H   H2848     1.0  0.55503  0.27427  0.91803  1.0000
  H   H2849     1.0  0.47228  0.16890  0.70986  1.0000
  H   H2850     1.0  0.56058  0.22464  0.67226  1.0000
  H   H2851     1.0  0.58008  0.22688  0.96645  1.0000
  H   H2852     1.0  0.44344  0.17927  0.94968  1.0000
  H   H2853     1.0  0.42306  0.15653  0.96688  1.0000
  H   H2854     1.0  0.55550  0.18129  0.83685  1.0000
  H   H2855     1.0  0.40366  0.47702  0.82240  1.0000
  H   H2856     1.0  0.42632  0.14761  0.68687  1.0000
  H   H2857     1.0  0.52844  0.24284  0.69379  1.0000
  C   C1611     1.0  0.51792  0.23334  0.69667  1.0000
  C   C1612     1.0  0.45248  0.21293  0.78974  1.0000
  C   C1613     1.0  0.43482  0.21386  0.80302  1.0000
  C   C1614     1.0  0.42046  0.20542  0.80088  1.0000
  C   C1615     1.0  0.42385  0.19554  0.78578  1.0000
  C   C1616     1.0  0.44183  0.19386  0.77297  1.0000
  C   C1617     1.0  0.45608  0.20272  0.77485  1.0000
  H   H2858     1.0  0.43211  0.22132  0.81477  1.0000
  H   H2859     1.0  0.53948  0.27346  0.80371  1.0000
  H   H2860     1.0  0.44452  0.18628  0.76127  1.0000
  H   H2861     1.0  0.46979  0.20188  0.76461  1.0000
  H   H2862     1.0  0.43641  0.19473  0.87098  1.0000
  H   H2863     1.0  0.46040  0.21082  0.92187  1.0000
  H   H2864     1.0  0.43511  0.20336  0.95322  1.0000
  C   C1618     1.0  0.51981  0.21093  0.76099  1.0000
  H   H2865     1.0  0.51624  0.20393  0.69965  1.0000
  C   C1619     1.0  0.53189  0.21520  0.74047  1.0000
  C   C1620     1.0  0.40011  0.33110  0.82268  1.0000
  C   C1621     1.0  0.54164  0.25653  0.78174  1.0000
  C   C1622     1.0  0.42204  0.99525  0.87713  1.0000
  H   H2866     1.0  0.50834  0.29555  0.79891  1.0000
  C   C1623     1.0  0.39554  0.20034  0.94928  1.0000
  C   C1624     1.0  0.51588  0.14697  0.75933  1.0000
  C   C1625     1.0  0.49607  0.15542  0.76135  1.0000
  C   C1626     1.0  0.48382  0.14848  0.75386  1.0000
  C   C1627     1.0  0.49137  0.13325  0.74396  1.0000
  C   C1628     1.0  0.51131  0.12517  0.74138  1.0000
  C   C1629     1.0  0.52354  0.13192  0.74918  1.0000
  H   H2867     1.0  0.49011  0.16724  0.76894  1.0000
  H   H2868     1.0  0.46852  0.15490  0.75579  1.0000
  H   H2869     1.0  0.51723  0.11339  0.73371  1.0000
  H   H2870     1.0  0.53879  0.12531  0.74757  1.0000
  H   H2871     1.0  0.51906  0.19594  0.73150  1.0000
  C   C1630     1.0  0.57383  0.24117  0.75258  1.0000
  H   H2872     1.0  0.53462  0.22232  0.80089  1.0000
  H   H2873     1.0  0.39766  0.16333  0.96748  1.0000
  H   H2874     1.0  0.49701  0.16872  0.69759  1.0000
  H   H2875     1.0  0.53633  0.20187  0.84081  1.0000
  H   H2876     1.0  0.57306  0.24983  0.93677  1.0000
  C   C1631     1.0  0.55892  0.26783  0.84421  1.0000
  C   C1632     1.0  0.56282  0.24758  0.84893  1.0000
  C   C1633     1.0  0.54785  0.23742  0.85283  1.0000
  C   C1634     1.0  0.52884  0.24734  0.85177  1.0000
  C   C1635     1.0  0.52489  0.26759  0.84654  1.0000
  C   C1636     1.0  0.53991  0.27779  0.84285  1.0000
  H   H2877     1.0  0.57735  0.23967  0.84960  1.0000
  H   H2878     1.0  0.55104  0.22175  0.85670  1.0000
  H   H2879     1.0  0.51025  0.27539  0.84567  1.0000
  H   H2880     1.0  0.53675  0.29348  0.83910  1.0000
  H   H2881     1.0  0.58324  0.12839  0.84145  1.0000
  H   H2882     1.0  0.46447  0.18673  0.91703  1.0000
  H   H2883     1.0  0.55622  0.12086  0.83175  1.0000
  S   S365      1.0  0.40498  0.18636  0.78281  1.0000
  S   S366      1.0  0.43589  0.30704  0.82363  1.0000
  C   C1637     1.0  0.56133  0.27443  0.90243  1.0000
  H   H2884     1.0  0.54851  0.22103  0.93663  1.0000
  C   C1638     1.0  0.52811  0.21215  0.69551  1.0000
  C   C1639     1.0  0.41310  0.13956  0.94254  1.0000
  C   C1640     1.0  0.41650  0.17514  0.88294  1.0000
  H   H2885     1.0  0.52708  0.19737  0.76961  1.0000
  H   H2886     1.0  0.46959  0.10775  0.78899  1.0000
  H   H2887     1.0  0.40172  0.09510  0.48776  1.0000
  H   H2888     1.0  0.43076  0.48126  0.83414  1.0000
  H   H2889     1.0  0.50149  0.25631  0.89106  1.0000
  C   C1641     1.0  0.48214  0.17036  0.69534  1.0000
  H   H2890     1.0  0.52518  0.22966  0.73306  1.0000
  H   H2891     1.0  0.55550  0.09601  0.83321  1.0000
  H   H2892     1.0  0.39635  0.04547  0.86788  1.0000
  H   H2893     1.0  0.56168  0.24935  0.74520  1.0000
  H   H2894     1.0  0.54982  0.28216  0.89404  1.0000
  C   C1642     1.0  0.56343  0.22113  0.90075  1.0000
  H   H2895     1.0  0.56604  0.24850  0.81033  1.0000
  H   H2896     1.0  0.40383  0.99860  0.84685  1.0000
  H   H2897     1.0  0.57272  0.26159  0.78651  1.0000
  C   C1643     1.0  0.39308  0.12330  0.69860  1.0000
  Fe  Fe178     1.0  0.40875  0.12084  0.77336  1.0000
  C   C1644     1.0  0.57073  0.23490  0.93894  1.0000
  H   H2898     1.0  0.54646  0.21593  0.74189  1.0000
  H   H2899     1.0  0.53448  0.21152  0.67999  1.0000
  H   H2900     1.0  0.56010  0.18475  0.68713  1.0000
  S   S367      1.0  0.58044  0.12956  0.78641  1.0000
  H   H2901     1.0  0.40866  0.02162  0.81441  1.0000
  H   H2902     1.0  0.45335  0.07405  0.70410  1.0000
  C   C1645     1.0  0.41195  0.16659  0.95906  1.0000
  H   H2903     1.0  0.47774  0.18501  0.68650  1.0000
  C   C1646     1.0  0.55107  0.14877  0.70270  1.0000
  H   H2904     1.0  0.53830  0.25446  0.88690  1.0000
  H   H2905     1.0  0.40202  0.22732  0.76070  1.0000
  C   C1647     1.0  0.50106  0.24780  0.90619  1.0000
  C   C1648     1.0  0.53637  0.24882  0.90291  1.0000
  H   H2906     1.0  0.53068  0.16672  0.72110  1.0000
  H   H2907     1.0  0.39759  0.19975  0.93380  1.0000
  H   H2908     1.0  0.58366  0.24806  0.90249  1.0000
  H   H2909     1.0  0.42261  0.98944  0.89272  1.0000
  H   H2910     1.0  0.55165  0.10472  0.85525  1.0000
  C   C1649     1.0  0.55869  0.21419  0.70396  1.0000
  H   H2911     1.0  0.40905  0.15202  0.65066  1.0000
  H   H2912     1.0  0.57905  0.18293  0.89792  1.0000
  H   H2913     1.0  0.52945  0.17392  0.69578  1.0000
  H   H2914     1.0  0.56608  0.21107  0.96369  1.0000
  N   N90       1.0  0.55679  0.23940  0.78871  1.0000
  H   H2915     1.0  0.43105  0.00647  0.87135  1.0000
  H   H2916     1.0  0.52508  0.22526  0.89884  1.0000
  H   H2917     1.0  0.54096  0.24601  0.93679  1.0000
  H   H2918     1.0  0.50515  0.20941  0.76057  1.0000
  H   H2919     1.0  0.42925  0.19151  0.91762  1.0000
  S   S368      1.0  0.41556  0.23089  0.88306  1.0000
  H   H2920     1.0  0.52945  0.26169  0.90958  1.0000
  H   H2921     1.0  0.49375  0.23317  0.68415  1.0000
  H   H2922     1.0  0.55268  0.22846  0.70812  1.0000
  N   N91       1.0  0.41224  0.18744  0.95813  1.0000
  C   C1650     1.0  0.40874  0.19000  0.97882  1.0000
  H   H2923     1.0  0.57482  0.24667  0.68282  1.0000
  N   N92       1.0  0.45727  0.13958  0.67594  1.0000
  C   C1651     1.0  0.45864  0.12241  0.69272  1.0000
  C   C1652     1.0  0.46121  0.15656  0.68152  1.0000
  C   C1653     1.0  0.43655  0.14501  0.67306  1.0000
  C   C1654     1.0  0.47066  0.13535  0.65722  1.0000
  C   C1655     1.0  0.49041  0.12116  0.65884  1.0000
  C   C1656     1.0  0.43173  0.16299  0.65678  1.0000
  C   C1657     1.0  0.48172  0.15460  0.68515  1.0000
  H   H2924     1.0  0.40758  0.28404  0.84665  1.0000
  C   C1658     1.0  0.50343  0.12053  0.63879  1.0000
  C   C1659     1.0  0.41130  0.16552  0.65341  1.0000
  H   H2925     1.0  0.47359  0.11738  0.69540  1.0000
  H   H2926     1.0  0.45928  0.16982  0.67000  1.0000
  H   H2927     1.0  0.45038  0.15998  0.69474  1.0000
  H   H2928     1.0  0.43263  0.13284  0.66931  1.0000
  H   H2929     1.0  0.46344  0.12898  0.64929  1.0000
  H   H2930     1.0  0.47369  0.14914  0.64727  1.0000
  H   H2931     1.0  0.48822  0.10621  0.66564  1.0000
  H   H2932     1.0  0.49841  0.12519  0.66770  1.0000
  H   H2933     1.0  0.45676  0.10172  0.67598  1.0000
  H   H2934     1.0  0.44199  0.16162  0.64279  1.0000
  S   S369      1.0  0.58587  0.14214  0.73875  1.0000
  H   H2935     1.0  0.39968  0.24275  0.82340  1.0000
  H   H2936     1.0  0.49219  0.15628  0.67104  1.0000
  C   C1660     1.0  0.42194  0.19317  0.87874  1.0000
  H   H2937     1.0  0.38996  0.06791  0.55101  1.0000
  H   H2938     1.0  0.39540  0.01543  0.88373  1.0000
  H   H2939     1.0  0.51726  0.11001  0.64032  1.0000
  H   H2940     1.0  0.49629  0.11584  0.62950  1.0000
  H   H2941     1.0  0.50683  0.13501  0.63157  1.0000
  H   H2942     1.0  0.56030  0.14207  0.71363  1.0000
  H   H2943     1.0  0.40044  0.44465  0.84211  1.0000
  C   C1661     1.0  0.53943  0.16867  0.70612  1.0000
  H   H2944     1.0  0.42680  0.16275  0.87847  1.0000
  H   H2945     1.0  0.41701  0.25835  0.79537  1.0000
  H   H2946     1.0  0.56446  0.22454  0.88479  1.0000
  H   H2947     1.0  0.49567  0.25788  0.91642  1.0000
  C   C1662     1.0  0.45921  0.08632  0.70511  1.0000
  H   H2948     1.0  0.54100  0.13909  0.70418  1.0000
  H   H2949     1.0  0.55328  0.21102  0.90693  1.0000
  H   H2950     1.0  0.44693  0.26857  0.77631  1.0000
  H   H2951     1.0  0.53898  0.23387  0.81758  1.0000
  C   C1663     1.0  0.40265  0.47415  0.83831  1.0000
  H   H2952     1.0  0.49073  0.23803  0.90921  1.0000
  C   C1664     1.0  0.41031  0.31246  0.82954  1.0000
  N   N93       1.0  0.54313  0.20263  0.70784  1.0000
  H   H2953     1.0  0.48688  0.14055  0.69437  1.0000
  H   H2954     1.0  0.45619  0.10205  0.81355  1.0000
  H   H2955     1.0  0.44645  0.29386  0.76546  1.0000
  H   H2956     1.0  0.56462  0.17602  0.71109  1.0000
  H   H2957     1.0  0.54850  0.26674  0.76929  1.0000
  H   H2958     1.0  0.42325  0.46644  0.85755  1.0000
  C   C1665     1.0  0.55309  0.23519  0.93042  1.0000
  C   C1666     1.0  0.57032  0.21821  0.68275  1.0000
  H   H2959     1.0  0.56811  0.21095  0.82296  1.0000
  H   H2960     1.0  0.39813  0.09700  0.68795  1.0000
  C   C1667     1.0  0.54633  0.22629  0.80548  1.0000
  H   H2961     1.0  0.55423  0.23494  0.96854  1.0000
  H   H2962     1.0  0.58100  0.21773  0.73688  1.0000
  C   C1668     1.0  0.51704  0.28732  0.78757  1.0000
  H   H2963     1.0  0.52020  0.22773  0.92385  1.0000
  C   C1669     1.0  0.43930  0.28362  0.77759  1.0000
  C   C1670     1.0  0.55991  0.10576  0.84003  1.0000
  N   N94       1.0  0.55582  0.23954  0.90852  1.0000
  C   C1671     1.0  0.50497  0.24186  0.68171  1.0000
  C   C1672     1.0  0.39788  0.17305  0.89347  1.0000
  H   H2964     1.0  0.56035  0.14996  0.68789  1.0000
  S   S370      1.0  0.57330  0.17564  0.76505  1.0000
  C   C1673     1.0  0.52116  0.23579  0.90857  1.0000
  H   H2965     1.0  0.51807  0.22297  0.76844  1.0000
  C   C1674     1.0  0.53373  0.19910  0.72927  1.0000
  H   H2966     1.0  0.49752  0.25693  0.68308  1.0000
  H   H2967     1.0  0.51373  0.24226  0.66672  1.0000
  H   H2968     1.0  0.53113  0.25161  0.77626  1.0000
  S   S371      1.0  0.43388  0.25355  0.83028  1.0000
  C   C1675     1.0  0.39642  0.24198  0.75257  1.0000
  C   C1676     1.0  0.55290  0.18313  0.70273  1.0000
  N   N95       1.0  0.46701  0.14732  0.83248  1.0000
  C   C1677     1.0  0.46811  0.14468  0.85347  1.0000
  C   C1678     1.0  0.44744  0.15964  0.82957  1.0000
  C   C1679     1.0  0.46982  0.12762  0.82793  1.0000
  C   C1680     1.0  0.48255  0.15738  0.81896  1.0000
  C   C1681     1.0  0.48426  0.17635  0.82367  1.0000
  C   C1682     1.0  0.48807  0.13439  0.85883  1.0000
  C   C1683     1.0  0.46878  0.12769  0.80688  1.0000
  C   C1684     1.0  0.42981  0.14980  0.83940  1.0000
  C   C1685     1.0  0.41062  0.16420  0.83825  1.0000
  C   C1686     1.0  0.50116  0.18436  0.80950  1.0000
  C   C1687     1.0  0.48794  0.13485  0.87976  1.0000
  C   C1688     1.0  0.46929  0.10736  0.80445  1.0000
  H   H2969     1.0  0.45761  0.13589  0.86313  1.0000
  H   H2970     1.0  0.46351  0.15889  0.85807  1.0000
  H   H2971     1.0  0.44475  0.17317  0.83513  1.0000
  H   H2972     1.0  0.44706  0.16485  0.81384  1.0000
  H   H2973     1.0  0.45930  0.11924  0.83832  1.0000
  H   H2974     1.0  0.48434  0.11884  0.82994  1.0000
  H   H2975     1.0  0.49700  0.14738  0.81804  1.0000
  H   H2976     1.0  0.47998  0.16138  0.80385  1.0000
  H   H2977     1.0  0.48693  0.17410  0.83849  1.0000
  H   H2978     1.0  0.47080  0.18750  0.82243  1.0000
  H   H2979     1.0  0.49151  0.11896  0.85766  1.0000
  H   H2980     1.0  0.49998  0.14133  0.84932  1.0000
  H   H2981     1.0  0.48145  0.13269  0.79654  1.0000
  H   H2982     1.0  0.45543  0.13734  0.80270  1.0000
  H   H2983     1.0  0.43008  0.13805  0.83213  1.0000
  H   H2984     1.0  0.42973  0.14342  0.85496  1.0000
  H   H2985     1.0  0.57983  0.20467  0.67882  1.0000
  H   H2986     1.0  0.58133  0.25179  0.75452  1.0000
  H   H2987     1.0  0.39851  0.15716  0.84717  1.0000
  H   H2988     1.0  0.49904  0.18712  0.79436  1.0000
  H   H2989     1.0  0.50194  0.19823  0.81263  1.0000
  H   H2990     1.0  0.51509  0.17393  0.81078  1.0000
  H   H2991     1.0  0.47652  0.12761  0.89005  1.0000
  H   H2992     1.0  0.50221  0.12710  0.88342  1.0000
  H   H2993     1.0  0.48531  0.15005  0.88155  1.0000
  H   H2994     1.0  0.48250  0.09712  0.80849  1.0000
  H   H2995     1.0  0.57119  0.30076  0.89995  1.0000
  H   H2996     1.0  0.58468  0.08446  0.84751  1.0000
  C   C1689     1.0  0.57708  0.28638  0.89594  1.0000
  H   H2997     1.0  0.41746  0.13487  0.92841  1.0000
  S   S372      1.0  0.39708  0.09899  0.79871  1.0000
  H   H2998     1.0  0.40667  0.20661  0.81094  1.0000
  H   H2999     1.0  0.57777  0.21642  0.77628  1.0000
  C   C1690     1.0  0.39960  0.01171  0.85338  1.0000
  H   H3000     1.0  0.39539  0.08733  0.76379  1.0000
  H   H3001     1.0  0.50689  0.28358  0.78069  1.0000
  C   C1691     1.0  0.41591  0.16029  0.93945  1.0000
  H   H3002     1.0  0.53748  0.18925  0.82200  1.0000
  C   C1692     1.0  0.40881  0.20891  0.88546  1.0000
  C   C1693     1.0  0.54618  0.19422  0.82952  1.0000
  H   H3003     1.0  0.40864  0.16880  0.82300  1.0000
  H   H3004     1.0  0.56933  0.20655  0.71341  1.0000
  H   H3005     1.0  0.52002  0.26081  0.80852  1.0000
  C   C1694     1.0  0.55885  0.20744  0.81492  1.0000
  C   C1695     1.0  0.57136  0.24674  0.79502  1.0000
  C   C1696     1.0  0.39996  0.29823  0.84067  1.0000
  H   H3006     1.0  0.55510  0.22162  0.76980  1.0000
  H   H3007     1.0  0.56802  0.19907  0.80400  1.0000
  H   H3008     1.0  0.40802  0.34222  0.81419  1.0000
  C   C1697     1.0  0.56584  0.22865  0.77236  1.0000
  C   C1698     1.0  0.58800  0.22860  0.73908  1.0000
  H   H3009     1.0  0.52606  0.29678  0.77648  1.0000
  C   C1699     1.0  0.52980  0.26896  0.79691  1.0000
  H   H3010     1.0  0.57223  0.25487  0.88255  1.0000
  H   H3011     1.0  0.40905  0.20514  0.97899  1.0000
  H   H3012     1.0  0.39763  0.13881  0.94849  1.0000
  H   H3013     1.0  0.41001  0.17714  0.84394  1.0000
  H   H3014     1.0  0.40485  0.22747  0.94765  1.0000
  H   H3015     1.0  0.40889  0.17737  0.64063  1.0000
  H   H3016     1.0  0.40041  0.16956  0.66623  1.0000
  H   H3017     1.0  0.44068  0.28631  0.79148  1.0000
  H   H3018     1.0  0.42211  0.12937  0.95260  1.0000
  H   H3019     1.0  0.43221  0.17653  0.66075  1.0000
  Fe  Fe179     1.0  0.40466  0.14731  0.73421  1.0000
  H   H3020     1.0  0.39342  0.45306  0.86401  1.0000
  H   H3021     1.0  0.58021  0.11159  0.86401  1.0000
  C   C1700     1.0  0.58169  0.09972  0.83951  1.0000
  C   C1701     1.0  0.58318  0.20884  0.90488  1.0000
  H   H3022     1.0  0.43168  0.45590  0.83610  1.0000
  H   H3023     1.0  0.39556  0.00514  0.79626  1.0000
  C   C1702     1.0  0.56919  0.25353  0.89860  1.0000
  C   C1703     1.0  0.58351  0.23233  0.68021  1.0000
  C   C1704     1.0  0.39194  0.45732  0.84855  1.0000
  H   H3024     1.0  0.58441  0.22638  0.93203  1.0000
  C   C1705     1.0  0.42334  0.46903  0.84179  1.0000
  H   H3025     1.0  0.41123  0.02011  0.84617  1.0000
  C   C1706     1.0  0.39015  0.11181  0.68714  1.0000
  H   H3026     1.0  0.58762  0.13082  0.87826  1.0000
  C   C1707     1.0  0.39901  0.25762  0.76168  1.0000
  H   H3027     1.0  0.39540  0.24144  0.79062  1.0000
  C   C1708     1.0  0.39376  0.02772  0.81176  1.0000
  H   H3028     1.0  0.41478  0.25556  0.76099  1.0000
  C   C1709     1.0  0.40741  0.27303  0.79390  1.0000
  H   H3029     1.0  0.40709  0.27829  0.80708  1.0000
  H   H3030     1.0  0.41731  0.28471  0.76240  1.0000
  C   C1710     1.0  0.41795  0.28676  0.77673  1.0000
  H   H3031     1.0  0.39261  0.99243  0.88186  1.0000
  H   H3032     1.0  0.58951  0.08863  0.71801  1.0000
  H   H3033     1.0  0.41129  0.30213  0.77744  1.0000
  H   H3034     1.0  0.39687  0.08875  0.55459  1.0000
  C   C1711     1.0  0.58845  0.11317  0.84875  1.0000
  C   C1712     1.0  0.39216  0.02121  0.79395  1.0000
  H   H3035     1.0  0.40465  0.24350  0.73733  1.0000
  H   H3036     1.0  0.39068  0.05037  0.83546  1.0000
  H   H3037     1.0  0.42819  0.98318  0.86921  1.0000
  C   C1713     1.0  0.39020  0.20679  0.89569  1.0000
  H   H3038     1.0  0.39170  0.04373  0.80788  1.0000
  S   S373      1.0  0.39135  0.15040  0.90007  1.0000
  H   H3039     1.0  0.58902  0.10035  0.82409  1.0000
  H   H3040     1.0  0.54317  0.78446  0.11537  1.0000
  H   H3041     1.0  0.49311  0.82437  0.24759  1.0000
  S   S374      1.0  0.55742  0.77564  0.30734  1.0000
  C   C1714     1.0  0.50162  0.59819  0.19099  1.0000
  H   H3042     1.0  0.41452  0.69533  0.33955  1.0000
  C   C1715     1.0  0.41710  0.82592  0.26319  1.0000
  C   C1716     1.0  0.50795  0.79500  0.24487  1.0000
  C   C1717     1.0  0.49059  0.55861  0.20359  1.0000
  H   H3043     1.0  0.53691  0.77491  0.22028  1.0000
  C   C1718     1.0  0.50639  0.61399  0.17314  1.0000
  H   H3044     1.0  0.50744  0.60911  0.15959  1.0000
  H   H3045     1.0  0.46644  0.59411  0.22989  1.0000
  S   S375      1.0  0.55413  0.66816  0.21900  1.0000
  H   H3046     1.0  0.42929  0.57133  0.17584  1.0000
  Fe  Fe180     1.0  0.56243  0.63584  0.22801  1.0000
  S   S376      1.0  0.53926  0.61790  0.23946  1.0000
  Fe  Fe181     1.0  0.45671  0.75345  0.31361  1.0000
  S   S377      1.0  0.43647  0.73352  0.31702  1.0000
  S   S378      1.0  0.48055  0.74216  0.33084  1.0000
  Fe  Fe182     1.0  0.43923  0.78281  0.28154  1.0000
  Fe  Fe183     1.0  0.41346  0.76067  0.31424  1.0000
  Fe  Fe184     1.0  0.44289  0.73972  0.28457  1.0000
  S   S379      1.0  0.45169  0.71733  0.26613  1.0000
  S   S380      1.0  0.43298  0.78025  0.31391  1.0000
  S   S381      1.0  0.46448  0.75781  0.28122  1.0000
  Fe  Fe185     1.0  0.43479  0.63887  0.22075  1.0000
  S   S382      1.0  0.43046  0.62117  0.25100  1.0000
  S   S383      1.0  0.46326  0.64702  0.20403  1.0000
  S   S384      1.0  0.39611  0.65886  0.28211  1.0000
  C   C1719     1.0  0.40467  0.79127  0.18078  1.0000
  H   H3047     1.0  0.55427  0.71431  0.37405  1.0000
  Fe  Fe186     1.0  0.40368  0.64392  0.25678  1.0000
  H   H3048     1.0  0.39463  0.74259  0.21789  1.0000
  Fe  Fe187     1.0  0.41174  0.60732  0.24062  1.0000
  S   S385      1.0  0.41627  0.57472  0.24802  1.0000
  S   S386      1.0  0.40909  0.66259  0.22708  1.0000
  S   S387      1.0  0.41824  0.62332  0.20967  1.0000
  Fe  Fe188     1.0  0.39208  0.64522  0.21930  1.0000
  C   C1720     1.0  0.48031  0.68501  0.31255  1.0000
  H   H3049     1.0  0.51318  0.58505  0.18971  1.0000
  C   C1721     1.0  0.44215  0.76849  0.22925  1.0000
  C   C1722     1.0  0.39389  0.85477  0.25243  1.0000
  H   H3050     1.0  0.41402  0.93143  0.24656  1.0000
  H   H3051     1.0  0.50506  0.74294  0.28651  1.0000
  C   C1723     1.0  0.47010  0.57118  0.26423  1.0000
  C   C1724     1.0  0.50241  0.73485  0.21727  1.0000
  C   C1725     1.0  0.46254  0.62263  0.28690  1.0000
  H   H3052     1.0  0.43959  0.86674  0.27086  1.0000
  H   H3053     1.0  0.49508  0.62747  0.17373  1.0000
  H   H3054     1.0  0.42772  0.90166  0.25871  1.0000
  H   H3055     1.0  0.52049  0.61741  0.17281  1.0000
  H   H3056     1.0  0.41535  0.86366  0.28250  1.0000
  C   C1726     1.0  0.45558  0.57582  0.20815  1.0000
  H   H3057     1.0  0.48385  0.55132  0.24533  1.0000
  H   H3058     1.0  0.46229  0.67177  0.30335  1.0000
  H   H3059     1.0  0.41501  0.82365  0.18082  1.0000
  C   C1727     1.0  0.40422  0.56217  0.23858  1.0000
  H   H3060     1.0  0.47030  0.60739  0.19532  1.0000
  C   C1728     1.0  0.41223  0.54262  0.23831  1.0000
  Fe  Fe189     1.0  0.58089  0.66517  0.19571  1.0000
  C   C1729     1.0  0.43629  0.70092  0.27133  1.0000
  C   C1730     1.0  0.42031  0.70122  0.28683  1.0000
  C   C1731     1.0  0.40808  0.68807  0.29032  1.0000
  C   C1732     1.0  0.41195  0.67454  0.27849  1.0000
  C   C1733     1.0  0.42820  0.67401  0.26335  1.0000
  C   C1734     1.0  0.44016  0.68733  0.25963  1.0000
  H   H3061     1.0  0.41733  0.71162  0.29600  1.0000
  H   H3062     1.0  0.51020  0.76662  0.35355  1.0000
  H   H3063     1.0  0.43153  0.66344  0.25433  1.0000
  H   H3064     1.0  0.45236  0.68716  0.24752  1.0000
  C   C1735     1.0  0.51811  0.62648  0.22970  1.0000
  C   C1736     1.0  0.50130  0.61946  0.23964  1.0000
  C   C1737     1.0  0.48412  0.62631  0.23240  1.0000
  C   C1738     1.0  0.48384  0.63973  0.21477  1.0000
  C   C1739     1.0  0.50068  0.64674  0.20484  1.0000
  C   C1740     1.0  0.51772  0.64028  0.21235  1.0000
  H   H3065     1.0  0.50162  0.60873  0.25300  1.0000
  H   H3066     1.0  0.47125  0.62091  0.24025  1.0000
  H   H3067     1.0  0.50060  0.65710  0.19119  1.0000
  H   H3068     1.0  0.53062  0.64575  0.20455  1.0000
  C   C1741     1.0  0.47661  0.58025  0.22746  1.0000
  C   C1742     1.0  0.57546  0.68883  0.27474  1.0000
  C   C1743     1.0  0.39905  0.93618  0.25437  1.0000
  H   H3069     1.0  0.47312  0.53880  0.20177  1.0000
  H   H3070     1.0  0.39833  0.68071  0.18997  1.0000
  S   S388      1.0  0.56427  0.69170  0.25524  1.0000
  H   H3071     1.0  0.46865  0.70246  0.33457  1.0000
  C   C1744     1.0  0.53652  0.76569  0.31276  1.0000
  C   C1745     1.0  0.53627  0.74685  0.32356  1.0000
  C   C1746     1.0  0.51903  0.73979  0.32892  1.0000
  C   C1747     1.0  0.50208  0.75125  0.32298  1.0000
  C   C1748     1.0  0.50250  0.76982  0.31151  1.0000
  C   C1749     1.0  0.51962  0.77710  0.30665  1.0000
  H   H3072     1.0  0.54924  0.73777  0.32806  1.0000
  H   H3073     1.0  0.51884  0.72534  0.33766  1.0000
  H   H3074     1.0  0.48947  0.77879  0.30696  1.0000
  H   H3075     1.0  0.51970  0.79171  0.29835  1.0000
  C   C1750     1.0  0.52762  0.63888  0.28839  1.0000
  H   H3076     1.0  0.45812  0.56007  0.24647  1.0000
  C   C1751     1.0  0.46792  0.64235  0.28335  1.0000
  H   H3077     1.0  0.51073  0.52099  0.21720  1.0000
  H   H3078     1.0  0.45109  0.56288  0.21847  1.0000
  C   C1752     1.0  0.40025  0.90751  0.20806  1.0000
  H   H3079     1.0  0.48104  0.59223  0.17813  1.0000
  C   C1753     1.0  0.47191  0.56429  0.24557  1.0000
  H   H3080     1.0  0.52381  0.62454  0.29553  1.0000
  C   C1754     1.0  0.48715  0.64038  0.28991  1.0000
  H   H3081     1.0  0.48840  0.73326  0.22747  1.0000
  H   H3082     1.0  0.54559  0.63722  0.30891  1.0000
  H   H3083     1.0  0.48361  0.57556  0.26427  1.0000
  H   H3084     1.0  0.50220  0.60347  0.20376  1.0000
  H   H3085     1.0  0.39049  0.65015  0.16308  1.0000
  H   H3086     1.0  0.43283  0.55500  0.19847  1.0000
  C   C1755     1.0  0.50960  0.77493  0.42825  1.0000
  H   H3087     1.0  0.52923  0.70219  0.28453  1.0000
  H   H3088     1.0  0.50431  0.72772  0.27095  1.0000
  H   H3089     1.0  0.54966  0.75077  0.22627  1.0000
  H   H3090     1.0  0.39747  0.90511  0.28632  1.0000
  H   H3091     1.0  0.41665  0.76807  0.22015  1.0000
  H   H3092     1.0  0.46012  0.61597  0.30265  1.0000
  C   C1756     1.0  0.51009  0.75461  0.23730  1.0000
  H   H3093     1.0  0.50924  0.79018  0.42857  1.0000
  H   H3094     1.0  0.53996  0.72913  0.25519  1.0000
  H   H3095     1.0  0.53928  0.74445  0.27080  1.0000
  N   N96       1.0  0.47609  0.57664  0.20808  1.0000
  C   C1757     1.0  0.42050  0.79837  0.21356  1.0000
  H   H3096     1.0  0.40241  0.89165  0.21389  1.0000
  C   C1758     1.0  0.54138  0.76350  0.23272  1.0000
  H   H3097     1.0  0.40683  0.80818  0.29074  1.0000
  H   H3098     1.0  0.49606  0.56011  0.18760  1.0000
  H   H3099     1.0  0.56106  0.70718  0.39741  1.0000
  H   H3100     1.0  0.45547  0.65159  0.29117  1.0000
  H   H3101     1.0  0.51029  0.65127  0.31219  1.0000
  N   N97       1.0  0.53683  0.77419  0.37449  1.0000
  H   H3102     1.0  0.53107  0.73696  0.21747  1.0000
  H   H3103     1.0  0.51022  0.71008  0.30395  1.0000
  H   H3104     1.0  0.47594  0.53680  0.22590  1.0000
  H   H3105     1.0  0.56179  0.77520  0.35076  1.0000
  H   H3106     1.0  0.47409  0.61270  0.27887  1.0000
  C   C1759     1.0  0.41054  0.84254  0.20041  1.0000
  H   H3107     1.0  0.42005  0.57986  0.19824  1.0000
  C   C1760     1.0  0.41377  0.95940  0.26403  1.0000
  H   H3108     1.0  0.47584  0.67773  0.26973  1.0000
  C   C1761     1.0  0.40362  0.53193  0.23067  1.0000
  H   H3109     1.0  0.45126  0.69120  0.33017  1.0000
  C   C1762     1.0  0.51161  0.65530  0.29610  1.0000
  H   H3110     1.0  0.53404  0.76794  0.13686  1.0000
  C   C1763     1.0  0.49080  0.79427  0.35075  1.0000
  H   H3111     1.0  0.51727  0.80128  0.36562  1.0000
  H   H3112     1.0  0.41457  0.96534  0.27634  1.0000
  C   C1764     1.0  0.40126  0.70492  0.34597  1.0000
  C   C1765     1.0  0.39762  0.66047  0.15100  1.0000
  C   C1766     1.0  0.57179  0.77739  0.22332  1.0000
  S   S389      1.0  0.58438  0.73177  0.34273  1.0000
  C   C1767     1.0  0.46655  0.68909  0.33142  1.0000
  H   H3113     1.0  0.40081  0.93358  0.21627  1.0000
  H   H3114     1.0  0.39739  0.71541  0.17440  1.0000
  C   C1768     1.0  0.39010  0.74699  0.36454  1.0000
  H   H3115     1.0  0.42507  0.83678  0.20411  1.0000
  C   C1769     1.0  0.55787  0.80043  0.36325  1.0000
  H   H3116     1.0  0.42304  0.84661  0.23647  1.0000
  H   H3117     1.0  0.42530  0.53572  0.24384  1.0000
  H   H3118     1.0  0.49972  0.77155  0.26760  1.0000
  H   H3119     1.0  0.42672  0.87859  0.29074  1.0000
  S   S390      1.0  0.58576  0.68296  0.16541  1.0000
  H   H3120     1.0  0.40767  0.97163  0.25309  1.0000
  C   C1770     1.0  0.56137  0.75547  0.11996  1.0000
  H   H3121     1.0  0.39746  0.76295  0.18526  1.0000
  C   C1771     1.0  0.57222  0.75672  0.09845  1.0000
  H   H3122     1.0  0.41658  0.88639  0.25060  1.0000
  H   H3123     1.0  0.49808  0.80038  0.33585  1.0000
  H   H3124     1.0  0.47909  0.78769  0.34955  1.0000
  C   C1772     1.0  0.41728  0.89185  0.26325  1.0000
  C   C1773     1.0  0.54155  0.76919  0.12138  1.0000
  H   H3125     1.0  0.57312  0.70529  0.19533  1.0000
  C   C1774     1.0  0.40168  0.91796  0.22317  1.0000
  C   C1775     1.0  0.40390  0.82712  0.19378  1.0000
  H   H3126     1.0  0.55880  0.74065  0.12683  1.0000
  H   H3127     1.0  0.56553  0.71889  0.27646  1.0000
  H   H3128     1.0  0.39301  0.72398  0.26216  1.0000
  H   H3129     1.0  0.42867  0.95270  0.25739  1.0000
  H   H3130     1.0  0.57854  0.81937  0.35149  1.0000
  C   C1776     1.0  0.50522  0.77876  0.36138  1.0000
  H   H3131     1.0  0.49733  0.77322  0.37608  1.0000
  H   H3132     1.0  0.43170  0.79731  0.20003  1.0000
  H   H3133     1.0  0.46309  0.56676  0.17991  1.0000
  H   H3134     1.0  0.41157  0.91036  0.19480  1.0000
  H   H3135     1.0  0.56293  0.75299  0.09048  1.0000
  H   H3136     1.0  0.46955  0.67692  0.34378  1.0000
  H   H3137     1.0  0.39555  0.68845  0.30203  1.0000
  C   C1777     1.0  0.50033  0.52190  0.20803  1.0000
  H   H3138     1.0  0.44890  0.62457  0.28184  1.0000
  H   H3139     1.0  0.41984  0.78429  0.18200  1.0000
  H   H3140     1.0  0.41716  0.87122  0.18911  1.0000
  H   H3141     1.0  0.55219  0.65212  0.28512  1.0000
  H   H3142     1.0  0.56758  0.77015  0.37409  1.0000
  S   S391      1.0  0.58755  0.63268  0.20270  1.0000
  H   H3143     1.0  0.44755  0.77725  0.23638  1.0000
  H   H3144     1.0  0.51753  0.66883  0.29123  1.0000
  H   H3145     1.0  0.40417  0.77446  0.16026  1.0000
  H   H3146     1.0  0.41240  0.77872  0.24117  1.0000
  H   H3147     1.0  0.41690  0.71964  0.23686  1.0000
  H   H3148     1.0  0.57899  0.80351  0.33604  1.0000
  C   C1778     1.0  0.53094  0.77863  0.39458  1.0000
  C   C1779     1.0  0.51209  0.77262  0.40739  1.0000
  C   C1780     1.0  0.42515  0.87417  0.27780  1.0000
  C   C1781     1.0  0.55660  0.77898  0.36541  1.0000
  H   H3149     1.0  0.53243  0.76541  0.11335  1.0000
  H   H3150     1.0  0.40002  0.71954  0.33634  1.0000
  H   H3151     1.0  0.58604  0.81238  0.26949  1.0000
  H   H3152     1.0  0.49853  0.63261  0.27962  1.0000
  H   H3153     1.0  0.58159  0.71627  0.30317  1.0000
  H   H3154     1.0  0.52421  0.74881  0.37993  1.0000
  C   C1782     1.0  0.49079  0.67395  0.27240  1.0000
  H   H3155     1.0  0.40514  0.74396  0.35730  1.0000
  H   H3156     1.0  0.58283  0.78104  0.22905  1.0000
  S   S392      1.0  0.41827  0.76511  0.28182  1.0000
  H   H3157     1.0  0.54295  0.77206  0.40265  1.0000
  H   H3158     1.0  0.52866  0.79448  0.39370  1.0000
  H   H3159     1.0  0.51197  0.75731  0.40805  1.0000
  H   H3160     1.0  0.49939  0.78219  0.40173  1.0000
  H   H3161     1.0  0.54654  0.81073  0.35594  1.0000
  H   H3162     1.0  0.54771  0.74054  0.40314  1.0000
  H   H3163     1.0  0.41781  0.70384  0.20126  1.0000
  H   H3164     1.0  0.42214  0.85688  0.17096  1.0000
  C   C1783     1.0  0.57746  0.80449  0.35136  1.0000
  C   C1784     1.0  0.39614  0.77708  0.17484  1.0000
  H   H3165     1.0  0.40274  0.70596  0.36048  1.0000
  H   H3166     1.0  0.42563  0.80684  0.22128  1.0000
  H   H3167     1.0  0.49583  0.75349  0.24720  1.0000
  C   C1785     1.0  0.55062  0.71744  0.38887  1.0000
  H   H3168     1.0  0.56724  0.73943  0.38234  1.0000
  S   S393      1.0  0.58092  0.63615  0.24851  1.0000
  H   H3169     1.0  0.52166  0.76521  0.43497  1.0000
  H   H3170     1.0  0.47555  0.65551  0.32055  1.0000
  H   H3171     1.0  0.56367  0.75761  0.25011  1.0000
  H   H3172     1.0  0.51053  0.67945  0.22274  1.0000
  H   H3173     1.0  0.49120  0.58210  0.22766  1.0000
  C   C1786     1.0  0.41242  0.84285  0.24946  1.0000
  H   H3174     1.0  0.49557  0.69705  0.23673  1.0000
  H   H3175     1.0  0.40022  0.84722  0.21323  1.0000
  H   H3176     1.0  0.48573  0.67803  0.23341  1.0000
  C   C1787     1.0  0.42398  0.71050  0.20980  1.0000
  H   H3177     1.0  0.49520  0.68292  0.31487  1.0000
  H   H3178     1.0  0.51969  0.67022  0.25403  1.0000
  C   C1788     1.0  0.42144  0.77784  0.22655  1.0000
  H   H3179     1.0  0.50362  0.55687  0.20971  1.0000
  H   H3180     1.0  0.53278  0.71779  0.29854  1.0000
  C   C1789     1.0  0.57380  0.70506  0.28235  1.0000
  C   C1790     1.0  0.52289  0.78678  0.36172  1.0000
  H   H3181     1.0  0.49475  0.50825  0.21261  1.0000
  H   H3182     1.0  0.54375  0.75026  0.35991  1.0000
  C   C1791     1.0  0.53033  0.74084  0.26245  1.0000
  H   H3183     1.0  0.43747  0.70041  0.21332  1.0000
  C   C1792     1.0  0.55188  0.73827  0.38801  1.0000
  H   H3184     1.0  0.40469  0.80426  0.16878  1.0000
  H   H3185     1.0  0.47769  0.69811  0.30094  1.0000
  H   H3186     1.0  0.46740  0.55926  0.27699  1.0000
  H   H3187     1.0  0.40662  0.69958  0.23703  1.0000
  H   H3188     1.0  0.44241  0.75382  0.23866  1.0000
  C   C1793     1.0  0.50501  0.66849  0.25397  1.0000
  H   H3189     1.0  0.55792  0.62602  0.28855  1.0000
  H   H3190     1.0  0.45771  0.58365  0.26572  1.0000
  C   C1794     1.0  0.53853  0.75299  0.37495  1.0000
  C   C1795     1.0  0.51346  0.77481  0.25797  1.0000
  C   C1796     1.0  0.45133  0.57635  0.18814  1.0000
  H   H3191     1.0  0.42771  0.72438  0.20085  1.0000
  C   C1797     1.0  0.40962  0.71381  0.22861  1.0000
  H   H3192     1.0  0.52977  0.64049  0.27249  1.0000
  H   H3193     1.0  0.52204  0.77623  0.26797  1.0000
  S   S394      1.0  0.43981  0.81039  0.25901  1.0000
  H   H3194     1.0  0.49362  0.68781  0.27367  1.0000
  C   C1798     1.0  0.54699  0.63860  0.29307  1.0000
  C   C1799     1.0  0.47687  0.66707  0.30710  1.0000
  H   H3195     1.0  0.56521  0.79065  0.21377  1.0000
  N   N98       1.0  0.52382  0.75843  0.24761  1.0000
  H   H3196     1.0  0.56962  0.75964  0.12857  1.0000
  C   C1800     1.0  0.41187  0.86063  0.18426  1.0000
  H   H3197     1.0  0.49835  0.79459  0.23542  1.0000
  H   H3198     1.0  0.41623  0.91214  0.22666  1.0000
  C   C1801     1.0  0.49700  0.81004  0.25721  1.0000
  H   H3199     1.0  0.48417  0.80614  0.35885  1.0000
  H   H3200     1.0  0.50798  0.52325  0.19258  1.0000
  C   C1802     1.0  0.43221  0.57024  0.19038  1.0000
  N   N99       1.0  0.40102  0.80887  0.20882  1.0000
  H   H3201     1.0  0.50582  0.65345  0.25299  1.0000
  H   H3202     1.0  0.50795  0.72199  0.21044  1.0000
  C   C1803     1.0  0.51395  0.73221  0.27778  1.0000
  C   C1804     1.0  0.52215  0.71445  0.29198  1.0000
  H   H3203     1.0  0.57248  0.77225  0.09234  1.0000
  H   H3204     1.0  0.48337  0.80587  0.26639  1.0000
  H   H3205     1.0  0.52103  0.80013  0.23557  1.0000
  H   H3206     1.0  0.45003  0.59139  0.17935  1.0000
  H   H3207     1.0  0.54946  0.78189  0.24823  1.0000
  C   C1805     1.0  0.49880  0.68163  0.23561  1.0000
  C   C1806     1.0  0.51721  0.73637  0.22811  1.0000
  H   H3208     1.0  0.48690  0.63020  0.30430  1.0000
  H   H3209     1.0  0.53058  0.78969  0.34619  1.0000
  C   C1807     1.0  0.58328  0.70369  0.29725  1.0000
  H   H3210     1.0  0.51936  0.72288  0.23935  1.0000
  Fe  Fe190     1.0  0.57396  0.66833  0.23789  1.0000
  H   H3211     1.0  0.45200  0.76696  0.21506  1.0000
  H   H3212     1.0  0.44529  0.58819  0.21380  1.0000
  H   H3213     1.0  0.49575  0.77101  0.43704  1.0000
  C   C1808     1.0  0.55630  0.77000  0.24024  1.0000
  H   H3214     1.0  0.53581  0.71495  0.39599  1.0000
  N   N100      1.0  0.49191  0.65905  0.29096  1.0000
  C   C1809     1.0  0.48131  0.59400  0.19278  1.0000
  H   H3215     1.0  0.50610  0.81146  0.26670  1.0000
  H   H3216     1.0  0.46951  0.64874  0.26754  1.0000
  H   H3217     1.0  0.50681  0.76712  0.22529  1.0000
  H   H3218     1.0  0.41017  0.51690  0.23032  1.0000
  C   C1810     1.0  0.48345  0.53913  0.21049  1.0000
  H   H3219     1.0  0.49995  0.74791  0.20559  1.0000
  H   H3220     1.0  0.55626  0.80367  0.37775  1.0000
  H   H3221     1.0  0.40861  0.65226  0.14077  1.0000
  C   C1811     1.0  0.40081  0.94443  0.27135  1.0000
  H   H3222     1.0  0.40516  0.66810  0.15724  1.0000
  H   H3223     1.0  0.39572  0.73219  0.39297  1.0000
  H   H3224     1.0  0.39232  0.94870  0.24401  1.0000
  H   H3225     1.0  0.58434  0.73292  0.19969  1.0000
  C   C1812     1.0  0.40342  0.82124  0.28008  1.0000
  H   H3226     1.0  0.57999  0.76942  0.05890  1.0000
  H   H3227     1.0  0.40713  0.93276  0.28252  1.0000
  Fe  Fe191     1.0  0.58451  0.75653  0.31703  1.0000
  H   H3228     1.0  0.39503  0.81762  0.23654  1.0000
  C   C1813     1.0  0.58410  0.71152  0.18417  1.0000
  C   C1814     1.0  0.39688  0.90216  0.27225  1.0000
  H   H3229     1.0  0.38975  0.78344  0.21045  1.0000
  H   H3230     1.0  0.57885  0.72023  0.09738  1.0000
  H   H3231     1.0  0.57911  0.76616  0.21452  1.0000
  C   C1815     1.0  0.58625  0.67095  0.28251  1.0000
  C   C1816     1.0  0.39071  0.72818  0.22445  1.0000
  H   H3232     1.0  0.39738  0.86759  0.18073  1.0000
  C   C1817     1.0  0.39255  0.79700  0.20011  1.0000
  H   H3233     1.0  0.58742  0.65828  0.27684  1.0000
  H   H3234     1.0  0.58576  0.72048  0.11911  1.0000
  H   H3235     1.0  0.39024  0.86766  0.24172  1.0000
  H   H3236     1.0  0.39025  0.83431  0.18840  1.0000
  H   H3237     1.0  0.39036  0.68565  0.12927  1.0000
  H   H3238     1.0  0.58948  0.79407  0.35761  1.0000
  C   C1818     1.0  0.49472  0.68799  0.82216  1.0000
  S   S395      1.0  0.57147  0.81333  0.73118  1.0000
  H   H3239     1.0  0.58210  0.63477  0.83085  1.0000
  H   H3240     1.0  0.58226  0.86532  0.63580  1.0000
  H   H3241     1.0  0.47003  0.75319  0.80312  1.0000
  Fe  Fe192     1.0  0.56232  0.78495  0.74497  1.0000
  S   S396      1.0  0.53035  0.78384  0.75145  1.0000
  H   H3242     1.0  0.43495  0.71210  0.95318  1.0000
  C   C1819     1.0  0.54827  0.74277  0.81484  1.0000
  C   C1820     1.0  0.41137  0.68240  0.74538  1.0000
  Fe  Fe193     1.0  0.54970  0.66599  0.89510  1.0000
  H   H3243     1.0  0.55760  0.75687  0.91396  1.0000
  S   S397      1.0  0.51852  0.66401  0.90951  1.0000
  C   C1821     1.0  0.46954  0.68926  0.95573  1.0000
  H   H3244     1.0  0.56633  0.73430  0.87141  1.0000
  H   H3245     1.0  0.40509  0.74578  0.78537  1.0000
  H   H3246     1.0  0.42763  0.72931  0.88180  1.0000
  H   H3247     1.0  0.50133  0.70366  0.76292  1.0000
  S   S398      1.0  0.55854  0.69306  0.87584  1.0000
  C   C1822     1.0  0.57021  0.84010  0.65164  1.0000
  Fe  Fe194     1.0  0.40584  0.68150  0.86488  1.0000
  S   S399      1.0  0.42203  0.65940  0.84703  1.0000
  H   H3248     1.0  0.49974  0.67198  0.82464  1.0000
  H   H3249     1.0  0.41395  0.74822  0.89493  1.0000
  S   S400      1.0  0.41302  0.62586  0.88621  1.0000
  S   S401      1.0  0.57383  0.65935  0.91152  1.0000
  Fe  Fe195     1.0  0.43563  0.64437  0.87283  1.0000
  S   S402      1.0  0.46837  0.63542  0.86689  1.0000
  H   H3250     1.0  0.56945  0.60314  0.88171  1.0000
  H   H3251     1.0  0.47665  0.70622  0.73458  1.0000
  S   S403      1.0  0.42104  0.66768  0.88955  1.0000
  H   H3252     1.0  0.39654  0.76156  0.57923  1.0000
  Fe  Fe196     1.0  0.44935  0.77094  0.70864  1.0000
  S   S404      1.0  0.43674  0.77524  0.73907  1.0000
  S   S405      1.0  0.48092  0.77287  0.69587  1.0000
  Fe  Fe197     1.0  0.41324  0.75710  0.70582  1.0000
  S   S406      1.0  0.58930  0.83062  0.76903  1.0000
  H   H3253     1.0  0.52849  0.82387  0.72225  1.0000
  Fe  Fe198     1.0  0.40895  0.78826  0.72831  1.0000
  H   H3254     1.0  0.39274  0.59757  0.86776  1.0000
  Fe  Fe199     1.0  0.42793  0.74694  0.74362  1.0000
  S   S407      1.0  0.43743  0.72069  0.76542  1.0000
  S   S408      1.0  0.42201  0.78610  0.69714  1.0000
  S   S409      1.0  0.44186  0.74179  0.71385  1.0000
  H   H3255     1.0  0.40355  0.73250  0.54175  1.0000
  H   H3256     1.0  0.43754  0.70911  0.91247  1.0000
  Fe  Fe200     1.0  0.39823  0.64292  0.86145  1.0000
  C   C1823     1.0  0.53129  0.83253  0.69077  1.0000
  C   C1824     1.0  0.53839  0.60376  0.89470  1.0000
  C   C1825     1.0  0.54643  0.73022  0.75892  1.0000
  N   N101      1.0  0.40941  0.67106  0.78266  1.0000
  H   H3257     1.0  0.41059  0.68055  0.92621  1.0000
  H   H3258     1.0  0.54550  0.73819  0.74388  1.0000
  C   C1826     1.0  0.53562  0.80399  0.66513  1.0000
  H   H3259     1.0  0.52701  0.59878  0.89081  1.0000
  C   C1827     1.0  0.41253  0.71828  0.82951  1.0000
  H   H3260     1.0  0.40660  0.79541  0.82341  1.0000
  C   C1828     1.0  0.41205  0.73476  0.79599  1.0000
  C   C1829     1.0  0.42859  0.72134  0.78990  1.0000
  C   C1830     1.0  0.43768  0.70717  0.80356  1.0000
  C   C1831     1.0  0.42971  0.70569  0.82336  1.0000
  H   H3261     1.0  0.48442  0.68170  0.94996  1.0000
  H   H3262     1.0  0.56825  0.59792  0.84974  1.0000
  H   H3263     1.0  0.45055  0.69687  0.79884  1.0000
  H   H3264     1.0  0.43664  0.69452  0.83388  1.0000
  C   C1832     1.0  0.44099  0.65562  0.79628  1.0000
  S   S410      1.0  0.57425  0.67993  0.82476  1.0000
  H   H3265     1.0  0.47273  0.72054  0.80334  1.0000
  H   H3266     1.0  0.53303  0.74793  0.81294  1.0000
  H   H3267     1.0  0.42694  0.66158  0.96313  1.0000
  H   H3268     1.0  0.40728  0.70666  0.90352  1.0000
  C   C1833     1.0  0.39966  0.70361  0.95197  1.0000
  H   H3269     1.0  0.40093  0.72009  0.57409  1.0000
  H   H3270     1.0  0.44048  0.77036  0.78961  1.0000
  H   H3271     1.0  0.39064  0.74288  0.82061  1.0000
  H   H3272     1.0  0.46925  0.61006  0.92791  1.0000
  C   C1834     1.0  0.42189  0.67956  0.93435  1.0000
  C   C1835     1.0  0.50408  0.65827  0.89639  1.0000
  C   C1836     1.0  0.51173  0.65386  0.87797  1.0000
  C   C1837     1.0  0.50056  0.64718  0.86890  1.0000
  C   C1838     1.0  0.48135  0.64566  0.87775  1.0000
  C   C1839     1.0  0.47335  0.65104  0.89572  1.0000
  C   C1840     1.0  0.48477  0.65709  0.90508  1.0000
  H   H3273     1.0  0.52643  0.65509  0.87089  1.0000
  H   H3274     1.0  0.50685  0.64308  0.85500  1.0000
  H   H3275     1.0  0.45870  0.64961  0.90281  1.0000
  H   H3276     1.0  0.47884  0.66028  0.91934  1.0000
  H   H3277     1.0  0.51632  0.84826  0.71372  1.0000
  H   H3278     1.0  0.43781  0.65950  0.76681  1.0000
  C   C1841     1.0  0.55233  0.60713  0.92043  1.0000
  C   C1842     1.0  0.48844  0.71868  0.79641  1.0000
  C   C1843     1.0  0.48976  0.71690  0.76239  1.0000
  H   H3279     1.0  0.39350  0.77784  0.62746  1.0000
  C   C1844     1.0  0.56498  0.75031  0.86641  1.0000
  H   H3280     1.0  0.55813  0.73512  0.90635  1.0000
  H   H3281     1.0  0.41857  0.71203  0.60087  1.0000
  H   H3282     1.0  0.42522  0.63041  0.95643  1.0000
  C   C1845     1.0  0.49469  0.77619  0.71119  1.0000
  C   C1846     1.0  0.48595  0.78604  0.72636  1.0000
  C   C1847     1.0  0.49718  0.78868  0.73822  1.0000
  C   C1848     1.0  0.51732  0.78187  0.73483  1.0000
  C   C1849     1.0  0.52616  0.77218  0.71954  1.0000
  C   C1850     1.0  0.51484  0.76920  0.70789  1.0000
  H   H3283     1.0  0.47056  0.79189  0.72882  1.0000
  H   H3284     1.0  0.49019  0.79609  0.75009  1.0000
  H   H3285     1.0  0.54158  0.76644  0.71711  1.0000
  H   H3286     1.0  0.52169  0.76133  0.69636  1.0000
  N   N102      1.0  0.49107  0.72947  0.77540  1.0000
  H   H3287     1.0  0.56238  0.58744  0.94600  1.0000
  H   H3288     1.0  0.56191  0.58096  0.88359  1.0000
  H   H3289     1.0  0.55023  0.78284  0.64627  1.0000
  H   H3290     1.0  0.51135  0.69229  0.79299  1.0000
  H   H3291     1.0  0.51040  0.74644  0.75457  1.0000
  H   H3292     1.0  0.48042  0.62274  0.93885  1.0000
  H   H3293     1.0  0.53164  0.79290  0.67822  1.0000
  C   C1851     1.0  0.55133  0.75120  0.83074  1.0000
  C   C1852     1.0  0.42329  0.71388  0.92180  1.0000
  C   C1853     1.0  0.40879  0.72639  0.59784  1.0000
  H   H3294     1.0  0.54756  0.74038  0.76746  1.0000
  H   H3295     1.0  0.50400  0.69401  0.82808  1.0000
  H   H3296     1.0  0.40996  0.77084  0.83730  1.0000
  H   H3297     1.0  0.41008  0.69620  0.71532  1.0000
  C   C1854     1.0  0.53798  0.79549  0.64700  1.0000
  H   H3298     1.0  0.45647  0.67163  0.94568  1.0000
  H   H3299     1.0  0.44425  0.64112  0.93935  1.0000
  H   H3300     1.0  0.51969  0.56338  0.92681  1.0000
  H   H3301     1.0  0.42434  0.72748  0.92537  1.0000
  H   H3302     1.0  0.57559  0.79365  0.64896  1.0000
  H   H3303     1.0  0.47662  0.75612  0.75892  1.0000
  C   C1855     1.0  0.40383  0.69940  0.73004  1.0000
  C   C1856     1.0  0.45358  0.77678  0.78578  1.0000
  H   H3304     1.0  0.40122  0.66530  0.81411  1.0000
  H   H3305     1.0  0.55789  0.74742  0.80074  1.0000
  H   H3306     1.0  0.51055  0.74577  0.77887  1.0000
  H   H3307     1.0  0.53239  0.84612  0.67976  1.0000
  C   C1857     1.0  0.49610  0.69637  0.80040  1.0000
  H   H3308     1.0  0.46069  0.74220  0.77617  1.0000
  C   C1858     1.0  0.47174  0.76089  0.78769  1.0000
  H   H3309     1.0  0.48423  0.76815  0.78410  1.0000
  C   C1859     1.0  0.45550  0.68734  0.94426  1.0000
  H   H3310     1.0  0.56819  0.61128  0.96055  1.0000
  H   H3311     1.0  0.43636  0.68133  0.77413  1.0000
  C   C1860     1.0  0.56802  0.75827  0.88296  1.0000
  H   H3312     1.0  0.55132  0.61959  0.85538  1.0000
  H   H3313     1.0  0.40696  0.70043  0.76618  1.0000
  C   C1861     1.0  0.40811  0.71937  0.90871  1.0000
  H   H3314     1.0  0.51679  0.61907  0.92986  1.0000
  C   C1862     1.0  0.57274  0.74505  0.83327  1.0000
  C   C1863     1.0  0.48176  0.60881  0.93458  1.0000
  S   S411      1.0  0.56632  0.64705  0.87423  1.0000
  H   H3315     1.0  0.51680  0.59488  0.94300  1.0000
  H   H3316     1.0  0.49506  0.72500  0.80492  1.0000
  H   H3317     1.0  0.50294  0.69998  0.72954  1.0000
  S   S412      1.0  0.57661  0.78021  0.77040  1.0000
  H   H3318     1.0  0.39530  0.48759  0.84379  1.0000
  H   H3319     1.0  0.48123  0.59698  0.94772  1.0000
  N   N103      1.0  0.53843  0.59728  0.91616  1.0000
  C   C1864     1.0  0.53416  0.56277  0.91703  1.0000
  H   H3320     1.0  0.54431  0.57125  0.93798  1.0000
  C   C1865     1.0  0.55496  0.75121  0.90228  1.0000
  H   H3321     1.0  0.50119  0.59069  0.91582  1.0000
  H   H3322     1.0  0.53460  0.61987  0.89087  1.0000
  C   C1866     1.0  0.50982  0.73664  0.76908  1.0000
  H   H3323     1.0  0.47606  0.71144  0.76791  1.0000
  H   H3324     1.0  0.55979  0.71874  0.75817  1.0000
  H   H3325     1.0  0.39383  0.73560  0.94445  1.0000
  H   H3326     1.0  0.50390  0.73239  0.73409  1.0000
  H   H3327     1.0  0.47776  0.73855  0.73864  1.0000
  H   H3328     1.0  0.56723  0.60300  0.91201  1.0000
  H   H3329     1.0  0.43590  0.67622  0.92403  1.0000
  C   C1867     1.0  0.39133  0.74527  0.54103  1.0000
  C   C1868     1.0  0.56565  0.61588  0.94546  1.0000
  C   C1869     1.0  0.41332  0.76624  0.54004  1.0000
  C   C1870     1.0  0.42413  0.77302  0.55214  1.0000
  H   H3330     1.0  0.54050  0.80659  0.63347  1.0000
  H   H3331     1.0  0.40461  0.72531  0.96547  1.0000
  Fe  Fe201     1.0  0.58432  0.68474  0.89021  1.0000
  H   H3332     1.0  0.39097  0.80895  0.63954  1.0000
  C   C1871     1.0  0.44101  0.78196  0.53911  1.0000
  H   H3333     1.0  0.40408  0.66219  0.95781  1.0000
  C   C1872     1.0  0.57506  0.77637  0.83854  1.0000
  H   H3334     1.0  0.40231  0.73842  0.88164  1.0000
  C   C1873     1.0  0.50062  0.60444  0.91988  1.0000
  H   H3335     1.0  0.39437  0.72561  0.60751  1.0000
  H   H3336     1.0  0.45178  0.78664  0.79576  1.0000
  S   S413      1.0  0.39871  0.76020  0.73640  1.0000
  H   H3337     1.0  0.39777  0.69266  0.96580  1.0000
  H   H3338     1.0  0.42386  0.75397  0.53428  1.0000
  H   H3339     1.0  0.41122  0.77789  0.52696  1.0000
  H   H3340     1.0  0.43022  0.76052  0.56279  1.0000
  H   H3341     1.0  0.41457  0.78383  0.56045  1.0000
  H   H3342     1.0  0.56716  0.70718  0.79038  1.0000
  H   H3343     1.0  0.42170  0.73121  0.56726  1.0000
  C   C1874     1.0  0.40701  0.73157  0.57653  1.0000
  H   H3344     1.0  0.58558  0.73120  0.76767  1.0000
  C   C1875     1.0  0.57113  0.79599  0.66413  1.0000
  H   H3345     1.0  0.56393  0.77432  0.87985  1.0000
  Fe  Fe202     1.0  0.58798  0.80705  0.75490  1.0000
  C   C1876     1.0  0.57144  0.85754  0.63472  1.0000
  C   C1877     1.0  0.40397  0.73319  0.81590  1.0000
  H   H3346     1.0  0.45143  0.77136  0.53092  1.0000
  H   H3347     1.0  0.43563  0.79515  0.52870  1.0000
  H   H3348     1.0  0.44878  0.78617  0.54818  1.0000
  H   H3349     1.0  0.54283  0.59772  0.85758  1.0000
  H   H3350     1.0  0.57599  0.72895  0.83827  1.0000
  H   H3351     1.0  0.53945  0.75639  0.90134  1.0000
  H   H3352     1.0  0.39356  0.72532  0.91660  1.0000
  H   H3353     1.0  0.53046  0.71346  0.78339  1.0000
  H   H3354     1.0  0.52158  0.78269  0.63434  1.0000
  H   H3355     1.0  0.46956  0.64294  0.80274  1.0000
  H   H3356     1.0  0.46732  0.64120  0.77916  1.0000
  H   H3357     1.0  0.46882  0.66417  0.78341  1.0000
  H   H3358     1.0  0.40274  0.72362  0.51159  1.0000
  H   H3359     1.0  0.51694  0.77688  0.66051  1.0000
  H   H3360     1.0  0.54956  0.75639  0.86553  1.0000
  H   H3361     1.0  0.52913  0.71033  0.75988  1.0000
  C   C1878     1.0  0.54531  0.57567  0.92199  1.0000
  H   H3362     1.0  0.58019  0.81377  0.82188  1.0000
  C   C1879     1.0  0.57082  0.77603  0.67821  1.0000
  Fe  Fe203     1.0  0.57678  0.67348  0.85594  1.0000
  N   N104      1.0  0.41977  0.69858  0.94006  1.0000
  C   C1880     1.0  0.41340  0.73481  0.89072  1.0000
  H   H3363     1.0  0.40713  0.66932  0.74402  1.0000
  H   H3364     1.0  0.48722  0.68919  0.79523  1.0000
  C   C1881     1.0  0.51972  0.78856  0.64751  1.0000
  H   H3365     1.0  0.47949  0.69122  0.83019  1.0000
  C   C1882     1.0  0.52876  0.72103  0.76841  1.0000
  S   S414      1.0  0.58774  0.76748  0.72762  1.0000
  H   H3366     1.0  0.40817  0.71278  0.73056  1.0000
  H   H3367     1.0  0.54147  0.74569  0.84429  1.0000
  C   C1883     1.0  0.54896  0.81597  0.68639  1.0000
  C   C1884     1.0  0.41971  0.66183  0.95139  1.0000
  C   C1885     1.0  0.43131  0.66737  0.77894  1.0000
  H   H3368     1.0  0.55962  0.78338  0.84313  1.0000
  H   H3369     1.0  0.43787  0.66435  0.80749  1.0000
  C   C1886     1.0  0.40383  0.65218  0.78381  1.0000
  H   H3370     1.0  0.56628  0.81428  0.84628  1.0000
  H   H3371     1.0  0.49036  0.71953  0.71347  1.0000
  C   C1887     1.0  0.49012  0.71209  0.72891  1.0000
  H   H3372     1.0  0.39854  0.77727  0.81650  1.0000
  C   C1888     1.0  0.39348  0.75163  0.57167  1.0000
  H   H3373     1.0  0.46060  0.69372  0.92876  1.0000
  H   H3374     1.0  0.43588  0.64189  0.80303  1.0000
  C   C1889     1.0  0.46304  0.65071  0.78990  1.0000
  H   H3375     1.0  0.54005  0.60432  0.95207  1.0000
  N   N105      1.0  0.57803  0.75476  0.84671  1.0000
  H   H3376     1.0  0.53238  0.56721  0.90173  1.0000
  H   H3377     1.0  0.55120  0.72669  0.81896  1.0000
  C   C1890     1.0  0.47462  0.74695  0.77378  1.0000
  C   C1891     1.0  0.54478  0.54157  0.92019  1.0000
  C   C1892     1.0  0.40127  0.67794  0.80163  1.0000
  H   H3378     1.0  0.54686  0.76721  0.82681  1.0000
  H   H3379     1.0  0.40230  0.75830  0.51042  1.0000
  H   H3380     1.0  0.49983  0.61609  0.90668  1.0000
  C   C1893     1.0  0.55745  0.59699  0.88062  1.0000
  H   H3381     1.0  0.45485  0.78548  0.77069  1.0000
  C   C1894     1.0  0.49051  0.72660  0.74059  1.0000
  H   H3382     1.0  0.56865  0.77754  0.69342  1.0000
  C   C1895     1.0  0.51851  0.60393  0.92802  1.0000
  C   C1896     1.0  0.43440  0.69733  0.95201  1.0000
  H   H3383     1.0  0.46537  0.68258  0.97135  1.0000
  H   H3384     1.0  0.55721  0.63101  0.94358  1.0000
  H   H3385     1.0  0.56209  0.81935  0.68887  1.0000
  C   C1897     1.0  0.55522  0.82880  0.65061  1.0000
  S   S415      1.0  0.40075  0.71385  0.85386  1.0000
  H   H3386     1.0  0.41142  0.64618  0.77063  1.0000
  C   C1898     1.0  0.42832  0.64280  0.94436  1.0000
  C   C1899     1.0  0.40005  0.78236  0.82909  1.0000
  H   H3387     1.0  0.41482  0.73736  0.60128  1.0000
  H   H3388     1.0  0.56103  0.57146  0.91567  1.0000
  Fe  Fe204     1.0  0.39718  0.65091  0.90080  1.0000
  H   H3389     1.0  0.54664  0.53616  0.93549  1.0000
  H   H3390     1.0  0.54614  0.80313  0.69801  1.0000
  C   C1900     1.0  0.52958  0.83706  0.71057  1.0000
  H   H3391     1.0  0.57993  0.61527  0.93526  1.0000
  H   H3392     1.0  0.42740  0.68029  0.74183  1.0000
  H   H3393     1.0  0.54231  0.84272  0.71067  1.0000
  H   H3394     1.0  0.54806  0.62319  0.91566  1.0000
  C   C1901     1.0  0.58794  0.78771  0.84351  1.0000
  C   C1902     1.0  0.55434  0.60255  0.94201  1.0000
  H   H3395     1.0  0.54111  0.83917  0.64998  1.0000
  C   C1903     1.0  0.38979  0.75187  0.51929  1.0000
  H   H3396     1.0  0.57772  0.77941  0.82234  1.0000
  H   H3397     1.0  0.51762  0.82826  0.69112  1.0000
  H   H3398     1.0  0.52257  0.81591  0.66507  1.0000
  S   S416      1.0  0.39599  0.74194  0.69458  1.0000
  H   H3399     1.0  0.42994  0.68973  0.96730  1.0000
  C   C1904     1.0  0.40299  0.68667  0.76605  1.0000
  H   H3400     1.0  0.50690  0.80071  0.64789  1.0000
  C   C1905     1.0  0.58094  0.70810  0.79266  1.0000
  H   H3401     1.0  0.57609  0.85276  0.62062  1.0000
  N   N106      1.0  0.55274  0.81118  0.66659  1.0000
  H   H3402     1.0  0.55924  0.53991  0.91031  1.0000
  H   H3403     1.0  0.55991  0.82458  0.63620  1.0000
  H   H3404     1.0  0.55719  0.86776  0.63514  1.0000
  H   H3405     1.0  0.41076  0.68659  0.80384  1.0000
  C   C1906     1.0  0.58087  0.80959  0.83754  1.0000
  H   H3406     1.0  0.42190  0.64237  0.93222  1.0000
  H   H3407     1.0  0.46978  0.70475  0.95425  1.0000
  H   H3408     1.0  0.53625  0.53253  0.91703  1.0000
  C   C1907     1.0  0.39416  0.72376  0.95755  1.0000
  H   H3409     1.0  0.58331  0.80112  0.66629  1.0000
  H   H3410     1.0  0.58491  0.83078  0.65085  1.0000
  H   H3411     1.0  0.55916  0.76943  0.67705  1.0000
  N   N107      1.0  0.39426  0.76033  0.55035  1.0000
  H   H3412     1.0  0.40474  0.77045  0.65865  1.0000
  C   C1908     1.0  0.55474  0.60350  0.85957  1.0000
  H   H3413     1.0  0.58178  0.74805  0.81839  1.0000
  H   H3414     1.0  0.58315  0.75355  0.88514  1.0000
  H   H3415     1.0  0.40886  0.64101  0.79611  1.0000
  C   C1909     1.0  0.39516  0.76225  0.65676  1.0000
  H   H3416     1.0  0.56622  0.84566  0.66526  1.0000
  C   C1910     1.0  0.58799  0.69618  0.80883  1.0000
  H   H3417     1.0  0.58835  0.78430  0.85912  1.0000
  S   S417      1.0  0.59493  0.27217  0.20517  1.0000
  C   C1911     1.0  0.71594  0.16490  0.03858  1.0000
  S   S418      1.0  0.66853  0.15163  0.41656  1.0000
  H   H3418     1.0  0.62104  0.16853  0.13468  1.0000
  H   H3419     1.0  0.64883  0.00721  0.24292  1.0000
  C   C1912     1.0  0.64734  0.06672  0.40327  1.0000
  S   S419      1.0  0.77816  0.35925  0.35047  1.0000
  C   C1913     1.0  0.70490  0.46057  0.23327  1.0000
  H   H3420     1.0  0.65982  0.35531  0.33567  1.0000
  S   S420      1.0  0.70669  0.09494  0.00369  1.0000
  H   H3421     1.0  0.68789  0.09199  0.21871  1.0000
  H   H3422     1.0  0.69132  0.45406  0.31793  1.0000
  C   C1914     1.0  0.67770  0.47550  0.19271  1.0000
  C   C1915     1.0  0.69161  0.18762  0.18402  1.0000
  S   S421      1.0  0.71756  0.12427  0.42680  1.0000
  H   H3423     1.0  0.65575  0.00325  0.28398  1.0000
  Fe  Fe205     1.0  0.74973  0.02320  0.25504  1.0000
  S   S422      1.0  0.73982  0.00601  0.28449  1.0000
  S   S423      1.0  0.77855  0.03143  0.24999  1.0000
  Fe  Fe206     1.0  0.71283  0.02543  0.24214  1.0000
  S   S424      1.0  0.69962  0.00887  0.27107  1.0000
  S   S425      1.0  0.69409  0.03771  0.21981  1.0000
  Fe  Fe207     1.0  0.71165  0.02713  0.28366  1.0000
  S   S426      1.0  0.69996  0.04185  0.30903  1.0000
  H   H3424     1.0  0.66993  0.01110  0.24861  1.0000
  Fe  Fe208     1.0  0.61119  0.24439  0.19575  1.0000
  S   S427      1.0  0.72222  0.04547  0.25495  1.0000
  S   S428      1.0  0.74160  0.00455  0.23921  1.0000
  S   S429      1.0  0.60939  0.06795  0.33570  1.0000
  Fe  Fe209     1.0  0.71233  0.11276  0.12676  1.0000
  S   S430      1.0  0.68089  0.11846  0.12514  1.0000
  S   S431      1.0  0.73119  0.08459  0.13857  1.0000
  Fe  Fe210     1.0  0.71547  0.15481  0.11125  1.0000
  S   S432      1.0  0.68452  0.16414  0.10825  1.0000
  S   S433      1.0  0.73341  0.17782  0.10159  1.0000
  Fe  Fe211     1.0  0.67821  0.14463  0.13728  1.0000
  S   S434      1.0  0.65465  0.15301  0.16222  1.0000
  Fe  Fe212     1.0  0.68980  0.13754  0.09607  1.0000
  S   S435      1.0  0.67637  0.14391  0.06978  1.0000
  S   S436      1.0  0.70876  0.13729  0.14138  1.0000
  S   S437      1.0  0.72155  0.12978  0.09655  1.0000
  S   S438      1.0  0.63325  0.24121  0.16821  1.0000
  Fe  Fe213     1.0  0.76212  0.38777  0.33632  1.0000
  S   S439      1.0  0.73248  0.39371  0.32913  1.0000
  S   S440      1.0  0.76974  0.40491  0.35414  1.0000
  Fe  Fe214     1.0  0.71771  0.35279  0.22340  1.0000
  S   S441      1.0  0.70315  0.32928  0.24332  1.0000
  S   S442      1.0  0.74473  0.34683  0.20053  1.0000
  Fe  Fe215     1.0  0.68846  0.38469  0.24160  1.0000
  S   S443      1.0  0.67164  0.36357  0.26274  1.0000
  S   S444      1.0  0.67808  0.41573  0.24478  1.0000
  Fe  Fe216     1.0  0.70101  0.34566  0.26640  1.0000
  S   S445      1.0  0.71109  0.33199  0.29462  1.0000
  Fe  Fe217     1.0  0.67540  0.34955  0.23748  1.0000
  S   S446      1.0  0.65126  0.34312  0.22708  1.0000
  S   S447      1.0  0.71751  0.36766  0.24684  1.0000
  S   S448      1.0  0.69015  0.37226  0.21596  1.0000
  S   S449      1.0  0.75682  0.26215  0.18795  1.0000
  C   C1916     1.0  0.70983  0.20984  0.46094  1.0000
  C   C1917     1.0  0.75544  0.16482  0.45054  1.0000
  H   H3425     1.0  0.66542  0.47316  0.18781  1.0000
  C   C1918     1.0  0.71221  0.42497  0.22203  1.0000
  C   C1919     1.0  0.72519  0.43760  0.21391  1.0000
  H   H3426     1.0  0.71492  0.41135  0.21748  1.0000
  H   H3427     1.0  0.73798  0.43365  0.20316  1.0000
  C   C1920     1.0  0.75079  0.32279  0.19729  1.0000
  C   C1921     1.0  0.76010  0.31848  0.17904  1.0000
  C   C1922     1.0  0.76320  0.29950  0.17608  1.0000
  C   C1923     1.0  0.75720  0.28489  0.19149  1.0000
  C   C1924     1.0  0.74932  0.28896  0.20998  1.0000
  C   C1925     1.0  0.74591  0.30788  0.21282  1.0000
  H   H3428     1.0  0.76413  0.32997  0.16700  1.0000
  H   H3429     1.0  0.71054  0.00492  0.98644  1.0000
  H   H3430     1.0  0.74499  0.27759  0.22200  1.0000
  H   H3431     1.0  0.73932  0.31089  0.22702  1.0000
  C   C1926     1.0  0.72687  0.37626  0.31965  1.0000
  C   C1927     1.0  0.73639  0.35680  0.32306  1.0000
  C   C1928     1.0  0.73134  0.34320  0.31557  1.0000
  C   C1929     1.0  0.71723  0.34911  0.30407  1.0000
  C   C1930     1.0  0.70803  0.36864  0.30030  1.0000
  C   C1931     1.0  0.71255  0.38207  0.30839  1.0000
  H   H3432     1.0  0.74733  0.35214  0.33184  1.0000
  H   H3433     1.0  0.73847  0.32811  0.31860  1.0000
  H   H3434     1.0  0.69709  0.37337  0.29149  1.0000
  H   H3435     1.0  0.70508  0.39707  0.30570  1.0000
  H   H3436     1.0  0.77712  0.46814  0.26741  1.0000
  C   C1932     1.0  0.69541  0.43034  0.23553  1.0000
  C   C1933     1.0  0.64166  0.32186  0.23477  1.0000
  C   C1934     1.0  0.64857  0.30638  0.24880  1.0000
  C   C1935     1.0  0.64085  0.28947  0.25433  1.0000
  S   S450      1.0  0.75194  0.15240  0.43441  1.0000
  H   H3437     1.0  0.65980  0.30757  0.25535  1.0000
  H   H3438     1.0  0.64619  0.27755  0.26529  1.0000
  C   C1936     1.0  0.74684  0.17878  0.11811  1.0000
  H   H3439     1.0  0.77631  0.20168  0.45038  1.0000
  C   C1937     1.0  0.72951  0.44371  0.32505  1.0000
  H   H3440     1.0  0.78854  0.08218  0.42715  1.0000
  C   C1938     1.0  0.75786  0.16620  0.14863  1.0000
  C   C1939     1.0  0.74704  0.16523  0.13563  1.0000
  C   C1940     1.0  0.78885  0.31437  0.43330  1.0000
  H   H3441     1.0  0.75345  0.39377  0.21769  1.0000
  H   H3442     1.0  0.75797  0.15572  0.16217  1.0000
  H   H3443     1.0  0.73896  0.15397  0.13914  1.0000
  C   C1941     1.0  0.64989  0.17743  0.16394  1.0000
  C   C1942     1.0  0.65791  0.19132  0.14900  1.0000
  C   C1943     1.0  0.65278  0.21095  0.15030  1.0000
  C   C1944     1.0  0.63994  0.21664  0.16672  1.0000
  C   C1945     1.0  0.63250  0.20263  0.18192  1.0000
  C   C1946     1.0  0.63738  0.18311  0.18047  1.0000
  H   H3444     1.0  0.66777  0.18703  0.13632  1.0000
  H   H3445     1.0  0.65866  0.22171  0.13854  1.0000
  H   H3446     1.0  0.62284  0.20675  0.19479  1.0000
  H   H3447     1.0  0.63137  0.17239  0.19216  1.0000
  H   H3448     1.0  0.74433  0.28455  0.14935  1.0000
  H   H3449     1.0  0.60901  0.20497  0.26289  1.0000
  C   C1947     1.0  0.71607  0.23161  0.12325  1.0000
  H   H3450     1.0  0.67555  0.27750  0.17710  1.0000
  C   C1948     1.0  0.71625  0.22611  0.14495  1.0000
  C   C1949     1.0  0.70462  0.05063  0.19731  1.0000
  C   C1950     1.0  0.72440  0.04556  0.18949  1.0000
  C   C1951     1.0  0.73240  0.05592  0.17131  1.0000
  C   C1952     1.0  0.72076  0.07165  0.16113  1.0000
  C   C1953     1.0  0.70106  0.07690  0.16913  1.0000
  C   C1954     1.0  0.69296  0.06622  0.18704  1.0000
  H   H3451     1.0  0.73347  0.03350  0.19731  1.0000
  H   H3452     1.0  0.74764  0.05180  0.16514  1.0000
  H   H3453     1.0  0.69198  0.08901  0.16138  1.0000
  H   H3454     1.0  0.67765  0.07020  0.19303  1.0000
  C   C1955     1.0  0.67479  0.04841  0.31651  1.0000
  C   C1956     1.0  0.66211  0.04002  0.31134  1.0000
  C   C1957     1.0  0.64198  0.04591  0.31750  1.0000
  C   C1958     1.0  0.63458  0.06025  0.32866  1.0000
  C   C1959     1.0  0.64736  0.06852  0.33373  1.0000
  C   C1960     1.0  0.66739  0.06251  0.32786  1.0000
  H   H3455     1.0  0.66777  0.02905  0.30265  1.0000
  H   H3456     1.0  0.63213  0.03945  0.31352  1.0000
  H   H3457     1.0  0.64184  0.07953  0.34223  1.0000
  H   H3458     1.0  0.67715  0.06902  0.33189  1.0000
  Fe  Fe218     1.0  0.77817  0.25033  0.16339  1.0000
  C   C1961     1.0  0.71780  0.01208  0.42300  1.0000
  H   H3459     1.0  0.70862  0.00292  0.43430  1.0000
  H   H3460     1.0  0.76866  0.14540  0.39384  1.0000
  C   C1962     1.0  0.76177  0.05682  0.27473  1.0000
  C   C1963     1.0  0.76224  0.06808  0.28756  1.0000
  H   H3461     1.0  0.69794  0.42798  0.32390  1.0000
  H   H3462     1.0  0.74812  0.05684  0.27153  1.0000
  H   H3463     1.0  0.74892  0.07667  0.29408  1.0000
  C   C1964     1.0  0.64436  0.14221  0.39855  1.0000
  C   C1965     1.0  0.63075  0.13204  0.39753  1.0000
  H   H3464     1.0  0.72814  0.28679  0.06640  1.0000
  H   H3465     1.0  0.65011  0.15211  0.38578  1.0000
  H   H3466     1.0  0.62609  0.13411  0.38403  1.0000
  C   C1966     1.0  0.74675  0.06802  0.43027  1.0000
  C   C1967     1.0  0.75944  0.07742  0.43401  1.0000
  H   H3467     1.0  0.74172  0.15251  0.99910  1.0000
  H   H3468     1.0  0.77139  0.33084  0.29250  1.0000
  C   C1968     1.0  0.77227  0.05550  0.40500  1.0000
  C   C1969     1.0  0.75318  0.05692  0.41585  1.0000
  H   H3469     1.0  0.75460  0.08588  0.44521  1.0000
  H   H3470     1.0  0.69720  0.02442  0.40452  1.0000
  H   H3471     1.0  0.70660  0.27010  0.28163  1.0000
  H   H3472     1.0  0.74336  0.04964  0.41297  1.0000
  C   C1970     1.0  0.69389  0.44137  0.32988  1.0000
  C   C1971     1.0  0.76644  0.17927  0.44350  1.0000
  C   C1972     1.0  0.65924  0.06792  0.98784  1.0000
  C   C1973     1.0  0.75733  0.19350  0.11377  1.0000
  N   N108      1.0  0.73544  0.46315  0.31822  1.0000
  C   C1974     1.0  0.68597  0.13046  0.05134  1.0000
  C   C1975     1.0  0.67974  0.13753  0.03364  1.0000
  C   C1976     1.0  0.68648  0.12696  0.01878  1.0000
  C   C1977     1.0  0.69927  0.10906  0.02164  1.0000
  C   C1978     1.0  0.70585  0.10212  0.03920  1.0000
  C   C1979     1.0  0.69934  0.11289  0.05399  1.0000
  H   H3473     1.0  0.66943  0.15113  0.03152  1.0000
  H   H3474     1.0  0.68122  0.13236  0.00539  1.0000
  H   H3475     1.0  0.71577  0.08828  0.04148  1.0000
  H   H3476     1.0  0.70419  0.10735  0.06763  1.0000
  H   H3477     1.0  0.64083  0.02338  0.27082  1.0000
  H   H3478     1.0  0.63209  0.12435  0.30852  1.0000
  H   H3479     1.0  0.70218  0.02019  0.01410  1.0000
  H   H3480     1.0  0.74268  0.40074  0.28678  1.0000
  H   H3481     1.0  0.65990  0.23539  0.22738  1.0000
  C   C1980     1.0  0.64660  0.12516  0.29919  1.0000
  N   N109      1.0  0.76964  0.38478  0.25436  1.0000
  H   H3482     1.0  0.67607  0.05381  0.00953  1.0000
  C   C1981     1.0  0.71889  0.08940  0.20873  1.0000
  H   H3483     1.0  0.72134  0.06096  0.98240  1.0000
  Fe  Fe219     1.0  0.59666  0.11103  0.38509  1.0000
  C   C1982     1.0  0.74313  0.14017  0.37498  1.0000
  C   C1983     1.0  0.76390  0.10787  0.37642  1.0000
  C   C1984     1.0  0.67105  0.07095  0.45165  1.0000
  H   H3484     1.0  0.59577  0.34079  0.28555  1.0000
  C   C1985     1.0  0.78569  0.36141  0.45413  1.0000
  C   C1986     1.0  0.75632  0.10351  0.36016  1.0000
  H   H3485     1.0  0.73177  0.12280  0.98938  1.0000
  H   H3486     1.0  0.71686  0.47006  0.29737  1.0000
  H   H3487     1.0  0.69517  0.47782  0.16327  1.0000
  C   C1987     1.0  0.65040  0.36093  0.32476  1.0000
  C   C1988     1.0  0.75538  0.08215  0.36399  1.0000
  C   C1989     1.0  0.64672  0.26561  0.35428  1.0000
  H   H3488     1.0  0.77846  0.11883  0.13279  1.0000
  H   H3489     1.0  0.74025  0.14409  0.35999  1.0000
  H   H3490     1.0  0.73261  0.13089  0.38370  1.0000
  H   H3491     1.0  0.75519  0.10190  0.39073  1.0000
  S   S451      1.0  0.72580  0.11134  0.47115  1.0000
  C   C1990     1.0  0.69618  0.46942  0.17819  1.0000
  H   H3492     1.0  0.77315  0.19858  0.07041  1.0000
  H   H3493     1.0  0.68732  0.07072  0.99003  1.0000
  H   H3494     1.0  0.70567  0.16011  0.38699  1.0000
  C   C1991     1.0  0.76849  0.18080  0.14413  1.0000
  H   H3495     1.0  0.68755  0.99954  0.22382  1.0000
  H   H3496     1.0  0.76616  0.10673  0.34586  1.0000
  H   H3497     1.0  0.74156  0.11211  0.35903  1.0000
  H   H3498     1.0  0.75093  0.10895  0.01636  1.0000
  C   C1992     1.0  0.71633  0.16964  0.38016  1.0000
  C   C1993     1.0  0.77906  0.37910  0.20086  1.0000
  H   H3499     1.0  0.68752  0.26567  0.46815  1.0000
  C   C1994     1.0  0.75965  0.00483  0.37510  1.0000
  N   N110      1.0  0.65200  0.31123  0.31238  1.0000
  H   H3500     1.0  0.63567  0.16013  0.22859  1.0000
  H   H3501     1.0  0.67939  0.24570  0.21093  1.0000
  S   S452      1.0  0.68281  0.11216  0.46316  1.0000
  C   C1995     1.0  0.73113  0.99254  0.35190  1.0000
  H   H3502     1.0  0.67325  0.28915  0.28298  1.0000
  H   H3503     1.0  0.76991  0.07290  0.36503  1.0000
  H   H3504     1.0  0.74483  0.07824  0.37761  1.0000
  H   H3505     1.0  0.75079  0.07936  0.35173  1.0000
  Fe  Fe220     1.0  0.68718  0.13777  0.43903  1.0000
  H   H3506     1.0  0.73216  0.98495  0.21004  1.0000
  H   H3507     1.0  0.77306  0.99338  0.40029  1.0000
  H   H3508     1.0  0.70124  0.06892  0.39617  1.0000
  H   H3509     1.0  0.69672  0.11216  0.40209  1.0000
  Fe  Fe221     1.0  0.59220  0.21939  0.23195  1.0000
  C   C1996     1.0  0.69126  0.04174  0.42716  1.0000
  H   H3510     1.0  0.65396  0.05544  0.44319  1.0000
  H   H3511     1.0  0.70628  0.22588  0.45680  1.0000
  H   H3512     1.0  0.67432  0.09236  0.38510  1.0000
  H   H3513     1.0  0.77277  0.17643  0.02543  1.0000
  C   C1997     1.0  0.68983  0.07463  0.40784  1.0000
  C   C1998     1.0  0.62153  0.10469  0.28577  1.0000
  H   H3514     1.0  0.70117  0.99335  0.35132  1.0000
  H   H3515     1.0  0.64760  0.12476  0.44592  1.0000
  H   H3516     1.0  0.68452  0.12265  0.38210  1.0000
  C   C1999     1.0  0.69238  0.10890  0.38990  1.0000
  H   H3517     1.0  0.75266  0.09311  0.06553  1.0000
  H   H3518     1.0  0.62148  0.33234  0.21546  1.0000
  H   H3519     1.0  0.72707  0.00314  0.41255  1.0000
  H   H3520     1.0  0.67334  0.23833  0.46724  1.0000
  H   H3521     1.0  0.62297  0.10741  0.44430  1.0000
  H   H3522     1.0  0.70228  0.29245  0.14430  1.0000
  C   C2000     1.0  0.73981  0.27438  0.07066  1.0000
  C   C2001     1.0  0.78878  0.09996  0.22947  1.0000
  C   C2002     1.0  0.70986  0.44244  0.33957  1.0000
  S   S453      1.0  0.77587  0.24279  0.44705  1.0000
  C   C2003     1.0  0.65331  0.10950  0.28655  1.0000
  H   H3523     1.0  0.63498  0.36389  0.33231  1.0000
  H   H3524     1.0  0.77161  0.13556  0.34360  1.0000
  S   S454      1.0  0.69648  0.15336  0.45696  1.0000
  H   H3525     1.0  0.75856  0.43454  0.29371  1.0000
  S   S455      1.0  0.61676  0.26653  0.25328  1.0000
  C   C2004     1.0  0.77169  0.37504  0.23777  1.0000
  H   H3526     1.0  0.67723  0.05467  0.39101  1.0000
  C   C2005     1.0  0.72674  0.42589  0.27105  1.0000
  H   H3527     1.0  0.69787  0.07757  0.41748  1.0000
  C   C2006     1.0  0.64871  0.32684  0.32373  1.0000
  C   C2007     1.0  0.70367  0.16885  0.17712  1.0000
  C   C2008     1.0  0.74410  0.21165  0.19657  1.0000
  H   H3528     1.0  0.71580  0.19625  0.14990  1.0000
  H   H3529     1.0  0.73173  0.19344  0.17572  1.0000
  H   H3530     1.0  0.71910  0.16644  0.17798  1.0000
  H   H3531     1.0  0.70288  0.16991  0.16182  1.0000
  H   H3532     1.0  0.72131  0.21866  0.11656  1.0000
  H   H3533     1.0  0.75617  0.20702  0.18485  1.0000
  H   H3534     1.0  0.74336  0.19951  0.20943  1.0000
  H   H3535     1.0  0.69698  0.14888  0.20479  1.0000
  N   N111      1.0  0.74611  0.02351  0.34437  1.0000
  C   C2009     1.0  0.76216  0.01248  0.33111  1.0000
  C   C2010     1.0  0.72820  0.01477  0.34992  1.0000
  C   C2011     1.0  0.74090  0.04402  0.33310  1.0000
  C   C2012     1.0  0.75247  0.02449  0.36219  1.0000
  H   H3536     1.0  0.68198  0.03036  0.98896  1.0000
  H   H3537     1.0  0.77837  0.44522  0.26162  1.0000
  C   C2013     1.0  0.72293  0.05737  0.34319  1.0000
  H   H3538     1.0  0.72251  0.25518  0.99422  1.0000
  Fe  Fe222     1.0  0.72902  0.98920  0.26903  1.0000
  H   H3539     1.0  0.62867  0.29882  0.33238  1.0000
  H   H3540     1.0  0.70685  0.04362  0.01188  1.0000
  C   C2014     1.0  0.71848  0.07729  0.32999  1.0000
  H   H3541     1.0  0.75751  0.01352  0.31733  1.0000
  H   H3542     1.0  0.78225  0.01347  0.38365  1.0000
  H   H3543     1.0  0.71887  0.01869  0.36364  1.0000
  H   H3544     1.0  0.71911  0.02103  0.33875  1.0000
  H   H3545     1.0  0.73815  0.04382  0.31875  1.0000
  H   H3546     1.0  0.75315  0.05158  0.32980  1.0000
  H   H3547     1.0  0.76393  0.03324  0.35807  1.0000
  H   H3548     1.0  0.74038  0.03235  0.37184  1.0000
  H   H3549     1.0  0.76946  0.29640  0.16176  1.0000
  C   C2015     1.0  0.62245  0.18277  0.12484  1.0000
  H   H3550     1.0  0.65180  0.08023  0.99518  1.0000
  C   C2016     1.0  0.78081  0.15651  0.35303  1.0000
  H   H3551     1.0  0.72545  0.05973  0.35672  1.0000
  H   H3552     1.0  0.70974  0.05117  0.34686  1.0000
  C   C2017     1.0  0.77971  0.06770  0.29251  1.0000
  H   H3553     1.0  0.78701  0.27344  0.04950  1.0000
  H   H3554     1.0  0.61339  0.21316  0.12507  1.0000
  H   H3555     1.0  0.76173  0.10613  0.07823  1.0000
  H   H3556     1.0  0.68136  0.05830  0.45790  1.0000
  N   N112      1.0  0.71124  0.03487  0.98449  1.0000
  H   H3557     1.0  0.74845  0.13856  0.05765  1.0000
  H   H3558     1.0  0.70980  0.27968  0.99562  1.0000
  H   H3559     1.0  0.64229  0.09802  0.24832  1.0000
  H   H3560     1.0  0.70572  0.08656  0.33756  1.0000
  H   H3561     1.0  0.73102  0.08454  0.32618  1.0000
  H   H3562     1.0  0.71507  0.07585  0.31644  1.0000
  C   C2018     1.0  0.77421  0.09040  0.22552  1.0000
  H   H3563     1.0  0.74573  0.45817  0.34484  1.0000
  H   H3564     1.0  0.62610  0.13018  0.25096  1.0000
  C   C2019     1.0  0.74198  0.25812  0.06004  1.0000
  C   C2020     1.0  0.64311  0.12670  0.43238  1.0000
  C   C2021     1.0  0.75040  0.13154  0.04517  1.0000
  C   C2022     1.0  0.69582  0.15103  0.18943  1.0000
  H   H3565     1.0  0.73211  0.11085  0.21348  1.0000
  C   C2023     1.0  0.73044  0.01544  0.03313  1.0000
  H   H3566     1.0  0.76619  0.45084  0.31458  1.0000
  H   H3567     1.0  0.65516  0.06345  0.24446  1.0000
  H   H3568     1.0  0.73853  0.14953  0.47580  1.0000
  H   H3569     1.0  0.64784  0.31553  0.18626  1.0000
  H   H3570     1.0  0.66453  0.21093  0.20810  1.0000
  H   H3571     1.0  0.67345  0.30055  0.16086  1.0000
  C   C2024     1.0  0.67298  0.29340  0.17640  1.0000
  H   H3572     1.0  0.72590  0.20773  0.43175  1.0000
  H   H3573     1.0  0.77880  0.09894  0.37595  1.0000
  H   H3574     1.0  0.76997  0.12083  0.00081  1.0000
  S   S456      1.0  0.75820  0.29625  0.45177  1.0000
  C   C2025     1.0  0.76497  0.09963  0.06522  1.0000
  C   C2026     1.0  0.76882  0.36970  0.27309  1.0000
  H   H3575     1.0  0.59516  0.23080  0.14891  1.0000
  C   C2027     1.0  0.67345  0.30567  0.30440  1.0000
  C   C2028     1.0  0.72206  0.98937  0.19985  1.0000
  H   H3576     1.0  0.59337  0.14374  0.30500  1.0000
  C   C2029     1.0  0.71210  0.03024  0.00578  1.0000
  H   H3577     1.0  0.75702  0.41770  0.27163  1.0000
  C   C2030     1.0  0.59607  0.18061  0.26587  1.0000
  C   C2031     1.0  0.70588  0.20902  0.15519  1.0000
  H   H3578     1.0  0.76108  0.09234  0.23711  1.0000
  H   H3579     1.0  0.74727  0.99771  0.38268  1.0000
  H   H3580     1.0  0.70908  0.16399  0.02694  1.0000
  C   C2032     1.0  0.77926  0.16067  0.02805  1.0000
  H   H3581     1.0  0.70431  0.13791  0.18383  1.0000
  H   H3582     1.0  0.64696  0.08247  0.39951  1.0000
  Fe  Fe223     1.0  0.71388  0.09954  0.45195  1.0000
  H   H3583     1.0  0.68273  0.03174  0.43829  1.0000
  C   C2033     1.0  0.65392  0.07436  0.27015  1.0000
  H   H3584     1.0  0.78088  0.03401  0.31915  1.0000
  H   H3585     1.0  0.66335  0.13889  0.25664  1.0000
  H   H3586     1.0  0.71405  0.15239  0.05081  1.0000
  H   H3587     1.0  0.64894  0.32889  0.28386  1.0000
  C   C2034     1.0  0.66052  0.12241  0.31268  1.0000
  H   H3588     1.0  0.65497  0.09526  0.29687  1.0000
  H   H3589     1.0  0.62461  0.09115  0.29679  1.0000
  H   H3590     1.0  0.76534  0.99684  0.33761  1.0000
  H   H3591     1.0  0.64019  0.06960  0.27790  1.0000
  H   H3592     1.0  0.67646  0.20607  0.07704  1.0000
  H   H3593     1.0  0.74661  0.16900  0.37686  1.0000
  H   H3594     1.0  0.73440  0.27189  0.99906  1.0000
  S   S457      1.0  0.61788  0.10980  0.35692  1.0000
  H   H3595     1.0  0.66107  0.10807  0.32279  1.0000
  H   H3596     1.0  0.67531  0.12359  0.30416  1.0000
  H   H3597     1.0  0.65532  0.13383  0.32148  1.0000
  N   N113      1.0  0.68849  0.29795  0.18393  1.0000
  C   C2035     1.0  0.70784  0.28784  0.17389  1.0000
  C   C2036     1.0  0.68527  0.29027  0.20571  1.0000
  C   C2037     1.0  0.68654  0.31968  0.17929  1.0000
  C   C2038     1.0  0.70217  0.32745  0.18427  1.0000
  C   C2039     1.0  0.70335  0.28358  0.21507  1.0000
  C   C2040     1.0  0.69787  0.27857  0.23722  1.0000
  C   C2041     1.0  0.70076  0.34904  0.17537  1.0000
  C   C2042     1.0  0.73263  0.28279  0.14309  1.0000
  H   H3598     1.0  0.70857  0.27189  0.17733  1.0000
  H   H3599     1.0  0.71997  0.28962  0.17942  1.0000
  H   H3600     1.0  0.67472  0.30121  0.21341  1.0000
  H   H3601     1.0  0.67855  0.27735  0.20980  1.0000
  H   H3602     1.0  0.68604  0.32561  0.16367  1.0000
  H   H3603     1.0  0.67247  0.32675  0.18734  1.0000
  H   H3604     1.0  0.71707  0.32000  0.17873  1.0000
  H   H3605     1.0  0.69987  0.32580  0.20025  1.0000
  H   H3606     1.0  0.71415  0.31002  0.14742  1.0000
  H   H3607     1.0  0.71273  0.27036  0.21022  1.0000
  H   H3608     1.0  0.71183  0.29504  0.21102  1.0000
  H   H3609     1.0  0.71118  0.27210  0.24325  1.0000
  H   H3610     1.0  0.69063  0.29188  0.24292  1.0000
  H   H3611     1.0  0.68813  0.26800  0.24216  1.0000
  H   H3612     1.0  0.71179  0.35439  0.17948  1.0000
  H   H3613     1.0  0.70356  0.35158  0.15927  1.0000
  H   H3614     1.0  0.68618  0.35742  0.18078  1.0000
  H   H3615     1.0  0.73204  0.26721  0.14628  1.0000
  H   H3616     1.0  0.74655  0.26389  0.04430  1.0000
  H   H3617     1.0  0.71673  0.18645  0.98925  1.0000
  C   C2043     1.0  0.78728  0.04013  0.19301  1.0000
  H   H3618     1.0  0.63798  0.18369  0.12130  1.0000
  H   H3619     1.0  0.77044  0.16008  0.00214  1.0000
  H   H3620     1.0  0.67843  0.06493  0.24794  1.0000
  H   H3621     1.0  0.77438  0.32718  0.47229  1.0000
  H   H3622     1.0  0.71085  0.26378  0.06222  1.0000
  S   S458      1.0  0.74348  0.20983  0.98796  1.0000
  H   H3623     1.0  0.71763  0.18608  0.44553  1.0000
  H   H3624     1.0  0.67658  0.27425  0.30623  1.0000
  H   H3625     1.0  0.77230  0.12096  0.16656  1.0000
  H   H3626     1.0  0.63343  0.32967  0.33182  1.0000
  H   H3627     1.0  0.59097  0.15733  0.20485  1.0000
  H   H3628     1.0  0.66180  0.27276  0.46901  1.0000
  C   C2044     1.0  0.76816  0.19449  0.12672  1.0000
  H   H3629     1.0  0.70659  0.29562  0.27671  1.0000
  H   H3630     1.0  0.63971  0.04605  0.39093  1.0000
  H   H3631     1.0  0.63655  0.06377  0.41698  1.0000
  H   H3632     1.0  0.72228  0.43254  0.28401  1.0000
  Fe  Fe224     1.0  0.59873  0.09321  0.35102  1.0000
  H   H3633     1.0  0.61528  0.19783  0.14837  1.0000
  C   C2045     1.0  0.75804  0.45031  0.28825  1.0000
  C   C2046     1.0  0.77696  0.45256  0.27366  1.0000
  H   H3634     1.0  0.70974  0.28071  0.30017  1.0000
  H   H3635     1.0  0.69832  0.45375  0.17826  1.0000
  H   H3636     1.0  0.78736  0.39706  0.26577  1.0000
  C   C2047     1.0  0.77723  0.13577  0.35637  1.0000
  H   H3637     1.0  0.74598  0.45664  0.28034  1.0000
  C   C2048     1.0  0.65449  0.28378  0.34301  1.0000
  C   C2049     1.0  0.76894  0.00757  0.39057  1.0000
  H   H3638     1.0  0.76773  0.09779  0.13870  1.0000
  H   H3639     1.0  0.72343  0.20561  0.46646  1.0000
  H   H3640     1.0  0.69460  0.48104  0.32801  1.0000
  C   C2050     1.0  0.63542  0.13007  0.26095  1.0000
  H   H3641     1.0  0.60803  0.30239  0.22503  1.0000
  C   C2051     1.0  0.74287  0.14050  0.01205  1.0000
  H   H3642     1.0  0.70455  0.45394  0.34806  1.0000
  H   H3643     1.0  0.72181  0.00392  0.03923  1.0000
  H   H3644     1.0  0.63999  0.27862  0.17931  1.0000
  Fe  Fe225     1.0  0.77721  0.22410  0.47653  1.0000
  H   H3645     1.0  0.67035  0.27925  0.33808  1.0000
  H   H3646     1.0  0.72567  0.24209  0.11587  1.0000
  H   H3647     1.0  0.65193  0.29348  0.35333  1.0000
  H   H3648     1.0  0.73582  0.15518  0.39932  1.0000
  C   C2052     1.0  0.65488  0.07615  0.46870  1.0000
  H   H3649     1.0  0.59449  0.08033  0.29772  1.0000
  C   C2053     1.0  0.76703  0.11156  0.14298  1.0000
  H   H3650     1.0  0.72341  0.02805  0.04014  1.0000
  H   H3651     1.0  0.61718  0.34019  0.30674  1.0000
  H   H3652     1.0  0.71208  0.42873  0.35061  1.0000
  H   H3653     1.0  0.78386  0.09661  0.16445  1.0000
  H   H3654     1.0  0.61360  0.11582  0.29446  1.0000
  C   C2054     1.0  0.77892  0.04575  0.26604  1.0000
  C   C2055     1.0  0.77862  0.07538  0.42373  1.0000
  H   H3655     1.0  0.76529  0.29634  0.24518  1.0000
  C   C2056     1.0  0.73696  0.47002  0.33556  1.0000
  C   C2057     1.0  0.65081  0.13934  0.41589  1.0000
  H   H3656     1.0  0.70941  0.23936  0.15084  1.0000
  H   H3657     1.0  0.77568  0.03310  0.19235  1.0000
  H   H3658     1.0  0.77763  0.98409  0.25662  1.0000
  H   H3659     1.0  0.61162  0.31665  0.31064  1.0000
  H   H3660     1.0  0.62672  0.14047  0.27016  1.0000
  H   H3661     1.0  0.78296  0.11573  0.22866  1.0000
  C   C2058     1.0  0.77448  0.28520  0.39671  1.0000
  H   H3662     1.0  0.77265  0.10761  0.03419  1.0000
  H   H3663     1.0  0.66823  0.11043  0.27817  1.0000
  C   C2059     1.0  0.64658  0.00749  0.27288  1.0000
  H   H3664     1.0  0.63089  0.26939  0.36011  1.0000
  C   C2060     1.0  0.65175  0.29967  0.18701  1.0000
  C   C2061     1.0  0.77067  0.15057  0.01686  1.0000
  C   C2062     1.0  0.73772  0.16534  0.03071  1.0000
  H   H3665     1.0  0.66919  0.34447  0.30442  1.0000
  S   S459      1.0  0.73726  0.47155  0.20857  1.0000
  C   C2063     1.0  0.70488  0.18328  0.04590  1.0000
  H   H3666     1.0  0.78674  0.11705  0.42533  1.0000
  C   C2064     1.0  0.60682  0.10236  0.27484  1.0000
  H   H3667     1.0  0.73876  0.17703  0.01743  1.0000
  H   H3668     1.0  0.74251  0.17022  0.04169  1.0000
  H   H3669     1.0  0.65000  0.05692  0.99236  1.0000
  C   C2065     1.0  0.75924  0.18654  0.47566  1.0000
  H   H3670     1.0  0.76326  0.18297  0.06158  1.0000
  H   H3671     1.0  0.77668  0.37213  0.46294  1.0000
  C   C2066     1.0  0.73658  0.15890  0.38339  1.0000
  H   H3672     1.0  0.70695  0.19626  0.03423  1.0000
  H   H3673     1.0  0.68918  0.18302  0.05024  1.0000
  S   S460      1.0  0.78177  0.18212  0.16050  1.0000
  C   C2067     1.0  0.77036  0.13017  0.39269  1.0000
  H   H3674     1.0  0.74165  0.98418  0.36115  1.0000
  H   H3675     1.0  0.64490  0.08987  0.46399  1.0000
  H   H3676     1.0  0.73974  0.00859  0.00488  1.0000
  H   H3677     1.0  0.71172  0.18252  0.38698  1.0000
  H   H3678     1.0  0.76076  0.36573  0.24139  1.0000
  H   H3679     1.0  0.77052  0.99500  0.36650  1.0000
  H   H3680     1.0  0.75607  0.36287  0.27567  1.0000
  H   H3681     1.0  0.73832  0.39135  0.25787  1.0000
  H   H3682     1.0  0.65415  0.37479  0.31572  1.0000
  H   H3683     1.0  0.70532  0.20967  0.08691  1.0000
  H   H3684     1.0  0.78427  0.15928  0.36590  1.0000
  H   H3685     1.0  0.67847  0.08332  0.44538  1.0000
  H   H3686     1.0  0.64938  0.47465  0.26676  1.0000
  C   C2068     1.0  0.75254  0.10074  0.17879  1.0000
  H   H3687     1.0  0.65257  0.07989  0.43091  1.0000
  H   H3688     1.0  0.61907  0.34437  0.27089  1.0000
  C   C2069     1.0  0.65027  0.09608  0.26008  1.0000
  H   H3689     1.0  0.64600  0.13997  0.29004  1.0000
  H   H3690     1.0  0.62248  0.29969  0.18545  1.0000
  S   S461      1.0  0.60691  0.10543  0.41321  1.0000
  H   H3691     1.0  0.61233  0.32112  0.27561  1.0000
  H   H3692     1.0  0.71398  0.22445  0.20100  1.0000
  H   H3693     1.0  0.68696  0.21022  0.21455  1.0000
  C   C2070     1.0  0.61130  0.33377  0.28195  1.0000
  H   H3694     1.0  0.69591  0.98380  0.19661  1.0000
  C   C2071     1.0  0.62632  0.28785  0.24566  1.0000
  H   H3695     1.0  0.74710  0.09116  0.17258  1.0000
  H   H3696     1.0  0.66344  0.07166  0.28063  1.0000
  C   C2072     1.0  0.69192  0.44800  0.24133  1.0000
  C   C2073     1.0  0.67640  0.21890  0.20538  1.0000
  H   H3697     1.0  0.67910  0.45196  0.25203  1.0000
  H   H3698     1.0  0.67403  0.22603  0.17532  1.0000
  C   C2074     1.0  0.69017  0.04231  0.98305  1.0000
  H   H3699     1.0  0.71626  0.17457  0.36440  1.0000
  C   C2075     1.0  0.61938  0.30338  0.23163  1.0000
  C   C2076     1.0  0.63752  0.29457  0.17787  1.0000
  H   H3700     1.0  0.70986  0.18401  0.05886  1.0000
  H   H3701     1.0  0.78384  0.09789  0.19473  1.0000
  H   H3702     1.0  0.63896  0.30172  0.16227  1.0000
  H   H3703     1.0  0.74508  0.00966  0.03662  1.0000
  H   H3704     1.0  0.64949  0.29216  0.20247  1.0000
  H   H3705     1.0  0.68814  0.18385  0.20017  1.0000
  H   H3706     1.0  0.66069  0.13005  0.23668  1.0000
  C   C2077     1.0  0.74778  0.12056  0.98682  1.0000
  C   C2078     1.0  0.59191  0.16321  0.27765  1.0000
  H   H3707     1.0  0.72936  0.43744  0.25795  1.0000
  C   C2079     1.0  0.62698  0.32035  0.22629  1.0000
  N   N114      1.0  0.72228  0.23577  0.05425  1.0000
  C   C2080     1.0  0.72676  0.24252  0.03244  1.0000
  C   C2081     1.0  0.73618  0.21701  0.06039  1.0000
  C   C2082     1.0  0.70198  0.23187  0.05996  1.0000
  C   C2083     1.0  0.65847  0.00244  0.25358  1.0000
  H   H3708     1.0  0.73650  0.98892  0.33726  1.0000
  C   C2084     1.0  0.71293  0.26084  0.02365  1.0000
  H   H3709     1.0  0.68019  0.44084  0.34084  1.0000
  C   C2085     1.0  0.75693  0.21364  0.04765  1.0000
  C   C2086     1.0  0.77006  0.19584  0.05733  1.0000
  H   H3710     1.0  0.77709  0.29797  0.26340  1.0000
  C   C2087     1.0  0.72041  0.26722  0.00181  1.0000
  H   H3711     1.0  0.70622  0.98832  0.37548  1.0000
  H   H3712     1.0  0.72690  0.23064  0.02529  1.0000
  H   H3713     1.0  0.74148  0.24567  0.02744  1.0000
  H   H3714     1.0  0.73760  0.21539  0.07564  1.0000
  H   H3715     1.0  0.73039  0.20426  0.06050  1.0000
  H   H3716     1.0  0.70053  0.22213  0.05110  1.0000
  H   H3717     1.0  0.69115  0.24549  0.05674  1.0000
  H   H3718     1.0  0.66428  0.23027  0.08067  1.0000
  H   H3719     1.0  0.72922  0.43774  0.31257  1.0000
  H   H3720     1.0  0.75422  0.10607  0.98320  1.0000
  H   H3721     1.0  0.75357  0.24613  0.06514  1.0000
  H   H3722     1.0  0.69834  0.25783  0.02548  1.0000
  H   H3723     1.0  0.71161  0.27317  0.03051  1.0000
  C   C2088     1.0  0.65374  0.34645  0.31176  1.0000
  H   H3724     1.0  0.70078  0.04551  0.43480  1.0000
  H   H3725     1.0  0.75631  0.21103  0.03344  1.0000
  H   H3726     1.0  0.76390  0.22618  0.04475  1.0000
  H   H3727     1.0  0.68006  0.20583  0.46999  1.0000
  C   C2089     1.0  0.67894  0.05915  0.99353  1.0000
  H   H3728     1.0  0.77510  0.38870  0.18729  1.0000
  Fe  Fe226     1.0  0.59755  0.13610  0.34483  1.0000
  H   H3729     1.0  0.64657  0.06441  0.47507  1.0000
  H   H3730     1.0  0.68199  0.30381  0.31570  1.0000
  H   H3731     1.0  0.78727  0.00237  0.22231  1.0000
  N   N115      1.0  0.75545  0.09098  0.19924  1.0000
  C   C2090     1.0  0.69328  0.98369  0.22731  1.0000
  S   S462      1.0  0.78684  0.26211  0.09037  1.0000
  C   C2091     1.0  0.64630  0.15947  0.23742  1.0000
  H   H3732     1.0  0.66004  0.47861  0.23002  1.0000
  H   H3733     1.0  0.67836  0.31765  0.29270  1.0000
  H   H3734     1.0  0.65057  0.06479  0.37324  1.0000
  C   C2092     1.0  0.71309  0.29452  0.15147  1.0000
  H   H3735     1.0  0.73624  0.28786  0.12708  1.0000
  H   H3736     1.0  0.71509  0.03850  0.40163  1.0000
  C   C2093     1.0  0.76915  0.38897  0.21802  1.0000
  H   H3737     1.0  0.76651  0.37647  0.28576  1.0000
  H   H3738     1.0  0.77657  0.26913  0.40042  1.0000
  H   H3739     1.0  0.71991  0.24532  0.08065  1.0000
  H   H3740     1.0  0.74731  0.22390  0.20078  1.0000
  H   H3741     1.0  0.60103  0.11651  0.26596  1.0000
  H   H3742     1.0  0.64952  0.25505  0.34477  1.0000
  H   H3743     1.0  0.75795  0.35587  0.40170  1.0000
  H   H3744     1.0  0.62584  0.07041  0.38608  1.0000
  C   C2094     1.0  0.76932  0.31433  0.43493  1.0000
  N   N116      1.0  0.75074  0.14651  0.02639  1.0000
  C   C2095     1.0  0.75826  0.32929  0.42341  1.0000
  C   C2096     1.0  0.76663  0.34426  0.41038  1.0000
  C   C2097     1.0  0.70522  0.02978  0.41242  1.0000
  C   C2098     1.0  0.77150  0.30610  0.25015  1.0000
  H   H3745     1.0  0.74315  0.32933  0.42457  1.0000
  H   H3746     1.0  0.78696  0.46423  0.37515  1.0000
  H   H3747     1.0  0.72264  0.47343  0.34516  1.0000
  C   C2099     1.0  0.66769  0.23811  0.21198  1.0000
  H   H3748     1.0  0.73162  0.22173  0.14655  1.0000
  Fe  Fe227     1.0  0.72664  0.13744  0.44672  1.0000
  C   C2100     1.0  0.66405  0.06151  0.25543  1.0000
  H   H3749     1.0  0.71708  0.09537  0.19351  1.0000
  H   H3750     1.0  0.69328  0.23350  0.09092  1.0000
  S   S463      1.0  0.76772  0.23742  0.14415  1.0000
  C   C2101     1.0  0.62322  0.11925  0.41401  1.0000
  S   S464      1.0  0.62001  0.22977  0.22403  1.0000
  H   H3751     1.0  0.78585  0.36488  0.23542  1.0000
  C   C2102     1.0  0.76853  0.11495  0.04660  1.0000
  C   C2103     1.0  0.69321  0.20178  0.47644  1.0000
  H   H3752     1.0  0.61818  0.19354  0.29512  1.0000
  C   C2104     1.0  0.72143  0.45549  0.21941  1.0000
  H   H3753     1.0  0.69212  0.23536  0.17959  1.0000
  H   H3754     1.0  0.65892  0.16509  0.22756  1.0000
  H   H3755     1.0  0.77312  0.18239  0.42825  1.0000
  C   C2105     1.0  0.65296  0.13864  0.24796  1.0000
  C   C2106     1.0  0.62919  0.11689  0.43146  1.0000
  C   C2107     1.0  0.72277  0.25097  0.06469  1.0000
  H   H3756     1.0  0.78408  0.19264  0.04712  1.0000
  H   H3757     1.0  0.70113  0.23845  0.12097  1.0000
  C   C2108     1.0  0.64052  0.06161  0.38739  1.0000
  S   S465      1.0  0.72285  0.07042  0.44348  1.0000
  H   H3758     1.0  0.77612  0.15471  0.04393  1.0000
  C   C2109     1.0  0.76819  0.19025  0.45601  1.0000
  C   C2110     1.0  0.71904  0.20076  0.18543  1.0000
  C   C2111     1.0  0.67539  0.21739  0.08520  1.0000
  C   C2112     1.0  0.74521  0.41041  0.27239  1.0000
  H   H3759     1.0  0.76962  0.29081  0.38265  1.0000
  C   C2113     1.0  0.75035  0.39894  0.25592  1.0000
  S   S466      1.0  0.61023  0.16137  0.32604  1.0000
  H   H3760     1.0  0.76293  0.29110  0.40821  1.0000
  C   C2114     1.0  0.72500  0.21812  0.18946  1.0000
  H   H3761     1.0  0.69252  0.21133  0.14941  1.0000
  H   H3762     1.0  0.72680  0.22977  0.17636  1.0000
  C   C2115     1.0  0.66295  0.06656  0.43585  1.0000
  H   H3763     1.0  0.73656  0.26901  0.08665  1.0000
  H   H3764     1.0  0.76205  0.06191  0.21646  1.0000
  H   H3765     1.0  0.66633  0.04606  0.26304  1.0000
  H   H3766     1.0  0.74977  0.41014  0.24229  1.0000
  C   C2116     1.0  0.69503  0.22292  0.08174  1.0000
  N   N117      1.0  0.64013  0.11010  0.27330  1.0000
  H   H3767     1.0  0.75086  0.06351  0.19727  1.0000
  H   H3768     1.0  0.72095  0.07342  0.21158  1.0000
  H   H3769     1.0  0.65724  0.24746  0.20294  1.0000
  H   H3770     1.0  0.73753  0.12479  0.04838  1.0000
  H   H3771     1.0  0.75871  0.01760  0.39952  1.0000
  N   N118      1.0  0.70097  0.20512  0.17712  1.0000
  H   H3772     1.0  0.71758  0.19012  0.19953  1.0000
  H   H3773     1.0  0.68040  0.15269  0.18876  1.0000
  H   H3774     1.0  0.77512  0.40210  0.21584  1.0000
  C   C2117     1.0  0.60588  0.16806  0.30245  1.0000
  C   C2118     1.0  0.76964  0.09936  0.20493  1.0000
  C   C2119     1.0  0.61093  0.18501  0.29022  1.0000
  C   C2120     1.0  0.66776  0.05447  0.40573  1.0000
  H   H3775     1.0  0.78110  0.12070  0.04697  1.0000
  H   H3776     1.0  0.70069  0.09046  0.23745  1.0000
  H   H3777     1.0  0.69662  0.11271  0.21946  1.0000
  H   H3778     1.0  0.64432  0.28326  0.31744  1.0000
  H   H3779     1.0  0.74911  0.33158  0.24314  1.0000
  N   N119      1.0  0.67774  0.05977  0.41892  1.0000
  H   H3780     1.0  0.67744  0.19095  0.17945  1.0000
  H   H3781     1.0  0.66475  0.09920  0.25243  1.0000
  C   C2121     1.0  0.64173  0.31821  0.29551  1.0000
  H   H3782     1.0  0.75959  0.33159  0.26315  1.0000
  H   H3783     1.0  0.66640  0.10061  0.40780  1.0000
  C   C2122     1.0  0.67908  0.09426  0.39770  1.0000
  H   H3784     1.0  0.74089  0.43293  0.33208  1.0000
  H   H3785     1.0  0.75270  0.12107  0.14162  1.0000
  H   H3786     1.0  0.72730  0.01670  0.42997  1.0000
  H   H3787     1.0  0.66535  0.03935  0.41137  1.0000
  C   C2123     1.0  0.77019  0.10744  0.16376  1.0000
  C   C2124     1.0  0.76171  0.06933  0.20109  1.0000
  H   H3788     1.0  0.71471  0.41944  0.27041  1.0000
  H   H3789     1.0  0.67063  0.21144  0.10092  1.0000
  H   H3790     1.0  0.73020  0.98578  0.18566  1.0000
  C   C2125     1.0  0.75482  0.32240  0.25602  1.0000
  C   C2126     1.0  0.73224  0.02156  0.01109  1.0000
  C   C2127     1.0  0.69989  0.09665  0.22196  1.0000
  H   H3791     1.0  0.75352  0.27971  0.06684  1.0000
  H   H3792     1.0  0.78102  0.32243  0.22117  1.0000
  H   H3793     1.0  0.71663  0.00531  0.19760  1.0000
  H   H3794     1.0  0.74292  0.31605  0.26642  1.0000
  S   S467      1.0  0.77323  0.24263  0.99615  1.0000
  C   C2128     1.0  0.78594  0.34465  0.40933  1.0000
  H   H3795     1.0  0.64284  0.30592  0.28861  1.0000
  H   H3796     1.0  0.74098  0.11415  0.17891  1.0000
  C   C2129     1.0  0.64419  0.29418  0.32577  1.0000
  H   H3797     1.0  0.75704  0.20430  0.10048  1.0000
  C   C2130     1.0  0.75555  0.45998  0.30563  1.0000
  C   C2131     1.0  0.73623  0.09512  0.21307  1.0000
  H   H3798     1.0  0.73727  0.08716  0.22814  1.0000
  C   C2132     1.0  0.75413  0.12175  0.00485  1.0000
  H   H3799     1.0  0.63946  0.16903  0.24805  1.0000
  C   C2133     1.0  0.68602  0.22212  0.18345  1.0000
  H   H3800     1.0  0.76095  0.12362  0.40619  1.0000
  H   H3801     1.0  0.70553  0.10326  0.37967  1.0000
  C   C2134     1.0  0.61980  0.32729  0.30032  1.0000
  H   H3802     1.0  0.63414  0.00003  0.27826  1.0000
  H   H3803     1.0  0.72793  0.13792  0.01833  1.0000
  C   C2135     1.0  0.70211  0.28323  0.28804  1.0000
  C   C2136     1.0  0.78117  0.06215  0.18793  1.0000
  C   C2137     1.0  0.68016  0.28730  0.29543  1.0000
  C   C2138     1.0  0.61032  0.19932  0.13478  1.0000
  Fe  Fe228     1.0  0.60223  0.25671  0.23430  1.0000
  H   H3804     1.0  0.77437  0.36525  0.20299  1.0000
  H   H3805     1.0  0.70062  0.20683  0.43575  1.0000
  H   H3806     1.0  0.65410  0.25857  0.36669  1.0000
  H   H3807     1.0  0.70208  0.47419  0.23773  1.0000
  H   H3808     1.0  0.77811  0.08791  0.06594  1.0000
  C   C2139     1.0  0.78499  0.06474  0.40901  1.0000
  C   C2140     1.0  0.71364  0.20214  0.44238  1.0000
  H   H3809     1.0  0.76778  0.16728  0.34931  1.0000
  H   H3810     1.0  0.76045  0.47396  0.29946  1.0000
  N   N120      1.0  0.76376  0.12897  0.37503  1.0000
  H   H3811     1.0  0.77646  0.20572  0.12308  1.0000
  H   H3812     1.0  0.64472  0.35310  0.30063  1.0000
  H   H3813     1.0  0.65767  0.32188  0.33507  1.0000
  Fe  Fe229     1.0  0.77732  0.26703  0.45989  1.0000
  H   H3814     1.0  0.76427  0.11529  0.20384  1.0000
  C   C2141     1.0  0.74685  0.16082  0.47027  1.0000
  H   H3815     1.0  0.74131  0.03271  0.00598  1.0000
  H   H3816     1.0  0.77911  0.34385  0.30632  1.0000
  H   H3817     1.0  0.66111  0.99214  0.21608  1.0000
  H   H3818     1.0  0.77628  0.35717  0.44676  1.0000
  H   H3819     1.0  0.77959  0.06612  0.17253  1.0000
  C   C2142     1.0  0.78205  0.01849  0.32589  1.0000
  S   S468      1.0  0.77937  0.07996  0.31066  1.0000
  C   C2143     1.0  0.60577  0.19147  0.27199  1.0000
  H   H3820     1.0  0.67895  0.46557  0.20685  1.0000
  H   H3821     1.0  0.61346  0.09185  0.26519  1.0000
  H   H3822     1.0  0.78125  0.13715  0.01416  1.0000
  H   H3823     1.0  0.77729  0.04700  0.39384  1.0000
  C   C2144     1.0  0.71203  0.98567  0.36051  1.0000
  H   H3824     1.0  0.59202  0.20775  0.17592  1.0000
  H   H3825     1.0  0.61789  0.18361  0.11115  1.0000
  H   H3826     1.0  0.59630  0.18008  0.20496  1.0000
  H   H3827     1.0  0.78069  0.07470  0.22697  1.0000
  H   H3828     1.0  0.70902  0.47172  0.18220  1.0000
  H   H3829     1.0  0.78817  0.01557  0.33907  1.0000
  C   C2145     1.0  0.78317  0.33764  0.29305  1.0000
  Fe  Fe230     1.0  0.78845  0.37654  0.36568  1.0000
  H   H3830     1.0  0.78847  0.27878  0.22887  1.0000
  H   H3831     1.0  0.78156  0.41084  0.24336  1.0000
  C   C2146     1.0  0.78760  0.31433  0.23399  1.0000
  C   C2147     1.0  0.72193  0.47756  0.30609  1.0000
  H   H3832     1.0  0.60063  0.17478  0.17151  1.0000
  H   H3833     1.0  0.65533  0.98498  0.18695  1.0000
  C   C2148     1.0  0.78560  0.39565  0.25144  1.0000
  C   C2149     1.0  0.67308  0.26364  0.47714  1.0000
  C   C2150     1.0  0.59677  0.15700  0.29595  1.0000
  S   S469      1.0  0.78653  0.39303  0.31096  1.0000
  C   C2151     1.0  0.78706  0.35338  0.27490  1.0000
  C   C2152     1.0  0.58961  0.09501  0.28915  1.0000
  H   H3834     1.0  0.69736  0.18568  0.47849  1.0000
  C   C2153     1.0  0.70433  0.37149  0.79439  1.0000
  H   H3835     1.0  0.71533  0.16669  0.96673  1.0000
  Fe  Fe231     1.0  0.73336  0.38608  0.83655  1.0000
  S   S470      1.0  0.70595  0.39603  0.85705  1.0000
  S   S471      1.0  0.74089  0.40168  0.80555  1.0000
  Fe  Fe232     1.0  0.74836  0.35229  0.86683  1.0000
  S   S472      1.0  0.72245  0.35965  0.88993  1.0000
  S   S473      1.0  0.77185  0.32559  0.87103  1.0000
  Fe  Fe233     1.0  0.70520  0.36415  0.86701  1.0000
  S   S474      1.0  0.67818  0.35156  0.87388  1.0000
  Fe  Fe234     1.0  0.72577  0.39059  0.87786  1.0000
  S   S475      1.0  0.72625  0.40963  0.89776  1.0000
  S   S476      1.0  0.73095  0.35481  0.84470  1.0000
  S   S477      1.0  0.75329  0.38265  0.85661  1.0000
  H   H3836     1.0  0.73774  0.12999  0.87949  1.0000
  H   H3837     1.0  0.66579  0.15455  0.71383  1.0000
  C   C2154     1.0  0.63800  0.18768  0.80215  1.0000
  H   H3838     1.0  0.66575  0.15983  0.68825  1.0000
  H   H3839     1.0  0.68887  0.04748  0.96756  1.0000
  H   H3840     1.0  0.63806  0.18484  0.51834  1.0000
  H   H3841     1.0  0.65800  0.20956  0.49943  1.0000
  S   S478      1.0  0.70577  0.13266  0.91841  1.0000
  H   H3842     1.0  0.70067  0.47155  0.85692  1.0000
  C   C2155     1.0  0.71258  0.29671  0.90003  1.0000
  H   H3843     1.0  0.77658  0.35564  0.67987  1.0000
  S   S479      1.0  0.73843  0.16214  0.92862  1.0000
  C   C2156     1.0  0.74408  0.03591  0.66524  1.0000
  C   C2157     1.0  0.61785  0.19423  0.83272  1.0000
  S   S480      1.0  0.61732  0.14961  0.76081  1.0000
  H   H3844     1.0  0.66557  0.20765  0.52127  1.0000
  Fe  Fe235     1.0  0.68141  0.01748  0.87854  1.0000
  S   S481      1.0  0.68170  0.04101  0.85184  1.0000
  S   S482      1.0  0.67570  0.02566  0.90763  1.0000
  S   S483      1.0  0.68787  0.00682  0.82702  1.0000
  Fe  Fe236     1.0  0.70645  0.02022  0.83805  1.0000
  S   S484      1.0  0.73489  0.02890  0.82281  1.0000
  Fe  Fe237     1.0  0.66301  0.02559  0.84368  1.0000
  S   S485      1.0  0.63408  0.04189  0.83678  1.0000
  S   S486      1.0  0.66088  0.00327  0.87153  1.0000
  Fe  Fe238     1.0  0.70828  0.14040  0.63822  1.0000
  S   S487      1.0  0.68726  0.16715  0.64505  1.0000
  S   S488      1.0  0.71635  0.11805  0.66404  1.0000
  Fe  Fe239     1.0  0.70836  0.15271  0.59489  1.0000
  S   S489      1.0  0.68662  0.18032  0.59815  1.0000
  S   S490      1.0  0.72493  0.14556  0.56605  1.0000
  Fe  Fe240     1.0  0.70439  0.18274  0.61819  1.0000
  S   S491      1.0  0.71361  0.21053  0.61553  1.0000
  Fe  Fe241     1.0  0.67140  0.16212  0.62479  1.0000
  S   S492      1.0  0.63961  0.16151  0.63512  1.0000
  S   S493      1.0  0.72715  0.15639  0.61324  1.0000
  S   S494      1.0  0.69153  0.13415  0.61954  1.0000
  H   H3845     1.0  0.67143  0.17504  0.49880  1.0000
  C   C2158     1.0  0.71624  0.26080  0.93298  1.0000
  C   C2159     1.0  0.77982  0.48043  0.69256  1.0000
  H   H3846     1.0  0.74222  0.99992  0.94531  1.0000
  H   H3847     1.0  0.68701  0.37179  0.82372  1.0000
  S   S495      1.0  0.67963  0.12769  0.51121  1.0000
  H   H3848     1.0  0.73676  0.28435  0.50521  1.0000
  H   H3849     1.0  0.74150  0.99132  0.73847  1.0000
  H   H3850     1.0  0.74368  0.33594  0.74569  1.0000
  H   H3851     1.0  0.72972  0.43961  0.91469  1.0000
  H   H3852     1.0  0.70560  0.38601  0.81667  1.0000
  C   C2160     1.0  0.69468  0.38157  0.81147  1.0000
  H   H3853     1.0  0.73966  0.35830  0.64108  1.0000
  H   H3854     1.0  0.75394  0.06687  0.97090  1.0000
  S   S496      1.0  0.77458  0.29206  0.95980  1.0000
  H   H3855     1.0  0.68028  0.16937  0.87693  1.0000
  H   H3856     1.0  0.66127  0.07817  0.48019  1.0000
  H   H3857     1.0  0.76297  0.32652  0.75898  1.0000
  H   H3858     1.0  0.73890  0.24693  0.57409  1.0000
  H   H3859     1.0  0.75582  0.00875  0.73655  1.0000
  C   C2161     1.0  0.75780  0.29607  0.65011  1.0000
  Fe  Fe242     1.0  0.64944  0.26861  0.84302  1.0000
  C   C2162     1.0  0.71223  0.14038  0.55108  1.0000
  C   C2163     1.0  0.72160  0.13840  0.53208  1.0000
  C   C2164     1.0  0.71178  0.13434  0.51977  1.0000
  C   C2165     1.0  0.69261  0.13197  0.52652  1.0000
  C   C2166     1.0  0.68330  0.13378  0.54560  1.0000
  C   C2167     1.0  0.69302  0.13813  0.55781  1.0000
  H   H3860     1.0  0.73648  0.14008  0.52684  1.0000
  H   H3861     1.0  0.71903  0.13299  0.50510  1.0000
  H   H3862     1.0  0.66845  0.13201  0.55086  1.0000
  H   H3863     1.0  0.68571  0.13964  0.57245  1.0000
  C   C2168     1.0  0.73903  0.10295  0.65898  1.0000
  H   H3864     1.0  0.73613  0.08631  0.68831  1.0000
  C   C2169     1.0  0.73833  0.03683  0.79758  1.0000
  C   C2170     1.0  0.72350  0.03907  0.78772  1.0000
  H   H3865     1.0  0.70939  0.03651  0.79574  1.0000
  C   C2171     1.0  0.61625  0.18160  0.69275  1.0000
  C   C2172     1.0  0.63029  0.19018  0.67859  1.0000
  C   C2173     1.0  0.63731  0.18429  0.66074  1.0000
  C   C2174     1.0  0.62992  0.17016  0.65676  1.0000
  C   C2175     1.0  0.61514  0.16229  0.67051  1.0000
  C   C2176     1.0  0.60860  0.16769  0.68865  1.0000
  H   H3866     1.0  0.63609  0.20113  0.68156  1.0000
  H   H3867     1.0  0.64831  0.19085  0.64997  1.0000
  H   H3868     1.0  0.60918  0.15160  0.66731  1.0000
  H   H3869     1.0  0.67087  0.26863  0.49090  1.0000
  C   C2177     1.0  0.62932  0.08177  0.77785  1.0000
  C   C2178     1.0  0.74448  0.21988  0.56409  1.0000
  C   C2179     1.0  0.61456  0.06670  0.81011  1.0000
  C   C2180     1.0  0.63278  0.05640  0.81365  1.0000
  C   C2181     1.0  0.64932  0.05838  0.79907  1.0000
  C   C2182     1.0  0.64754  0.07089  0.78102  1.0000
  H   H3870     1.0  0.70363  0.34467  0.95771  1.0000
  H   H3871     1.0  0.60544  0.15752  0.87238  1.0000
  H   H3872     1.0  0.66342  0.05035  0.80173  1.0000
  H   H3873     1.0  0.66030  0.07249  0.76973  1.0000
  C   C2183     1.0  0.63566  0.19644  0.90240  1.0000
  C   C2184     1.0  0.74608  0.22036  0.61905  1.0000
  C   C2185     1.0  0.73433  0.20658  0.62522  1.0000
  C   C2186     1.0  0.64456  0.16738  0.92621  1.0000
  H   H3874     1.0  0.74230  0.23338  0.60844  1.0000
  C   C2187     1.0  0.69609  0.06308  0.92573  1.0000
  C   C2188     1.0  0.68457  0.05109  0.92407  1.0000
  C   C2189     1.0  0.69061  0.04036  0.90939  1.0000
  C   C2190     1.0  0.70840  0.04142  0.89654  1.0000
  H   H3875     1.0  0.69110  0.07151  0.93685  1.0000
  H   H3876     1.0  0.67080  0.05033  0.93401  1.0000
  H   H3877     1.0  0.74214  0.30182  0.89461  1.0000
  H   H3878     1.0  0.65093  0.18903  0.79102  1.0000
  H   H3879     1.0  0.62751  0.17115  0.78773  1.0000
  C   C2191     1.0  0.69385  0.32327  0.85192  1.0000
  C   C2192     1.0  0.76176  0.13246  0.69080  1.0000
  C   C2193     1.0  0.64226  0.17873  0.93980  1.0000
  H   H3880     1.0  0.63395  0.20769  0.94543  1.0000
  H   H3881     1.0  0.64479  0.17188  0.95426  1.0000
  C   C2194     1.0  0.74906  0.17143  0.48286  1.0000
  C   C2195     1.0  0.75510  0.18482  0.94142  1.0000
  C   C2196     1.0  0.75639  0.19539  0.95451  1.0000
  H   H3882     1.0  0.76571  0.18458  0.92797  1.0000
  H   H3883     1.0  0.76804  0.20314  0.95115  1.0000
  C   C2197     1.0  0.72034  0.43515  0.89068  1.0000
  C   C2198     1.0  0.71225  0.44424  0.87430  1.0000
  C   C2199     1.0  0.70718  0.46461  0.86943  1.0000
  H   H3884     1.0  0.75101  0.31296  0.49023  1.0000
  H   H3885     1.0  0.73492  0.00650  0.75614  1.0000
  C   C2200     1.0  0.72357  0.44656  0.90195  1.0000
  H   H3886     1.0  0.70958  0.43558  0.86560  1.0000
  C   C2201     1.0  0.78697  0.09073  0.74596  1.0000
  H   H3887     1.0  0.71122  0.35863  0.62800  1.0000
  S   S497      1.0  0.75009  0.05266  0.73156  1.0000
  H   H3888     1.0  0.70744  0.32763  0.84955  1.0000
  C   C2202     1.0  0.77293  0.31646  0.89563  1.0000
  H   H3889     1.0  0.74017  0.32271  0.62543  1.0000
  C   C2203     1.0  0.74448  0.04334  0.96481  1.0000
  C   C2204     1.0  0.77431  0.30131  0.93503  1.0000
  C   C2205     1.0  0.76544  0.32065  0.92895  1.0000
  C   C2206     1.0  0.76474  0.32822  0.90929  1.0000
  Fe  Fe243     1.0  0.60734  0.26550  0.84583  1.0000
  H   H3890     1.0  0.77414  0.03602  0.63473  1.0000
  H   H3891     1.0  0.75913  0.32982  0.93948  1.0000
  H   H3892     1.0  0.75811  0.34325  0.90471  1.0000
  H   H3893     1.0  0.77824  0.45004  0.81454  1.0000
  C   C2207     1.0  0.73551  0.24144  0.56270  1.0000
  C   C2208     1.0  0.76980  0.36962  0.80446  1.0000
  C   C2209     1.0  0.76121  0.38718  0.79390  1.0000
  C   C2210     1.0  0.76856  0.39274  0.77400  1.0000
  H   H3894     1.0  0.75304  0.27579  0.52192  1.0000
  H   H3895     1.0  0.66096  0.07346  0.97190  1.0000
  H   H3896     1.0  0.76463  0.36549  0.81990  1.0000
  H   H3897     1.0  0.76191  0.40636  0.76585  1.0000
  N   N121      1.0  0.70690  0.29789  0.92127  1.0000
  C   C2211     1.0  0.71848  0.28125  0.93346  1.0000
  C   C2212     1.0  0.71084  0.31664  0.92300  1.0000
  C   C2213     1.0  0.68572  0.29715  0.92838  1.0000
  H   H3898     1.0  0.69259  0.36800  0.78963  1.0000
  Fe  Fe244     1.0  0.77050  0.22214  0.97927  1.0000
  H   H3899     1.0  0.71661  0.03636  0.68612  1.0000
  C   C2214     1.0  0.67142  0.31445  0.91889  1.0000
  C   C2215     1.0  0.70457  0.32152  0.94352  1.0000
  H   H3900     1.0  0.61527  0.20035  0.84538  1.0000
  C   C2216     1.0  0.74219  0.32900  0.63702  1.0000
  Fe  Fe245     1.0  0.60436  0.12503  0.76044  1.0000
  C   C2217     1.0  0.75963  0.30043  0.49882  1.0000
  H   H3901     1.0  0.60888  0.13981  0.84575  1.0000
  H   H3902     1.0  0.73413  0.28205  0.92951  1.0000
  H   H3903     1.0  0.72660  0.31667  0.91835  1.0000
  H   H3904     1.0  0.70384  0.32903  0.91282  1.0000
  H   H3905     1.0  0.68150  0.29572  0.94443  1.0000
  H   H3906     1.0  0.68290  0.28392  0.92560  1.0000
  C   C2218     1.0  0.76644  0.04704  0.62400  1.0000
  C   C2219     1.0  0.60824  0.17553  0.81481  1.0000
  H   H3907     1.0  0.74116  0.27681  0.89824  1.0000
  H   H3908     1.0  0.74863  0.47426  0.81807  1.0000
  H   H3909     1.0  0.64874  0.29841  0.92277  1.0000
  H   H3910     1.0  0.72918  0.23052  0.94201  1.0000
  H   H3911     1.0  0.75379  0.10432  0.70303  1.0000
  H   H3912     1.0  0.67219  0.32831  0.92204  1.0000
  H   H3913     1.0  0.78620  0.25540  0.52241  1.0000
  H   H3914     1.0  0.77415  0.19409  0.59456  1.0000
  H   H3915     1.0  0.75475  0.28859  0.86450  1.0000
  H   H3916     1.0  0.74267  0.16808  0.49815  1.0000
  H   H3917     1.0  0.77692  0.35574  0.74324  1.0000
  H   H3918     1.0  0.70202  0.25803  0.94195  1.0000
  C   C2220     1.0  0.66869  0.14801  0.70091  1.0000
  S   S498      1.0  0.70760  0.99772  0.86552  1.0000
  H   H3919     1.0  0.73774  0.03003  0.69681  1.0000
  H   H3920     1.0  0.72102  0.47551  0.90592  1.0000
  H   H3921     1.0  0.77873  0.08851  0.76121  1.0000
  H   H3922     1.0  0.78108  0.30589  0.81649  1.0000
  H   H3923     1.0  0.74528  0.02052  0.66496  1.0000
  H   H3924     1.0  0.68633  0.19182  0.96639  1.0000
  C   C2221     1.0  0.78505  0.16843  0.54319  1.0000
  H   H3925     1.0  0.77109  0.05417  0.95333  1.0000
  C   C2222     1.0  0.71868  0.46691  0.89698  1.0000
  H   H3926     1.0  0.76163  0.31810  0.51771  1.0000
  C   C2223     1.0  0.74202  0.35083  0.62893  1.0000
  H   H3927     1.0  0.70570  0.30100  0.83510  1.0000
  H   H3928     1.0  0.61540  0.09350  0.68973  1.0000
  H   H3929     1.0  0.77199  0.22785  0.62131  1.0000
  C   C2224     1.0  0.75620  0.43459  0.83137  1.0000
  S   S499      1.0  0.78276  0.02532  0.69517  1.0000
  H   H3930     1.0  0.70944  0.18188  0.50532  1.0000
  H   H3931     1.0  0.72638  0.10649  0.75210  1.0000
  H   H3932     1.0  0.77153  0.33230  0.69284  1.0000
  C   C2225     1.0  0.62475  0.17760  0.80026  1.0000
  H   H3933     1.0  0.72303  0.34268  0.93682  1.0000
  C   C2226     1.0  0.70524  0.19750  0.50609  1.0000
  H   H3934     1.0  0.76941  0.34296  0.48880  1.0000
  H   H3935     1.0  0.59958  0.23530  0.77769  1.0000
  C   C2227     1.0  0.77620  0.47903  0.84837  1.0000
  H   H3936     1.0  0.68419  0.14066  0.69802  1.0000
  C   C2228     1.0  0.76621  0.35210  0.73705  1.0000
  C   C2229     1.0  0.73894  0.29344  0.86970  1.0000
  H   H3937     1.0  0.71129  0.38199  0.78240  1.0000
  C   C2230     1.0  0.72704  0.04451  0.76737  1.0000
  Fe  Fe246     1.0  0.67954  0.13225  0.94240  1.0000
  H   H3938     1.0  0.75868  0.03802  0.66502  1.0000
  C   C2231     1.0  0.78278  0.28964  0.92129  1.0000
  N   N122      1.0  0.69907  0.21123  0.90577  1.0000
  C   C2232     1.0  0.71778  0.21569  0.90696  1.0000
  C   C2233     1.0  0.68928  0.20251  0.92594  1.0000
  C   C2234     1.0  0.70415  0.19590  0.89366  1.0000
  C   C2235     1.0  0.68564  0.22875  0.89655  1.0000
  C   C2236     1.0  0.68641  0.24891  0.89947  1.0000
  C   C2237     1.0  0.73176  0.22083  0.88726  1.0000
  C   C2238     1.0  0.68706  0.18746  0.89260  1.0000
  C   C2239     1.0  0.68310  0.21546  0.94120  1.0000
  C   C2240     1.0  0.67511  0.20423  0.96129  1.0000
  C   C2241     1.0  0.66974  0.26456  0.89257  1.0000
  C   C2242     1.0  0.74754  0.22996  0.88948  1.0000
  H   H3939     1.0  0.72604  0.20305  0.91583  1.0000
  H   H3940     1.0  0.71506  0.22752  0.91484  1.0000
  H   H3941     1.0  0.67573  0.19849  0.92550  1.0000
  H   H3942     1.0  0.69879  0.18873  0.93184  1.0000
  H   H3943     1.0  0.71532  0.18347  0.89915  1.0000
  H   H3944     1.0  0.71075  0.20184  0.87839  1.0000
  H   H3945     1.0  0.68855  0.23007  0.88051  1.0000
  H   H3946     1.0  0.67034  0.22684  0.90166  1.0000
  H   H3947     1.0  0.70011  0.25327  0.89088  1.0000
  H   H3948     1.0  0.68564  0.24900  0.91481  1.0000
  H   H3949     1.0  0.73914  0.20740  0.88169  1.0000
  H   H3950     1.0  0.72389  0.23093  0.87621  1.0000
  H   H3951     1.0  0.69542  0.22093  0.94260  1.0000
  H   H3952     1.0  0.67129  0.22780  0.93723  1.0000
  H   H3953     1.0  0.61385  0.07816  0.85426  1.0000
  H   H3954     1.0  0.77746  0.44378  0.84046  1.0000
  H   H3955     1.0  0.73509  0.29803  0.52323  1.0000
  H   H3956     1.0  0.67000  0.26517  0.87709  1.0000
  H   H3957     1.0  0.65557  0.26155  0.90145  1.0000
  H   H3958     1.0  0.67109  0.27897  0.89389  1.0000
  H   H3959     1.0  0.75552  0.22029  0.90069  1.0000
  H   H3960     1.0  0.75802  0.23228  0.87544  1.0000
  H   H3961     1.0  0.74113  0.24420  0.89363  1.0000
  H   H3962     1.0  0.70538  0.16388  0.87889  1.0000
  C   C2243     1.0  0.63305  0.20777  0.91607  1.0000
  H   H3963     1.0  0.68268  0.23361  0.50750  1.0000
  C   C2244     1.0  0.74550  0.04719  0.75693  1.0000
  C   C2245     1.0  0.69280  0.30822  0.84367  1.0000
  S   S500      1.0  0.62624  0.23303  0.90975  1.0000
  Fe  Fe247     1.0  0.62907  0.24278  0.87749  1.0000
  S   S501      1.0  0.68830  0.10087  0.95569  1.0000
  H   H3964     1.0  0.72009  0.05079  0.65061  1.0000
  C   C2246     1.0  0.71402  0.06394  0.91315  1.0000
  C   C2247     1.0  0.66963  0.18041  0.51225  1.0000
  H   H3965     1.0  0.72321  0.00266  0.93252  1.0000
  H   H3966     1.0  0.75491  0.26059  0.67599  1.0000
  H   H3967     1.0  0.75949  0.17404  0.65749  1.0000
  S   S502      1.0  0.61250  0.23411  0.86026  1.0000
  H   H3968     1.0  0.75673  0.18124  0.55847  1.0000
  S   S503      1.0  0.69161  0.14290  0.96237  1.0000
  C   C2248     1.0  0.75649  0.04042  0.78714  1.0000
  H   H3969     1.0  0.64693  0.33355  0.87526  1.0000
  C   C2249     1.0  0.72843  0.10778  0.73614  1.0000
  Fe  Fe248     1.0  0.78500  0.25981  0.96717  1.0000
  C   C2250     1.0  0.76018  0.04531  0.76681  1.0000
  H   H3970     1.0  0.76758  0.19662  0.53753  1.0000
  H   H3971     1.0  0.68903  0.32141  0.94967  1.0000
  N   N123      1.0  0.65080  0.10622  0.69069  1.0000
  C   C2251     1.0  0.65885  0.12429  0.68680  1.0000
  C   C2252     1.0  0.65183  0.10123  0.67150  1.0000
  C   C2253     1.0  0.62960  0.11100  0.70018  1.0000
  C   C2254     1.0  0.66095  0.08930  0.70400  1.0000
  C   C2255     1.0  0.68287  0.08784  0.70270  1.0000
  C   C2256     1.0  0.65555  0.13359  0.70465  1.0000
  C   C2257     1.0  0.61786  0.09495  0.70369  1.0000
  C   C2258     1.0  0.67226  0.09545  0.65918  1.0000
  C   C2259     1.0  0.67099  0.09299  0.63931  1.0000
  C   C2260     1.0  0.69155  0.06898  0.71535  1.0000
  H   H3972     1.0  0.68086  0.10250  0.74134  1.0000
  H   H3973     1.0  0.65235  0.13569  0.67544  1.0000
  H   H3974     1.0  0.67457  0.12160  0.68043  1.0000
  H   H3975     1.0  0.64503  0.08863  0.67372  1.0000
  H   H3976     1.0  0.64342  0.11364  0.66237  1.0000
  H   H3977     1.0  0.62206  0.12430  0.69141  1.0000
  H   H3978     1.0  0.62800  0.11442  0.71463  1.0000
  H   H3979     1.0  0.65397  0.08953  0.71951  1.0000
  H   H3980     1.0  0.65917  0.07539  0.70170  1.0000
  H   H3981     1.0  0.68500  0.09997  0.70789  1.0000
  H   H3982     1.0  0.69145  0.08853  0.68773  1.0000
  H   H3983     1.0  0.64034  0.14167  0.70777  1.0000
  H   H3984     1.0  0.65817  0.12246  0.71786  1.0000
  H   H3985     1.0  0.62549  0.08075  0.71091  1.0000
  C   C2261     1.0  0.74729  0.99839  0.74694  1.0000
  H   H3986     1.0  0.68109  0.10648  0.65669  1.0000
  H   H3987     1.0  0.67984  0.08125  0.66644  1.0000
  H   H3988     1.0  0.68581  0.08904  0.63068  1.0000
  H   H3989     1.0  0.66307  0.08133  0.64097  1.0000
  H   H3990     1.0  0.66342  0.10674  0.63119  1.0000
  H   H3991     1.0  0.68359  0.06779  0.73070  1.0000
  H   H3992     1.0  0.69086  0.05629  0.70997  1.0000
  H   H3993     1.0  0.70697  0.06870  0.71488  1.0000
  Fe  Fe249     1.0  0.70321  0.11120  0.97337  1.0000
  S   S504      1.0  0.65747  0.23714  0.85689  1.0000
  C   C2262     1.0  0.77867  0.04435  0.60377  1.0000
  H   H3994     1.0  0.59759  0.16119  0.69932  1.0000
  H   H3995     1.0  0.76750  0.30980  0.67346  1.0000
  C   C2263     1.0  0.61359  0.12562  0.85527  1.0000
  C   C2264     1.0  0.62037  0.10987  0.82704  1.0000
  H   H3996     1.0  0.68136  0.17181  0.51989  1.0000
  C   C2265     1.0  0.61563  0.08980  0.86061  1.0000
  C   C2266     1.0  0.63668  0.08400  0.86389  1.0000
  Fe  Fe250     1.0  0.64022  0.23166  0.83806  1.0000
  H   H3997     1.0  0.69291  0.08035  0.81188  1.0000
  C   C2267     1.0  0.64012  0.11634  0.82054  1.0000
  C   C2268     1.0  0.65056  0.11240  0.80045  1.0000
  C   C2269     1.0  0.63933  0.06585  0.87993  1.0000
  H   H3998     1.0  0.76455  0.15915  0.61988  1.0000
  C   C2270     1.0  0.61285  0.07959  0.79239  1.0000
  H   H3999     1.0  0.62922  0.12454  0.85416  1.0000
  H   H4000     1.0  0.62262  0.09541  0.82347  1.0000
  H   H4001     1.0  0.69930  0.01922  0.95635  1.0000
  C   C2271     1.0  0.71485  0.01834  0.95591  1.0000
  C   C2272     1.0  0.70824  0.11227  0.73078  1.0000
  C   C2273     1.0  0.70336  0.08208  0.81976  1.0000
  C   C2274     1.0  0.74249  0.19612  0.97172  1.0000
  H   H4002     1.0  0.64076  0.09552  0.86837  1.0000
  H   H4003     1.0  0.64680  0.08058  0.85040  1.0000
  C   C2275     1.0  0.76747  0.34502  0.68134  1.0000
  H   H4004     1.0  0.73764  0.06464  0.64858  1.0000
  N   N124      1.0  0.77732  0.19514  0.56385  1.0000
  C   C2276     1.0  0.72752  0.18594  0.97595  1.0000
  H   H4005     1.0  0.63777  0.13220  0.81971  1.0000
  H   H4006     1.0  0.64986  0.10868  0.83071  1.0000
  H   H4007     1.0  0.64107  0.11911  0.78969  1.0000
  H   H4008     1.0  0.66385  0.11856  0.79551  1.0000
  H   H4009     1.0  0.65486  0.09655  0.80104  1.0000
  H   H4010     1.0  0.63650  0.05331  0.87583  1.0000
  C   C2277     1.0  0.78810  0.26271  0.54868  1.0000
  H   H4011     1.0  0.62946  0.06826  0.89389  1.0000
  H   H4012     1.0  0.69273  0.10230  0.76021  1.0000
  H   H4013     1.0  0.59873  0.08755  0.78983  1.0000
  H   H4014     1.0  0.69839  0.35299  0.93367  1.0000
  C   C2278     1.0  0.77213  0.18540  0.58497  1.0000
  H   H4015     1.0  0.73917  0.98679  0.80343  1.0000
  C   C2279     1.0  0.73462  0.06018  0.61346  1.0000
  H   H4016     1.0  0.75642  0.18508  0.58924  1.0000
  H   H4017     1.0  0.67468  0.31570  0.90296  1.0000
  S   S505      1.0  0.59196  0.16199  0.81367  1.0000
  C   C2280     1.0  0.65979  0.32649  0.86644  1.0000
  C   C2281     1.0  0.68683  0.22930  0.49319  1.0000
  H   H4018     1.0  0.75288  0.98759  0.82053  1.0000
  C   C2282     1.0  0.76925  0.09316  0.63704  1.0000
  H   H4019     1.0  0.74104  0.24987  0.54817  1.0000
  C   C2283     1.0  0.77505  0.15791  0.53420  1.0000
  C   C2284     1.0  0.67156  0.24238  0.48136  1.0000
  C   C2285     1.0  0.60486  0.18379  0.83107  1.0000
  H   H4020     1.0  0.76758  0.06111  0.62623  1.0000
  H   H4021     1.0  0.61998  0.23498  0.79917  1.0000
  C   C2286     1.0  0.71810  0.01644  0.97668  1.0000
  H   H4022     1.0  0.74379  0.46799  0.84361  1.0000
  H   H4023     1.0  0.76387  0.15120  0.54546  1.0000
  C   C2287     1.0  0.73449  0.08184  0.61194  1.0000
  H   H4024     1.0  0.70968  0.06748  0.82749  1.0000
  C   C2288     1.0  0.72022  0.05296  0.89862  1.0000
  H   H4025     1.0  0.74041  0.05737  0.59858  1.0000
  C   C2289     1.0  0.63452  0.19611  0.81834  1.0000
  H   H4026     1.0  0.78664  0.33577  0.51490  1.0000
  C   C2290     1.0  0.77071  0.18585  0.55094  1.0000
  H   H4027     1.0  0.74036  0.21520  0.55263  1.0000
  Fe  Fe251     1.0  0.59740  0.16699  0.74084  1.0000
  Fe  Fe252     1.0  0.71530  0.10179  0.93289  1.0000
  H   H4028     1.0  0.74997  0.07081  0.94644  1.0000
  H   H4029     1.0  0.70587  0.28596  0.89705  1.0000
  C   C2291     1.0  0.76283  0.21730  0.62646  1.0000
  H   H4030     1.0  0.71563  0.04608  0.75970  1.0000
  H   H4031     1.0  0.75805  0.12534  0.85994  1.0000
  H   H4032     1.0  0.78240  0.16347  0.69350  1.0000
  H   H4033     1.0  0.60174  0.06480  0.82122  1.0000
  S   S506      1.0  0.75997  0.20105  0.49124  1.0000
  C   C2292     1.0  0.65868  0.31150  0.85805  1.0000
  H   H4034     1.0  0.68396  0.39478  0.80685  1.0000
  S   S507      1.0  0.65125  0.14214  0.93245  1.0000
  H   H4035     1.0  0.73025  0.17906  0.64377  1.0000
  H   H4036     1.0  0.64500  0.30722  0.86027  1.0000
  H   H4037     1.0  0.73780  0.21201  0.57834  1.0000
  H   H4038     1.0  0.70190  0.08385  0.74579  1.0000
  C   C2293     1.0  0.60361  0.12723  0.87651  1.0000
  H   H4039     1.0  0.77243  0.22454  0.54702  1.0000
  S   S508      1.0  0.60811  0.18901  0.71514  1.0000
  C   C2294     1.0  0.75584  0.46963  0.83073  1.0000
  H   H4040     1.0  0.77530  0.00142  0.80184  1.0000
  C   C2295     1.0  0.70170  0.19837  0.52788  1.0000
  C   C2296     1.0  0.75916  0.11657  0.73434  1.0000
  H   H4041     1.0  0.71515  0.08831  0.80897  1.0000
  C   C2297     1.0  0.73932  0.18973  0.63891  1.0000
  H   H4042     1.0  0.76786  0.12810  0.72882  1.0000
  C   C2298     1.0  0.72071  0.19214  0.53515  1.0000
  H   H4043     1.0  0.66241  0.19866  0.96096  1.0000
  H   H4044     1.0  0.74715  0.43224  0.84626  1.0000
  H   H4045     1.0  0.61128  0.12009  0.81695  1.0000
  S   S509      1.0  0.78820  0.19702  0.65034  1.0000
  C   C2299     1.0  0.74743  0.11971  0.70414  1.0000
  C   C2300     1.0  0.72486  0.09482  0.59543  1.0000
  H   H4046     1.0  0.72721  0.35393  0.60540  1.0000
  H   H4047     1.0  0.78718  0.45556  0.88252  1.0000
  H   H4048     1.0  0.69201  0.18846  0.53691  1.0000
  H   H4049     1.0  0.69496  0.21312  0.53055  1.0000
  C   C2301     1.0  0.60460  0.24255  0.80235  1.0000
  S   S510      1.0  0.78636  0.25328  0.63629  1.0000
  H   H4050     1.0  0.69604  0.18533  0.86210  1.0000
  H   H4051     1.0  0.72620  0.08675  0.62549  1.0000
  H   H4052     1.0  0.77129  0.28663  0.65441  1.0000
  C   C2302     1.0  0.75585  0.18689  0.64667  1.0000
  C   C2303     1.0  0.77176  0.30736  0.50939  1.0000
  S   S511      1.0  0.72890  0.07863  0.91520  1.0000
  H   H4053     1.0  0.71768  0.19100  0.55112  1.0000
  H   H4054     1.0  0.72872  0.17783  0.53188  1.0000
  H   H4055     1.0  0.73001  0.20295  0.52809  1.0000
  H   H4056     1.0  0.71626  0.05928  0.96055  1.0000
  N   N125      1.0  0.72866  0.34050  0.78561  1.0000
  C   C2304     1.0  0.71342  0.33565  0.77802  1.0000
  C   C2305     1.0  0.74140  0.35137  0.76885  1.0000
  C   C2306     1.0  0.74018  0.32182  0.79528  1.0000
  C   C2307     1.0  0.71965  0.35315  0.80040  1.0000
  C   C2308     1.0  0.69762  0.32639  0.79367  1.0000
  C   C2309     1.0  0.75841  0.32358  0.80143  1.0000
  C   C2310     1.0  0.68188  0.32404  0.78456  1.0000
  C   C2311     1.0  0.76817  0.30408  0.81221  1.0000
  H   H4057     1.0  0.72024  0.32509  0.76838  1.0000
  H   H4058     1.0  0.70625  0.34869  0.76860  1.0000
  H   H4059     1.0  0.73248  0.36465  0.76145  1.0000
  H   H4060     1.0  0.75160  0.35684  0.77419  1.0000
  H   H4061     1.0  0.74478  0.31096  0.78583  1.0000
  H   H4062     1.0  0.73091  0.31505  0.80870  1.0000
  H   H4063     1.0  0.71296  0.34459  0.81440  1.0000
  H   H4064     1.0  0.73102  0.35855  0.80394  1.0000
  H   H4065     1.0  0.70412  0.31173  0.80105  1.0000
  H   H4066     1.0  0.69039  0.33525  0.80481  1.0000
  H   H4067     1.0  0.75459  0.33388  0.81130  1.0000
  H   H4068     1.0  0.76928  0.32855  0.78856  1.0000
  H   H4069     1.0  0.67435  0.33838  0.77747  1.0000
  C   C2312     1.0  0.67732  0.33263  0.86317  1.0000
  H   H4070     1.0  0.67101  0.31709  0.79610  1.0000
  N   N126      1.0  0.74547  0.04561  0.62797  1.0000
  H   H4071     1.0  0.77298  0.29329  0.80271  1.0000
  H   H4072     1.0  0.76814  0.32048  0.60407  1.0000
  N   N127      1.0  0.74167  0.12162  0.72512  1.0000
  S   S512      1.0  0.77501  0.24901  0.49025  1.0000
  H   H4073     1.0  0.78681  0.16633  0.61893  1.0000
  C   C2313     1.0  0.73174  0.14235  0.72603  1.0000
  H   H4074     1.0  0.76543  0.08511  0.73436  1.0000
  H   H4075     1.0  0.75611  0.01445  0.63396  1.0000
  H   H4076     1.0  0.76774  0.06447  0.68214  1.0000
  C   C2314     1.0  0.72194  0.14633  0.74663  1.0000
  H   H4077     1.0  0.77435  0.04770  0.75877  1.0000
  H   H4078     1.0  0.77565  0.45765  0.73267  1.0000
  C   C2315     1.0  0.73466  0.29181  0.89167  1.0000
  C   C2316     1.0  0.78512  0.35721  0.79506  1.0000
  C   C2317     1.0  0.71193  0.16763  0.74558  1.0000
  C   C2318     1.0  0.77320  0.09699  0.73176  1.0000
  H   H4079     1.0  0.71840  0.20348  0.49851  1.0000
  H   H4080     1.0  0.73516  0.09287  0.73376  1.0000
  H   H4081     1.0  0.65670  0.24131  0.48971  1.0000
  H   H4082     1.0  0.72080  0.14773  0.71658  1.0000
  H   H4083     1.0  0.74233  0.15206  0.71992  1.0000
  S   S513      1.0  0.62712  0.09824  0.75582  1.0000
  H   H4084     1.0  0.75443  0.11608  0.75024  1.0000
  H   H4085     1.0  0.70670  0.31076  0.89089  1.0000
  H   H4086     1.0  0.71951  0.24363  0.56492  1.0000
  H   H4087     1.0  0.59213  0.18215  0.84240  1.0000
  S   S514      1.0  0.63426  0.26273  0.82234  1.0000
  H   H4088     1.0  0.73286  0.14299  0.75586  1.0000
  H   H4089     1.0  0.71077  0.13755  0.75401  1.0000
  C   C2319     1.0  0.65041  0.17647  0.52533  1.0000
  H   H4090     1.0  0.74078  0.29445  0.68026  1.0000
  C   C2320     1.0  0.76008  0.32255  0.66380  1.0000
  C   C2321     1.0  0.74380  0.02520  0.62839  1.0000
  C   C2322     1.0  0.75546  0.05987  0.95856  1.0000
  C   C2323     1.0  0.74136  0.26875  0.67093  1.0000
  H   H4091     1.0  0.70112  0.23347  0.48648  1.0000
  H   H4092     1.0  0.74510  0.32655  0.67221  1.0000
  H   H4093     1.0  0.76552  0.46427  0.89901  1.0000
  S   S515      1.0  0.67430  0.28468  0.83427  1.0000
  H   H4094     1.0  0.73106  0.28432  0.86574  1.0000
  H   H4095     1.0  0.72258  0.17719  0.73888  1.0000
  H   H4096     1.0  0.70042  0.17158  0.73693  1.0000
  H   H4097     1.0  0.70511  0.17017  0.76046  1.0000
  C   C2324     1.0  0.73108  0.03956  0.68461  1.0000
  C   C2325     1.0  0.67516  0.30251  0.84638  1.0000
  H   H4098     1.0  0.74319  0.99614  0.59701  1.0000
  H   H4099     1.0  0.72929  0.05482  0.68572  1.0000
  H   H4100     1.0  0.64285  0.16744  0.89706  1.0000
  C   C2326     1.0  0.76761  0.20068  0.64047  1.0000
  H   H4101     1.0  0.72884  0.26512  0.68255  1.0000
  S   S516      1.0  0.62198  0.27454  0.86495  1.0000
  H   H4102     1.0  0.68265  0.17747  0.90653  1.0000
  S   S517      1.0  0.77952  0.24079  0.95037  1.0000
  H   H4103     1.0  0.64856  0.18031  0.53960  1.0000
  H   H4104     1.0  0.68819  0.31464  0.77373  1.0000
  C   C2327     1.0  0.76683  0.21612  0.56164  1.0000
  H   H4105     1.0  0.67048  0.21392  0.97189  1.0000
  H   H4106     1.0  0.71319  0.03308  0.88522  1.0000
  H   H4107     1.0  0.74616  0.03732  0.95179  1.0000
  H   H4108     1.0  0.64071  0.32434  0.91916  1.0000
  N   N128      1.0  0.60998  0.10947  0.84801  1.0000
  H   H4109     1.0  0.60153  0.14469  0.89736  1.0000
  H   H4110     1.0  0.77848  0.09504  0.62274  1.0000
  H   H4111     1.0  0.74662  0.43951  0.82061  1.0000
  C   C2328     1.0  0.63611  0.19892  0.93483  1.0000
  C   C2329     1.0  0.76337  0.07593  0.67048  1.0000
  H   H4112     1.0  0.70061  0.12751  0.73070  1.0000
  H   H4113     1.0  0.74074  0.26402  0.65778  1.0000
  C   C2330     1.0  0.74530  0.08827  0.67396  1.0000
  H   H4114     1.0  0.76783  0.03906  0.79481  1.0000
  C   C2331     1.0  0.76893  0.99249  0.77104  1.0000
  H   H4115     1.0  0.71406  0.28226  0.94903  1.0000
  H   H4116     1.0  0.63344  0.20321  0.88784  1.0000
  C   C2332     1.0  0.74028  0.17444  0.94575  1.0000
  H   H4117     1.0  0.73410  0.05349  0.88885  1.0000
  H   H4118     1.0  0.71336  0.31104  0.95360  1.0000
  C   C2333     1.0  0.74526  0.28896  0.51327  1.0000
  H   H4119     1.0  0.74941  0.08443  0.60892  1.0000
  Fe  Fe253     1.0  0.71880  0.14062  0.93932  1.0000
  H   H4120     1.0  0.72872  0.32829  0.64834  1.0000
  H   H4121     1.0  0.62510  0.14017  0.88202  1.0000
  N   N129      1.0  0.69846  0.10883  0.86178  1.0000
  C   C2334     1.0  0.68406  0.09854  0.87705  1.0000
  C   C2335     1.0  0.70705  0.09741  0.84587  1.0000
  C   C2336     1.0  0.71478  0.10851  0.87123  1.0000
  C   C2337     1.0  0.68980  0.12966  0.85368  1.0000
  C   C2338     1.0  0.66801  0.13437  0.85271  1.0000
  C   C2339     1.0  0.67606  0.10667  0.89597  1.0000
  C   C2340     1.0  0.73199  0.11740  0.85786  1.0000
  C   C2341     1.0  0.69296  0.09525  0.83420  1.0000
  C   C2342     1.0  0.66197  0.15477  0.84108  1.0000
  C   C2343     1.0  0.65704  0.10051  0.90708  1.0000
  C   C2344     1.0  0.74547  0.11966  0.86980  1.0000
  H   H4122     1.0  0.69067  0.08291  0.88149  1.0000
  H   H4123     1.0  0.67158  0.09836  0.87113  1.0000
  H   H4124     1.0  0.71832  0.10420  0.83480  1.0000
  H   H4125     1.0  0.71455  0.08253  0.85207  1.0000
  H   H4126     1.0  0.72093  0.09333  0.87782  1.0000
  H   H4127     1.0  0.70929  0.11639  0.88338  1.0000
  H   H4128     1.0  0.69120  0.13949  0.86249  1.0000
  H   H4129     1.0  0.69815  0.13456  0.83883  1.0000
  H   H4130     1.0  0.65886  0.13365  0.86748  1.0000
  H   H4131     1.0  0.66443  0.12411  0.84607  1.0000
  H   H4132     1.0  0.68668  0.10107  0.90565  1.0000
  H   H4133     1.0  0.67360  0.12272  0.89306  1.0000
  H   H4134     1.0  0.72690  0.13189  0.84914  1.0000
  H   H4135     1.0  0.74082  0.10774  0.84785  1.0000
  H   H4136     1.0  0.68081  0.08875  0.84382  1.0000
  H   H4137     1.0  0.68726  0.10955  0.82555  1.0000
  H   H4138     1.0  0.64626  0.15767  0.84107  1.0000
  H   H4139     1.0  0.66455  0.16580  0.84768  1.0000
  H   H4140     1.0  0.67004  0.15629  0.82577  1.0000
  H   H4141     1.0  0.65284  0.10466  0.92147  1.0000
  H   H4142     1.0  0.64529  0.10780  0.89893  1.0000
  H   H4143     1.0  0.65863  0.08457  0.90946  1.0000
  C   C2345     1.0  0.72643  0.00092  0.94709  1.0000
  H   H4144     1.0  0.75097  0.10544  0.87880  1.0000
  H   H4145     1.0  0.64624  0.31074  0.94228  1.0000
  C   C2346     1.0  0.75098  0.10546  0.64048  1.0000
  C   C2347     1.0  0.69265  0.17579  0.87661  1.0000
  H   H4146     1.0  0.74618  0.11682  0.62884  1.0000
  H   H4147     1.0  0.70986  0.10941  0.71612  1.0000
  H   H4148     1.0  0.73312  0.99332  0.62269  1.0000
  H   H4149     1.0  0.77670  0.29461  0.52043  1.0000
  C   C2348     1.0  0.74056  0.29058  0.66655  1.0000
  S   S518      1.0  0.65170  0.20795  0.82081  1.0000
  C   C2349     1.0  0.72666  0.17480  0.96318  1.0000
  C   C2350     1.0  0.78429  0.38046  0.76462  1.0000
  H   H4150     1.0  0.67444  0.19918  0.88961  1.0000
  H   H4151     1.0  0.75736  0.36571  0.73016  1.0000
  C   C2351     1.0  0.76669  0.12944  0.66995  1.0000
  C   C2352     1.0  0.76339  0.47332  0.86868  1.0000
  H   H4152     1.0  0.76964  0.22299  0.57240  1.0000
  C   C2353     1.0  0.73600  0.05011  0.64782  1.0000
  Fe  Fe254     1.0  0.59209  0.15562  0.78495  1.0000
  H   H4153     1.0  0.73304  0.09139  0.58118  1.0000
  C   C2354     1.0  0.72537  0.36039  0.61819  1.0000
  H   H4154     1.0  0.75341  0.13367  0.66375  1.0000
  C   C2355     1.0  0.77540  0.07824  0.65204  1.0000
  H   H4155     1.0  0.60388  0.25831  0.79641  1.0000
  H   H4156     1.0  0.71921  0.05862  0.61696  1.0000
  H   H4157     1.0  0.59276  0.23779  0.72473  1.0000
  H   H4158     1.0  0.72653  0.29798  0.66223  1.0000
  C   C2356     1.0  0.70761  0.34169  0.94282  1.0000
  Fe  Fe255     1.0  0.78105  0.04173  0.71779  1.0000
  C   C2357     1.0  0.64107  0.17622  0.90758  1.0000
  H   H4159     1.0  0.71694  0.25932  0.91806  1.0000
  C   C2358     1.0  0.65052  0.31171  0.92632  1.0000
  S   S519      1.0  0.73110  0.10975  0.95139  1.0000
  C   C2359     1.0  0.69519  0.09941  0.74541  1.0000
  H   H4160     1.0  0.73475  0.30877  0.86232  1.0000
  H   H4161     1.0  0.73439  0.12366  0.69752  1.0000
  H   H4162     1.0  0.65444  0.06218  0.88223  1.0000
  H   H4163     1.0  0.77267  0.26804  0.55278  1.0000
  H   H4164     1.0  0.75747  0.46047  0.86954  1.0000
  H   H4165     1.0  0.75807  0.29859  0.82559  1.0000
  H   H4166     1.0  0.75720  0.00308  0.77815  1.0000
  N   N130      1.0  0.75958  0.31706  0.64523  1.0000
  H   H4167     1.0  0.60375  0.18310  0.89753  1.0000
  C   C2360     1.0  0.75337  0.33995  0.75288  1.0000
  H   H4168     1.0  0.60103  0.22089  0.74527  1.0000
  C   C2361     1.0  0.78202  0.29717  0.90163  1.0000
  C   C2362     1.0  0.77094  0.33892  0.66194  1.0000
  H   H4169     1.0  0.74638  0.24607  0.93153  1.0000
  N   N131      1.0  0.68874  0.20773  0.49579  1.0000
  H   H4170     1.0  0.72237  0.98730  0.95640  1.0000
  C   C2363     1.0  0.76860  0.44936  0.82912  1.0000
  H   H4171     1.0  0.78101  0.48074  0.88476  1.0000
  C   C2364     1.0  0.66991  0.20232  0.50743  1.0000
  H   H4172     1.0  0.75267  0.13180  0.97420  1.0000
  H   H4173     1.0  0.75203  0.35191  0.68578  1.0000
  C   C2365     1.0  0.78747  0.99081  0.79530  1.0000
  H   H4174     1.0  0.78844  0.28804  0.89110  1.0000
  H   H4175     1.0  0.75532  0.14808  0.69016  1.0000
  H   H4176     1.0  0.59368  0.22657  0.69039  1.0000
  H   H4177     1.0  0.76570  0.42049  0.82896  1.0000
  C   C2366     1.0  0.60931  0.14340  0.88234  1.0000
  H   H4178     1.0  0.65027  0.16081  0.52789  1.0000
  H   H4179     1.0  0.77356  0.11407  0.66941  1.0000
  H   H4180     1.0  0.73048  0.02152  0.63884  1.0000
  C   C2367     1.0  0.73202  0.24498  0.94116  1.0000
  H   H4181     1.0  0.60561  0.08849  0.87505  1.0000
  N   N132      1.0  0.78886  0.31570  0.49672  1.0000
  H   H4182     1.0  0.77693  0.13871  0.66075  1.0000
  C   C2368     1.0  0.72260  0.05039  0.97324  1.0000
  H   H4183     1.0  0.75631  0.29156  0.63716  1.0000
  H   H4184     1.0  0.59951  0.24014  0.81835  1.0000
  H   H4185     1.0  0.60784  0.11351  0.88682  1.0000
  C   C2369     1.0  0.74461  0.99891  0.61085  1.0000
  H   H4186     1.0  0.75392  0.02560  0.59676  1.0000
  C   C2370     1.0  0.71038  0.47600  0.88075  1.0000
  H   H4187     1.0  0.71911  0.03155  0.94601  1.0000
  H   H4188     1.0  0.77830  0.00153  0.75991  1.0000
  H   H4189     1.0  0.77549  0.12904  0.69604  1.0000
  C   C2371     1.0  0.78015  0.15761  0.61298  1.0000
  H   H4190     1.0  0.58970  0.11414  0.70987  1.0000
  C   C2372     1.0  0.59785  0.09991  0.71647  1.0000
  H   H4191     1.0  0.73235  0.24615  0.95601  1.0000
  C   C2373     1.0  0.77510  0.46816  0.88466  1.0000
  H   H4192     1.0  0.78204  0.09831  0.71677  1.0000
  H   H4193     1.0  0.70966  0.09323  0.59768  1.0000
  H   H4194     1.0  0.72475  0.11015  0.59500  1.0000
  H   H4195     1.0  0.72825  0.02803  0.60530  1.0000
  H   H4196     1.0  0.76915  0.29100  0.48895  1.0000
  H   H4197     1.0  0.76805  0.16809  0.52255  1.0000
  C   C2374     1.0  0.74258  0.02066  0.60906  1.0000
  H   H4198     1.0  0.72524  0.37614  0.61296  1.0000
  H   H4199     1.0  0.77434  0.34373  0.72566  1.0000
  H   H4200     1.0  0.77684  0.46586  0.69997  1.0000
  C   C2375     1.0  0.78280  0.16416  0.59090  1.0000
  Fe  Fe256     1.0  0.68712  0.98556  0.85569  1.0000
  H   H4201     1.0  0.59920  0.10035  0.73121  1.0000
  H   H4202     1.0  0.77670  0.15444  0.58567  1.0000
  H   H4203     1.0  0.78584  0.14627  0.52778  1.0000
  H   H4204     1.0  0.59224  0.23430  0.66516  1.0000
  H   H4205     1.0  0.75561  0.35337  0.61855  1.0000
  H   H4206     1.0  0.75905  0.99088  0.61388  1.0000
  H   H4207     1.0  0.73367  0.01037  0.97665  1.0000
  H   H4208     1.0  0.78724  0.14212  0.61681  1.0000
  H   H4209     1.0  0.76667  0.35197  0.65101  1.0000
  H   H4210     1.0  0.59240  0.19802  0.87792  1.0000
  H   H4211     1.0  0.78822  0.15844  0.71726  1.0000
  H   H4212     1.0  0.77181  0.05414  0.59187  1.0000
  H   H4213     1.0  0.59295  0.21918  0.80018  1.0000
  H   H4214     1.0  0.78668  0.42221  0.73962  1.0000
  C   C2376     1.0  0.59241  0.23463  0.79318  1.0000
  H   H4215     1.0  0.59454  0.21756  0.90043  1.0000
  H   H4216     1.0  0.78090  0.02907  0.60248  1.0000
  H   H4217     1.0  0.75188  0.03185  0.97523  1.0000
  H   H4218     1.0  0.78837  0.46644  0.84687  1.0000
  C   C2377     1.0  0.77841  0.31856  0.63078  1.0000
  H   H4219     1.0  0.76462  0.48139  0.67016  1.0000
  H   H4220     1.0  0.58963  0.27900  0.90298  1.0000
  H   H4221     1.0  0.78134  0.29681  0.61353  1.0000
  C   C2378     1.0  0.78046  0.31263  0.61123  1.0000
  H   H4222     1.0  0.78123  0.33344  0.62715  1.0000
  Fe  Fe257     1.0  0.69486  0.12633  0.48023  1.0000
  C   C2379     1.0  0.78113  0.33238  0.48158  1.0000
  H   H4223     1.0  0.78675  0.33365  0.65746  1.0000
  C   C2380     1.0  0.58995  0.19224  0.89386  1.0000
  C   C2381     1.0  0.73635  0.93272  0.23461  1.0000
  Fe  Fe258     1.0  0.65002  0.72861  0.01211  1.0000
  C   C2382     1.0  0.73354  0.94042  0.26595  1.0000
  S   S520      1.0  0.64643  0.72133  0.04497  1.0000
  H   H4224     1.0  0.76614  0.56291  0.15080  1.0000
  C   C2383     1.0  0.65348  0.80838  0.29985  1.0000
  C   C2384     1.0  0.72594  0.59443  0.24689  1.0000
  C   C2385     1.0  0.64805  0.49054  0.26467  1.0000
  C   C2386     1.0  0.64297  0.50096  0.24494  1.0000
  C   C2387     1.0  0.68147  0.85257  0.45299  1.0000
  H   H4225     1.0  0.69825  0.86066  0.31779  1.0000
  C   C2388     1.0  0.78172  0.87363  0.29968  1.0000
  S   S521      1.0  0.70776  0.79706  0.39035  1.0000
  H   H4226     1.0  0.70775  0.81611  0.46259  1.0000
  Fe  Fe259     1.0  0.71112  0.80914  0.41430  1.0000
  S   S522      1.0  0.71901  0.83819  0.40901  1.0000
  H   H4227     1.0  0.71868  0.66831  0.45619  1.0000
  C   C2389     1.0  0.74958  0.71220  0.44291  1.0000
  Fe  Fe260     1.0  0.68026  0.79004  0.41026  1.0000
  H   H4228     1.0  0.75555  0.64446  0.47086  1.0000
  H   H4229     1.0  0.75799  0.59820  0.46066  1.0000
  C   C2390     1.0  0.70842  0.71127  0.05554  1.0000
  H   H4230     1.0  0.73387  0.61846  0.44945  1.0000
  Fe  Fe261     1.0  0.70359  0.83946  0.26765  1.0000
  S   S523      1.0  0.72709  0.81288  0.26630  1.0000
  S   S524      1.0  0.67383  0.83754  0.28535  1.0000
  Fe  Fe262     1.0  0.72982  0.86660  0.24248  1.0000
  S   S525      1.0  0.75530  0.84185  0.23798  1.0000
  S   S526      1.0  0.73225  0.89807  0.22934  1.0000
  Fe  Fe263     1.0  0.73389  0.82604  0.23440  1.0000
  S   S527      1.0  0.74035  0.80442  0.21468  1.0000
  Fe  Fe264     1.0  0.74602  0.83082  0.26999  1.0000
  S   S528      1.0  0.76629  0.82013  0.29101  1.0000
  S   S529      1.0  0.70925  0.85191  0.23566  1.0000
  S   S530      1.0  0.72172  0.85620  0.27468  1.0000
  Fe  Fe265     1.0  0.73935  0.51774  0.24775  1.0000
  S   S531      1.0  0.75218  0.51559  0.21674  1.0000
  S   S532      1.0  0.75639  0.51056  0.27114  1.0000
  Fe  Fe266     1.0  0.69808  0.52682  0.24206  1.0000
  S   S533      1.0  0.70719  0.52458  0.21084  1.0000
  S   S534      1.0  0.66652  0.53566  0.25489  1.0000
  H   H4231     1.0  0.66282  0.56890  0.17230  1.0000
  H   H4232     1.0  0.73931  0.71600  0.20264  1.0000
  Fe  Fe267     1.0  0.72891  0.54178  0.20978  1.0000
  S   S535      1.0  0.72961  0.56786  0.18537  1.0000
  H   H4233     1.0  0.69496  0.64560  0.42076  1.0000
  S   S536      1.0  0.71852  0.54563  0.24057  1.0000
  C   C2391     1.0  0.70889  0.76173  0.30624  1.0000
  Fe  Fe268     1.0  0.60525  0.63603  0.22228  1.0000
  S   S537      1.0  0.60830  0.74378  0.37996  1.0000
  S   S538      1.0  0.63731  0.62372  0.21839  1.0000
  H   H4234     1.0  0.64297  0.56709  0.28797  1.0000
  H   H4235     1.0  0.67336  0.88087  0.30045  1.0000
  S   S539      1.0  0.59995  0.66834  0.21383  1.0000
  H   H4236     1.0  0.68929  0.85140  0.35576  1.0000
  Fe  Fe269     1.0  0.64458  0.75403  0.16021  1.0000
  S   S540      1.0  0.65266  0.78107  0.14052  1.0000
  S   S541      1.0  0.61402  0.75326  0.17661  1.0000
  Fe  Fe270     1.0  0.68619  0.73237  0.15633  1.0000
  S   S542      1.0  0.69784  0.75781  0.13655  1.0000
  S   S543      1.0  0.70415  0.70320  0.16643  1.0000
  Fe  Fe271     1.0  0.67650  0.77538  0.15700  1.0000
  S   S544      1.0  0.67944  0.80134  0.16703  1.0000
  Fe  Fe272     1.0  0.67310  0.76112  0.12189  1.0000
  S   S545      1.0  0.67699  0.76852  0.08914  1.0000
  S   S546      1.0  0.66688  0.74954  0.17800  1.0000
  S   S547      1.0  0.66311  0.73439  0.14034  1.0000
  C   C2392     1.0  0.70864  0.63649  0.28945  1.0000
  C   C2393     1.0  0.60634  0.71188  0.15311  1.0000
  C   C2394     1.0  0.61285  0.72736  0.15569  1.0000
  C   C2395     1.0  0.60504  0.73488  0.17253  1.0000
  S   S548      1.0  0.65523  0.79916  0.39456  1.0000
  C   C2396     1.0  0.67101  0.93903  0.25628  1.0000
  H   H4237     1.0  0.61274  0.70578  0.14033  1.0000
  H   H4238     1.0  0.62391  0.73347  0.14466  1.0000
  C   C2397     1.0  0.75380  0.72671  0.17322  1.0000
  H   H4239     1.0  0.75281  0.65183  0.40221  1.0000
  C   C2398     1.0  0.74036  0.68278  0.15403  1.0000
  C   C2399     1.0  0.72510  0.69788  0.14892  1.0000
  H   H4240     1.0  0.73885  0.67390  0.16855  1.0000
  C   C2400     1.0  0.65782  0.55980  0.24404  1.0000
  C   C2401     1.0  0.67055  0.57053  0.23047  1.0000
  C   C2402     1.0  0.66404  0.59012  0.22272  1.0000
  C   C2403     1.0  0.64463  0.59902  0.22811  1.0000
  C   C2404     1.0  0.63166  0.58824  0.24128  1.0000
  C   C2405     1.0  0.63830  0.56862  0.24930  1.0000
  H   H4241     1.0  0.68542  0.56378  0.22575  1.0000
  H   H4242     1.0  0.67406  0.59831  0.21234  1.0000
  H   H4243     1.0  0.61662  0.59508  0.24545  1.0000
  H   H4244     1.0  0.62836  0.56037  0.25972  1.0000
  C   C2406     1.0  0.74823  0.57952  0.18380  1.0000
  C   C2407     1.0  0.74928  0.59724  0.17075  1.0000
  H   H4245     1.0  0.73827  0.60386  0.16215  1.0000
  C   C2408     1.0  0.72270  0.80338  0.20236  1.0000
  C   C2409     1.0  0.70840  0.81961  0.19747  1.0000
  C   C2410     1.0  0.69547  0.81878  0.18641  1.0000
  C   C2411     1.0  0.69651  0.80169  0.18035  1.0000
  C   C2412     1.0  0.71058  0.78532  0.18550  1.0000
  C   C2413     1.0  0.72363  0.78619  0.19646  1.0000
  H   H4246     1.0  0.70762  0.83296  0.20178  1.0000
  H   H4247     1.0  0.68467  0.83151  0.18241  1.0000
  H   H4248     1.0  0.71131  0.77209  0.18104  1.0000
  H   H4249     1.0  0.73448  0.77353  0.20047  1.0000
  H   H4250     1.0  0.73218  0.77212  0.12984  1.0000
  H   H4251     1.0  0.67851  0.51212  0.31064  1.0000
  C   C2414     1.0  0.69448  0.78769  0.33246  1.0000
  H   H4252     1.0  0.78184  0.63065  0.44754  1.0000
  C   C2415     1.0  0.67632  0.78576  0.27337  1.0000
  C   C2416     1.0  0.68019  0.80377  0.27274  1.0000
  H   H4253     1.0  0.68529  0.77710  0.26317  1.0000
  H   H4254     1.0  0.69165  0.80908  0.26159  1.0000
  S   S549      1.0  0.66677  0.70494  0.99624  1.0000
  C   C2417     1.0  0.76493  0.52942  0.27473  1.0000
  C   C2418     1.0  0.67970  0.59037  0.28723  1.0000
  C   C2419     1.0  0.70383  0.49007  0.31685  1.0000
  H   H4255     1.0  0.75879  0.54936  0.24848  1.0000
  H   H4256     1.0  0.70729  0.64653  0.98694  1.0000
  C   C2420     1.0  0.74928  0.68741  0.99710  1.0000
  C   C2421     1.0  0.76782  0.85840  0.28209  1.0000
  H   H4257     1.0  0.61121  0.72846  0.22043  1.0000
  H   H4258     1.0  0.77266  0.82183  0.43735  1.0000
  H   H4259     1.0  0.69439  0.71159  0.06602  1.0000
  H   H4260     1.0  0.60440  0.65587  0.30334  1.0000
  H   H4261     1.0  0.76105  0.85956  0.27014  1.0000
  H   H4262     1.0  0.74732  0.78105  0.15007  1.0000
  H   H4263     1.0  0.64028  0.59198  0.28937  1.0000
  Fe  Fe273     1.0  0.72224  0.76851  0.40592  1.0000
  H   H4264     1.0  0.70774  0.56861  0.31659  1.0000
  H   H4265     1.0  0.76971  0.94191  0.34007  1.0000
  H   H4266     1.0  0.64310  0.79756  0.36057  1.0000
  C   C2422     1.0  0.74389  0.83784  0.40189  1.0000
  C   C2423     1.0  0.75725  0.82095  0.39834  1.0000
  C   C2424     1.0  0.77710  0.82119  0.39255  1.0000
  H   H4267     1.0  0.76897  0.96726  0.33020  1.0000
  C   C2425     1.0  0.77018  0.85511  0.39396  1.0000
  C   C2426     1.0  0.75036  0.85494  0.39948  1.0000
  H   H4268     1.0  0.75230  0.80781  0.39969  1.0000
  H   H4269     1.0  0.71817  0.63412  0.40852  1.0000
  H   H4270     1.0  0.70884  0.72624  0.04703  1.0000
  H   H4271     1.0  0.74001  0.86805  0.40189  1.0000
  C   C2427     1.0  0.66880  0.81512  0.28598  1.0000
  C   C2428     1.0  0.64961  0.79033  0.30045  1.0000
  H   H4272     1.0  0.60308  0.78173  0.03021  1.0000
  C   C2429     1.0  0.77824  0.58170  0.11038  1.0000
  C   C2430     1.0  0.71907  0.81774  0.46941  1.0000
  C   C2431     1.0  0.73374  0.91379  0.24364  1.0000
  C   C2432     1.0  0.73169  0.90808  0.26382  1.0000
  C   C2433     1.0  0.73163  0.92133  0.27490  1.0000
  H   H4273     1.0  0.73008  0.89350  0.27092  1.0000
  H   H4274     1.0  0.73002  0.91678  0.29049  1.0000
  H   H4275     1.0  0.59894  0.68477  0.12210  1.0000
  H   H4276     1.0  0.66364  0.83113  0.46780  1.0000
  C   C2434     1.0  0.73562  0.72626  0.18927  1.0000
  H   H4277     1.0  0.73832  0.93713  0.21897  1.0000
  C   C2435     1.0  0.73627  0.94601  0.24571  1.0000
  H   H4278     1.0  0.68815  0.49865  0.19796  1.0000
  C   C2436     1.0  0.65598  0.73412  0.05666  1.0000
  C   C2437     1.0  0.65504  0.72811  0.07675  1.0000
  C   C2438     1.0  0.66160  0.73839  0.08683  1.0000
  C   C2439     1.0  0.66909  0.75488  0.07689  1.0000
  C   C2440     1.0  0.67023  0.76079  0.05674  1.0000
  C   C2441     1.0  0.66370  0.75045  0.04665  1.0000
  H   H4279     1.0  0.64918  0.71547  0.08453  1.0000
  H   H4280     1.0  0.66082  0.73354  0.10225  1.0000
  H   H4281     1.0  0.67604  0.77351  0.04892  1.0000
  H   H4282     1.0  0.66440  0.75533  0.03120  1.0000
  H   H4283     1.0  0.67648  0.58794  0.30338  1.0000
  C   C2442     1.0  0.71229  0.56853  0.28534  1.0000
  C   C2443     1.0  0.70717  0.55906  0.30720  1.0000
  C   C2444     1.0  0.72127  0.53994  0.31218  1.0000
  H   H4284     1.0  0.70007  0.58368  0.25165  1.0000
  H   H4285     1.0  0.71043  0.55864  0.27689  1.0000
  H   H4286     1.0  0.72814  0.56825  0.28170  1.0000
  H   H4287     1.0  0.69241  0.55586  0.31097  1.0000
  C   C2445     1.0  0.68550  0.95174  0.24320  1.0000
  H   H4288     1.0  0.67812  0.56154  0.28344  1.0000
  H   H4289     1.0  0.73467  0.57945  0.24858  1.0000
  H   H4290     1.0  0.73588  0.54268  0.31090  1.0000
  H   H4291     1.0  0.71628  0.53260  0.32738  1.0000
  H   H4292     1.0  0.72224  0.53019  0.30233  1.0000
  H   H4293     1.0  0.72119  0.59420  0.21851  1.0000
  H   H4294     1.0  0.71952  0.61809  0.22271  1.0000
  N   N133      1.0  0.66125  0.66430  0.15735  1.0000
  C   C2446     1.0  0.65796  0.68365  0.16279  1.0000
  C   C2447     1.0  0.67413  0.66520  0.13738  1.0000
  C   C2448     1.0  0.64188  0.66021  0.15780  1.0000
  C   C2449     1.0  0.67125  0.64820  0.17141  1.0000
  C   C2450     1.0  0.68971  0.65177  0.17569  1.0000
  C   C2451     1.0  0.64583  0.68524  0.18341  1.0000
  C   C2452     1.0  0.64263  0.64123  0.15149  1.0000
  C   C2453     1.0  0.66482  0.67797  0.12011  1.0000
  C   C2454     1.0  0.67968  0.67810  0.10095  1.0000
  C   C2455     1.0  0.69963  0.63379  0.18847  1.0000
  C   C2456     1.0  0.64737  0.70350  0.18894  1.0000
  C   C2457     1.0  0.62258  0.63998  0.14973  1.0000
  H   H4295     1.0  0.65013  0.69524  0.15261  1.0000
  H   H4296     1.0  0.67202  0.68792  0.16104  1.0000
  H   H4297     1.0  0.68713  0.67088  0.13674  1.0000
  H   H4298     1.0  0.68003  0.65040  0.13425  1.0000
  H   H4299     1.0  0.63334  0.67261  0.14890  1.0000
  H   H4300     1.0  0.63289  0.65898  0.17280  1.0000
  H   H4301     1.0  0.66111  0.64474  0.18551  1.0000
  H   H4302     1.0  0.67561  0.63449  0.16591  1.0000
  H   H4303     1.0  0.68603  0.66388  0.18348  1.0000
  H   H4304     1.0  0.70038  0.65534  0.16210  1.0000
  H   H4305     1.0  0.63032  0.68617  0.18370  1.0000
  H   H4306     1.0  0.65054  0.67274  0.19475  1.0000
  H   H4307     1.0  0.64767  0.62845  0.16251  1.0000
  H   H4308     1.0  0.65249  0.64017  0.13726  1.0000
  H   H4309     1.0  0.65258  0.67235  0.11869  1.0000
  H   H4310     1.0  0.65936  0.69320  0.12190  1.0000
  H   H4311     1.0  0.68607  0.66310  0.09868  1.0000
  H   H4312     1.0  0.67258  0.68618  0.08860  1.0000
  H   H4313     1.0  0.69143  0.68529  0.10089  1.0000
  H   H4314     1.0  0.71297  0.63667  0.19092  1.0000
  H   H4315     1.0  0.68982  0.63016  0.20274  1.0000
  H   H4316     1.0  0.70387  0.62116  0.18130  1.0000
  H   H4317     1.0  0.63735  0.70531  0.20289  1.0000
  H   H4318     1.0  0.66241  0.70258  0.19029  1.0000
  H   H4319     1.0  0.64327  0.71647  0.17782  1.0000
  H   H4320     1.0  0.61719  0.65201  0.13827  1.0000
  H   H4321     1.0  0.62330  0.62600  0.14587  1.0000
  H   H4322     1.0  0.61214  0.64080  0.16372  1.0000
  C   C2458     1.0  0.78394  0.94857  0.30986  1.0000
  H   H4323     1.0  0.77241  0.75636  0.10728  1.0000
  H   H4324     1.0  0.61681  0.74238  0.07102  1.0000
  C   C2459     1.0  0.76793  0.95358  0.32699  1.0000
  H   H4325     1.0  0.64894  0.57241  0.30829  1.0000
  H   H4326     1.0  0.65652  0.94396  0.25244  1.0000
  C   C2460     1.0  0.77756  0.58027  0.19315  1.0000
  H   H4327     1.0  0.72421  0.59915  0.28508  1.0000
  H   H4328     1.0  0.76229  0.48350  0.32589  1.0000
  H   H4329     1.0  0.78863  0.57356  0.20159  1.0000
  C   C2461     1.0  0.60474  0.68728  0.10617  1.0000
  H   H4330     1.0  0.65544  0.97283  0.26423  1.0000
  H   H4331     1.0  0.78607  0.75165  0.15236  1.0000
  C   C2462     1.0  0.60942  0.76939  0.09968  1.0000
  H   H4332     1.0  0.59407  0.68520  0.09878  1.0000
  H   H4333     1.0  0.75061  0.50924  0.34440  1.0000
  H   H4334     1.0  0.72019  0.70629  0.06392  1.0000
  H   H4335     1.0  0.78508  0.82542  0.31935  1.0000
  H   H4336     1.0  0.71385  0.61004  0.00245  1.0000
  S   S550      1.0  0.62537  0.73587  0.99625  1.0000
  Fe  Fe274     1.0  0.69956  0.77525  0.44552  1.0000
  C   C2463     1.0  0.73820  0.63085  0.43799  1.0000
  H   H4337     1.0  0.69975  0.51343  0.29158  1.0000
  C   C2464     1.0  0.64931  0.57718  0.29243  1.0000
  H   H4338     1.0  0.68645  0.71903  0.39659  1.0000
  H   H4339     1.0  0.67676  0.90260  0.30555  1.0000
  H   H4340     1.0  0.73527  0.88271  0.45815  1.0000
  N   N134      1.0  0.71891  0.87309  0.33994  1.0000
  C   C2465     1.0  0.72922  0.85329  0.33605  1.0000
  C   C2466     1.0  0.73422  0.88382  0.33969  1.0000
  C   C2467     1.0  0.70491  0.87226  0.35938  1.0000
  C   C2468     1.0  0.69484  0.85458  0.36705  1.0000
  C   C2469     1.0  0.74294  0.84133  0.35002  1.0000
  C   C2470     1.0  0.67782  0.85780  0.38401  1.0000
  C   C2471     1.0  0.74731  0.81977  0.34981  1.0000
  H   H4341     1.0  0.73813  0.85461  0.32100  1.0000
  H   H4342     1.0  0.71882  0.84444  0.33632  1.0000
  H   H4343     1.0  0.74564  0.88328  0.32618  1.0000
  H   H4344     1.0  0.74184  0.87663  0.35195  1.0000
  H   H4345     1.0  0.71234  0.87213  0.37107  1.0000
  H   H4346     1.0  0.70518  0.84135  0.37227  1.0000
  H   H4347     1.0  0.75689  0.84632  0.34565  1.0000
  H   H4348     1.0  0.73667  0.84313  0.36512  1.0000
  H   H4349     1.0  0.67172  0.84445  0.38978  1.0000
  H   H4350     1.0  0.68263  0.86101  0.39595  1.0000
  H   H4351     1.0  0.75809  0.81180  0.35897  1.0000
  H   H4352     1.0  0.73392  0.81387  0.35566  1.0000
  H   H4353     1.0  0.75322  0.81734  0.33479  1.0000
  H   H4354     1.0  0.75554  0.91241  0.33380  1.0000
  H   H4355     1.0  0.61509  0.70917  0.08278  1.0000
  H   H4356     1.0  0.77712  0.76217  0.41804  1.0000
  H   H4357     1.0  0.69549  0.77205  0.30302  1.0000
  H   H4358     1.0  0.73867  0.83738  0.46411  1.0000
  C   C2472     1.0  0.74901  0.73913  0.15356  1.0000
  C   C2473     1.0  0.71898  0.64452  0.43382  1.0000
  C   C2474     1.0  0.63894  0.76674  0.40462  1.0000
  H   H4359     1.0  0.66388  0.52843  0.21649  1.0000
  H   H4360     1.0  0.68032  0.78728  0.32948  1.0000
  H   H4361     1.0  0.72905  0.64653  0.00792  1.0000
  C   C2475     1.0  0.78150  0.72690  0.13639  1.0000
  H   H4362     1.0  0.70809  0.49952  0.32409  1.0000
  H   H4363     1.0  0.72948  0.74083  0.19273  1.0000
  H   H4364     1.0  0.77806  0.79114  0.42684  1.0000
  S   S551      1.0  0.73229  0.95681  0.28062  1.0000
  H   H4365     1.0  0.72114  0.65889  0.42489  1.0000
  H   H4366     1.0  0.66422  0.56337  0.19750  1.0000
  H   H4367     1.0  0.72582  0.73489  0.29749  1.0000
  H   H4368     1.0  0.76361  0.61012  0.47676  1.0000
  H   H4369     1.0  0.69166  0.82831  0.32003  1.0000
  H   H4370     1.0  0.75949  0.79913  0.16680  1.0000
  H   H4371     1.0  0.78314  0.72687  0.45639  1.0000
  C   C2476     1.0  0.61799  0.50203  0.18098  1.0000
  N   N135      1.0  0.70394  0.76756  0.34154  1.0000
  C   C2477     1.0  0.70628  0.75351  0.32849  1.0000
  C   C2478     1.0  0.69058  0.76101  0.36047  1.0000
  C   C2479     1.0  0.72310  0.76716  0.34612  1.0000
  C   C2480     1.0  0.73816  0.77591  0.32923  1.0000
  C   C2481     1.0  0.69051  0.80361  0.34435  1.0000
  C   C2482     1.0  0.69722  0.74000  0.37160  1.0000
  C   C2483     1.0  0.75704  0.77377  0.33585  1.0000
  C   C2484     1.0  0.68130  0.73394  0.38869  1.0000
  H   H4372     1.0  0.71857  0.74108  0.33101  1.0000
  H   H4373     1.0  0.67581  0.76238  0.35786  1.0000
  H   H4374     1.0  0.68877  0.77038  0.37095  1.0000
  H   H4375     1.0  0.72083  0.77464  0.35831  1.0000
  H   H4376     1.0  0.73028  0.75198  0.35158  1.0000
  H   H4377     1.0  0.73274  0.79158  0.32383  1.0000
  H   H4378     1.0  0.74187  0.76817  0.31715  1.0000
  H   H4379     1.0  0.68022  0.80035  0.35819  1.0000
  H   H4380     1.0  0.70409  0.80521  0.34742  1.0000
  H   H4381     1.0  0.71010  0.73903  0.37759  1.0000
  H   H4382     1.0  0.70098  0.72929  0.36214  1.0000
  H   H4383     1.0  0.72100  0.76950  0.30049  1.0000
  H   H4384     1.0  0.76714  0.78145  0.32402  1.0000
  H   H4385     1.0  0.75428  0.78002  0.34893  1.0000
  H   H4386     1.0  0.76409  0.75823  0.33943  1.0000
  H   H4387     1.0  0.66815  0.73414  0.38350  1.0000
  H   H4388     1.0  0.73224  0.66367  0.98518  1.0000
  H   H4389     1.0  0.77545  0.52549  0.13487  1.0000
  C   C2485     1.0  0.74477  0.77253  0.11760  1.0000
  C   C2486     1.0  0.76807  0.70053  0.43977  1.0000
  C   C2487     1.0  0.74357  0.64473  0.46373  1.0000
  H   H4390     1.0  0.67167  0.60529  0.28242  1.0000
  C   C2488     1.0  0.77879  0.59782  0.17985  1.0000
  H   H4391     1.0  0.70258  0.63375  0.30534  1.0000
  H   H4392     1.0  0.74466  0.53247  0.15944  1.0000
  H   H4393     1.0  0.71960  0.88570  0.30951  1.0000
  H   H4394     1.0  0.69341  0.88569  0.35901  1.0000
  H   H4395     1.0  0.67973  0.91589  0.23989  1.0000
  H   H4396     1.0  0.71143  0.69069  0.00179  1.0000
  H   H4397     1.0  0.74280  0.60225  0.21787  1.0000
  H   H4398     1.0  0.69987  0.73836  0.29945  1.0000
  H   H4399     1.0  0.77337  0.95304  0.25905  1.0000
  H   H4400     1.0  0.67913  0.86729  0.44361  1.0000
  Fe  Fe275     1.0  0.62878  0.74985  0.30764  1.0000
  H   H4401     1.0  0.72912  0.73592  0.43076  1.0000
  C   C2489     1.0  0.65547  0.52636  0.20660  1.0000
  Fe  Fe276     1.0  0.72926  0.49863  0.22066  1.0000
  H   H4402     1.0  0.70333  0.79312  0.31813  1.0000
  N   N136      1.0  0.70978  0.85528  0.46708  1.0000
  C   C2490     1.0  0.74761  0.53290  0.99357  1.0000
  H   H4403     1.0  0.72844  0.89469  0.41638  1.0000
  H   H4404     1.0  0.70614  0.62146  0.43148  1.0000
  C   C2491     1.0  0.68123  0.82314  0.33326  1.0000
  S   S552      1.0  0.69452  0.76033  0.42413  1.0000
  S   S553      1.0  0.66548  0.75136  0.99198  1.0000
  Fe  Fe277     1.0  0.60859  0.71582  0.32315  1.0000
  H   H4405     1.0  0.63431  0.76206  0.11360  1.0000
  H   H4406     1.0  0.74571  0.62444  0.42500  1.0000
  S   S554      1.0  0.77557  0.68339  0.45959  1.0000
  N   N137      1.0  0.67701  0.97306  0.23746  1.0000
  C   C2492     1.0  0.66286  0.53879  0.18650  1.0000
  H   H4407     1.0  0.75498  0.67589  0.98843  1.0000
  H   H4408     1.0  0.61156  0.77139  0.12852  1.0000
  C   C2493     1.0  0.75192  0.55117  0.98479  1.0000
  H   H4409     1.0  0.74614  0.71511  0.10224  1.0000
  H   H4410     1.0  0.77511  0.71543  0.13433  1.0000
  H   H4411     1.0  0.65101  0.85601  0.46750  1.0000
  C   C2494     1.0  0.62816  0.75485  0.40128  1.0000
  C   C2495     1.0  0.74228  0.91357  0.34545  1.0000
  C   C2496     1.0  0.77208  0.67165  0.39446  1.0000
  H   H4412     1.0  0.72275  0.58779  0.99375  1.0000
  C   C2497     1.0  0.66090  0.77908  0.28705  1.0000
  S   S555      1.0  0.60574  0.76906  0.32517  1.0000
  H   H4413     1.0  0.64246  0.76436  0.41874  1.0000
  H   H4414     1.0  0.74305  0.80359  0.44966  1.0000
  H   H4415     1.0  0.71445  0.96987  0.36111  1.0000
  C   C2498     1.0  0.72736  0.60275  0.22517  1.0000
  C   C2499     1.0  0.72247  0.66054  0.99948  1.0000
  H   H4416     1.0  0.60646  0.75583  0.03326  1.0000
  C   C2500     1.0  0.78171  0.62607  0.22796  1.0000
  N   N138      1.0  0.63571  0.79613  0.22698  1.0000
  C   C2501     1.0  0.64921  0.77823  0.23541  1.0000
  C   C2502     1.0  0.61668  0.79870  0.24137  1.0000
  C   C2503     1.0  0.63164  0.79263  0.20892  1.0000
  C   C2504     1.0  0.64418  0.81419  0.22142  1.0000
  C   C2505     1.0  0.65796  0.81556  0.23390  1.0000
  C   C2506     1.0  0.66754  0.77087  0.22087  1.0000
  C   C2507     1.0  0.61626  0.80855  0.19924  1.0000
  C   C2508     1.0  0.61731  0.80191  0.26140  1.0000
  C   C2509     1.0  0.65931  0.49437  0.22811  1.0000
  C   C2510     1.0  0.66158  0.83610  0.22987  1.0000
  C   C2511     1.0  0.68318  0.75675  0.23093  1.0000
  C   C2512     1.0  0.61722  0.80659  0.17860  1.0000
  H   H4417     1.0  0.64147  0.76597  0.24176  1.0000
  H   H4418     1.0  0.65403  0.78043  0.24777  1.0000
  H   H4419     1.0  0.60619  0.81148  0.23545  1.0000
  H   H4420     1.0  0.61000  0.78587  0.24394  1.0000
  H   H4421     1.0  0.62692  0.77854  0.21205  1.0000
  H   H4422     1.0  0.64513  0.79132  0.19752  1.0000
  H   H4423     1.0  0.65274  0.81592  0.20620  1.0000
  H   H4424     1.0  0.63233  0.82733  0.22142  1.0000
  H   H4425     1.0  0.67219  0.80566  0.23057  1.0000
  H   H4426     1.0  0.65203  0.81158  0.24959  1.0000
  H   H4427     1.0  0.66349  0.76309  0.21178  1.0000
  H   H4428     1.0  0.67380  0.78314  0.21128  1.0000
  H   H4429     1.0  0.61838  0.82330  0.19836  1.0000
  H   H4430     1.0  0.72209  0.90966  0.43423  1.0000
  H   H4431     1.0  0.62828  0.79067  0.26830  1.0000
  H   H4432     1.0  0.62042  0.81643  0.25980  1.0000
  H   H4433     1.0  0.74913  0.77870  0.08593  1.0000
  H   H4434     1.0  0.72730  0.50245  0.35339  1.0000
  H   H4435     1.0  0.64795  0.84632  0.23442  1.0000
  H   H4436     1.0  0.67223  0.83632  0.23830  1.0000
  H   H4437     1.0  0.66750  0.84107  0.21421  1.0000
  H   H4438     1.0  0.69077  0.76482  0.23657  1.0000
  H   H4439     1.0  0.67687  0.74593  0.24307  1.0000
  H   H4440     1.0  0.69411  0.74905  0.22025  1.0000
  C   C2513     1.0  0.78610  0.85583  0.31236  1.0000
  H   H4441     1.0  0.77511  0.86822  0.39275  1.0000
  H   H4442     1.0  0.78224  0.76807  0.13045  1.0000
  H   H4443     1.0  0.72724  0.83950  0.44485  1.0000
  C   C2514     1.0  0.75755  0.65686  0.42907  1.0000
  C   C2515     1.0  0.67011  0.57680  0.28108  1.0000
  H   H4444     1.0  0.66184  0.94886  0.21938  1.0000
  C   C2516     1.0  0.74314  0.72662  0.42783  1.0000
  H   H4445     1.0  0.63645  0.49586  0.27645  1.0000
  H   H4446     1.0  0.76618  0.96765  0.28987  1.0000
  S   S556      1.0  0.72829  0.78127  0.42807  1.0000
  C   C2517     1.0  0.63468  0.50960  0.18359  1.0000
  H   H4447     1.0  0.75345  0.95502  0.32381  1.0000
  C   C2518     1.0  0.75990  0.75324  0.11916  1.0000
  C   C2519     1.0  0.67494  0.49701  0.19398  1.0000
  H   H4448     1.0  0.62002  0.73896  0.10313  1.0000
  H   H4449     1.0  0.69379  0.65334  0.00955  1.0000
  H   H4450     1.0  0.69644  0.67146  0.98728  1.0000
  Fe  Fe278     1.0  0.60762  0.74285  0.34933  1.0000
  C   C2520     1.0  0.77239  0.87487  0.28474  1.0000
  S   S557      1.0  0.65566  0.75703  0.28653  1.0000
  H   H4451     1.0  0.61498  0.50848  0.16619  1.0000
  H   H4452     1.0  0.72472  0.63295  0.28700  1.0000
  H   H4453     1.0  0.78205  0.71862  0.39139  1.0000
  H   H4454     1.0  0.76313  0.70608  0.00666  1.0000
  H   H4455     1.0  0.67893  0.53484  0.18257  1.0000
  H   H4456     1.0  0.76957  0.60299  0.12930  1.0000
  H   H4457     1.0  0.77628  0.61854  0.43203  1.0000
  S   S558      1.0  0.75922  0.61914  0.98532  1.0000
  H   H4458     1.0  0.69523  0.60838  0.25248  1.0000
  N   N139      1.0  0.76613  0.74508  0.13843  1.0000
  H   H4459     1.0  0.76639  0.77014  0.45557  1.0000
  H   H4460     1.0  0.73822  0.96053  0.23866  1.0000
  H   H4461     1.0  0.70156  0.89904  0.32553  1.0000
  C   C2521     1.0  0.63924  0.78544  0.37188  1.0000
  H   H4462     1.0  0.63798  0.78517  0.31134  1.0000
  C   C2522     1.0  0.71205  0.87291  0.45095  1.0000
  C   C2523     1.0  0.73202  0.87892  0.44568  1.0000
  H   H4463     1.0  0.71130  0.96310  0.20886  1.0000
  H   H4464     1.0  0.78874  0.75515  0.38369  1.0000
  S   S559      1.0  0.63190  0.72428  0.33228  1.0000
  C   C2524     1.0  0.73967  0.52348  0.98389  1.0000
  H   H4465     1.0  0.78480  0.75753  0.46879  1.0000
  H   H4466     1.0  0.70996  0.87046  0.43718  1.0000
  H   H4467     1.0  0.62587  0.50799  0.21416  1.0000
  H   H4468     1.0  0.78204  0.93228  0.23358  1.0000
  H   H4469     1.0  0.78437  0.97771  0.29326  1.0000
  C   C2525     1.0  0.70874  0.88411  0.32346  1.0000
  H   H4470     1.0  0.68028  0.96011  0.20277  1.0000
  C   C2526     1.0  0.77030  0.62419  0.44562  1.0000
  H   H4471     1.0  0.71374  0.90748  0.35268  1.0000
  C   C2527     1.0  0.62037  0.77270  0.11349  1.0000
  H   H4472     1.0  0.74035  0.71056  0.45724  1.0000
  H   H4473     1.0  0.75803  0.55831  0.13175  1.0000
  C   C2528     1.0  0.70139  0.62441  0.27953  1.0000
  C   C2529     1.0  0.59038  0.72332  0.10300  1.0000
  H   H4474     1.0  0.67668  0.83394  0.34264  1.0000
  C   C2530     1.0  0.70901  0.63582  0.42299  1.0000
  H   H4475     1.0  0.59850  0.80413  0.28949  1.0000
  H   H4476     1.0  0.72455  0.72138  0.18472  1.0000
  H   H4477     1.0  0.77449  0.62134  0.21875  1.0000
  H   H4478     1.0  0.74194  0.73046  0.14795  1.0000
  H   H4479     1.0  0.66949  0.58174  0.26547  1.0000
  C   C2531     1.0  0.66207  0.84611  0.45897  1.0000
  C   C2532     1.0  0.72688  0.90548  0.34108  1.0000
  H   H4480     1.0  0.72982  0.48810  0.29510  1.0000
  S   S560      1.0  0.74662  0.74803  0.39091  1.0000
  H   H4481     1.0  0.59583  0.78050  0.10003  1.0000
  C   C2533     1.0  0.73713  0.77727  0.09883  1.0000
  H   H4482     1.0  0.73663  0.92909  0.34612  1.0000
  H   H4483     1.0  0.75559  0.76577  0.17108  1.0000
  H   H4484     1.0  0.69755  0.59414  0.00531  1.0000
  H   H4485     1.0  0.64147  0.56530  0.19075  1.0000
  H   H4486     1.0  0.67532  0.50537  0.17888  1.0000
  H   H4487     1.0  0.73263  0.60322  0.25264  1.0000
  C   C2534     1.0  0.59537  0.76667  0.06019  1.0000
  H   H4488     1.0  0.76126  0.63262  0.05573  1.0000
  C   C2535     1.0  0.77107  0.56209  0.26512  1.0000
  C   C2536     1.0  0.60899  0.70765  0.09859  1.0000
  H   H4489     1.0  0.69294  0.94536  0.23028  1.0000
  H   H4490     1.0  0.70062  0.88568  0.45453  1.0000
  H   H4491     1.0  0.78599  0.57880  0.47422  1.0000
  H   H4492     1.0  0.74718  0.90012  0.42487  1.0000
  C   C2537     1.0  0.75999  0.69133  0.12194  1.0000
  H   H4493     1.0  0.63647  0.97375  0.20405  1.0000
  C   C2538     1.0  0.64425  0.78226  0.39002  1.0000
  H   H4494     1.0  0.74095  0.49917  0.31874  1.0000
  H   H4495     1.0  0.72884  0.71092  0.01750  1.0000
  H   H4496     1.0  0.70719  0.62840  0.26370  1.0000
  H   H4497     1.0  0.70397  0.65216  0.28337  1.0000
  H   H4498     1.0  0.69565  0.88922  0.28968  1.0000
  H   H4499     1.0  0.76535  0.62011  0.15869  1.0000
  C   C2539     1.0  0.75481  0.72911  0.40927  1.0000
  N   N140      1.0  0.75192  0.63947  0.44400  1.0000
  H   H4500     1.0  0.75899  0.53401  0.17573  1.0000
  C   C2540     1.0  0.75909  0.52748  0.16352  1.0000
  C   C2541     1.0  0.78173  0.96414  0.29100  1.0000
  H   H4501     1.0  0.74476  0.62547  0.11302  1.0000
  C   C2542     1.0  0.67833  0.91772  0.25492  1.0000
  N   N141      1.0  0.59229  0.74422  0.09501  1.0000
  H   H4502     1.0  0.75035  0.52602  0.00795  1.0000
  H   H4503     1.0  0.74534  0.66956  0.42858  1.0000
  N   N142      1.0  0.64523  0.68823  0.25670  1.0000
  C   C2543     1.0  0.64782  0.69693  0.27237  1.0000
  C   C2544     1.0  0.62686  0.69911  0.24959  1.0000
  C   C2545     1.0  0.64306  0.66753  0.26577  1.0000
  C   C2546     1.0  0.66256  0.68754  0.24013  1.0000
  C   C2547     1.0  0.66889  0.70698  0.22982  1.0000
  C   C2548     1.0  0.66611  0.68714  0.28112  1.0000
  C   C2549     1.0  0.63532  0.65721  0.25395  1.0000
  C   C2550     1.0  0.62184  0.72146  0.24738  1.0000
  C   C2551     1.0  0.60605  0.73077  0.23556  1.0000
  C   C2552     1.0  0.68929  0.70354  0.21738  1.0000
  C   C2553     1.0  0.66668  0.69658  0.29736  1.0000
  C   C2554     1.0  0.63471  0.63621  0.26438  1.0000
  H   H4504     1.0  0.63488  0.69667  0.28447  1.0000
  H   H4505     1.0  0.64830  0.71253  0.26726  1.0000
  H   H4506     1.0  0.62683  0.69555  0.23563  1.0000
  H   H4507     1.0  0.61409  0.69421  0.26000  1.0000
  H   H4508     1.0  0.63320  0.66689  0.28028  1.0000
  H   H4509     1.0  0.65713  0.65819  0.26859  1.0000
  H   H4510     1.0  0.67529  0.67710  0.24512  1.0000
  H   H4511     1.0  0.65991  0.68163  0.22860  1.0000
  H   H4512     1.0  0.66910  0.71567  0.24015  1.0000
  H   H4513     1.0  0.65897  0.71562  0.21998  1.0000
  H   H4514     1.0  0.66635  0.67157  0.28753  1.0000
  H   H4515     1.0  0.67946  0.68856  0.26983  1.0000
  H   H4516     1.0  0.64456  0.65705  0.23926  1.0000
  H   H4517     1.0  0.62034  0.66448  0.25218  1.0000
  H   H4518     1.0  0.61623  0.72505  0.26198  1.0000
  H   H4519     1.0  0.63438  0.72838  0.24039  1.0000
  H   H4520     1.0  0.60232  0.74658  0.23507  1.0000
  Fe  Fe279     1.0  0.77349  0.58900  0.98110  1.0000
  H   H4521     1.0  0.69710  0.94968  0.25139  1.0000
  H   H4522     1.0  0.69256  0.71753  0.20825  1.0000
  H   H4523     1.0  0.70019  0.69714  0.22672  1.0000
  H   H4524     1.0  0.69049  0.69359  0.20768  1.0000
  H   H4525     1.0  0.68018  0.68982  0.30299  1.0000
  H   H4526     1.0  0.66629  0.71237  0.29199  1.0000
  H   H4527     1.0  0.65413  0.69441  0.30953  1.0000
  H   H4528     1.0  0.62726  0.63537  0.27984  1.0000
  H   H4529     1.0  0.62652  0.63002  0.25738  1.0000
  H   H4530     1.0  0.64961  0.62731  0.26347  1.0000
  N   N143      1.0  0.73598  0.68049  0.01592  1.0000
  C   C2555     1.0  0.71852  0.67708  0.01068  1.0000
  C   C2556     1.0  0.73005  0.69637  0.02747  1.0000
  H   H4531     1.0  0.66918  0.93994  0.27170  1.0000
  C   C2557     1.0  0.74717  0.66219  0.02656  1.0000
  C   C2558     1.0  0.73576  0.65118  0.04525  1.0000
  S   S561      1.0  0.78841  0.57694  0.28587  1.0000
  H   H4532     1.0  0.74377  0.86699  0.44088  1.0000
  C   C2559     1.0  0.71031  0.69756  0.04211  1.0000
  C   C2560     1.0  0.77310  0.71692  0.40582  1.0000
  C   C2561     1.0  0.74782  0.63120  0.05214  1.0000
  C   C2562     1.0  0.71240  0.74569  0.29499  1.0000
  H   H4533     1.0  0.65398  0.96063  0.18705  1.0000
  H   H4534     1.0  0.64021  0.53335  0.21205  1.0000
  H   H4535     1.0  0.70723  0.67362  0.02373  1.0000
  H   H4536     1.0  0.68626  0.49470  0.29516  1.0000
  H   H4537     1.0  0.73629  0.50939  0.99088  1.0000
  H   H4538     1.0  0.70351  0.98146  0.23715  1.0000
  H   H4539     1.0  0.76872  0.88856  0.27507  1.0000
  H   H4540     1.0  0.75422  0.65194  0.01661  1.0000
  H   H4541     1.0  0.75937  0.66528  0.03102  1.0000
  H   H4542     1.0  0.72210  0.64893  0.04300  1.0000
  H   H4543     1.0  0.73249  0.65927  0.05707  1.0000
  H   H4544     1.0  0.77113  0.57742  0.10069  1.0000
  C   C2563     1.0  0.70460  0.59418  0.25743  1.0000
  H   H4545     1.0  0.77652  0.66948  0.37926  1.0000
  C   C2564     1.0  0.77878  0.54140  0.29512  1.0000
  H   H4546     1.0  0.69823  0.70331  0.03408  1.0000
  H   H4547     1.0  0.70827  0.68331  0.05130  1.0000
  C   C2565     1.0  0.77504  0.53323  0.14633  1.0000
  H   H4548     1.0  0.59630  0.73629  0.06715  1.0000
  H   H4549     1.0  0.77073  0.57579  0.25485  1.0000
  H   H4550     1.0  0.62330  0.76604  0.04002  1.0000
  H   H4551     1.0  0.73923  0.62338  0.06531  1.0000
  H   H4552     1.0  0.75184  0.62243  0.04073  1.0000
  H   H4553     1.0  0.64466  0.81707  0.31020  1.0000
  H   H4554     1.0  0.66622  0.86996  0.37915  1.0000
  H   H4555     1.0  0.70315  0.59991  0.30351  1.0000
  S   S562      1.0  0.60753  0.74002  0.29692  1.0000
  C   C2566     1.0  0.59218  0.70376  0.16749  1.0000
  C   C2567     1.0  0.72436  0.83796  0.46089  1.0000
  H   H4556     1.0  0.76971  0.66806  0.14464  1.0000
  C   C2568     1.0  0.69262  0.87557  0.32046  1.0000
  C   C2569     1.0  0.74453  0.70605  0.11668  1.0000
  H   H4557     1.0  0.67743  0.74387  0.39899  1.0000
  H   H4558     1.0  0.61831  0.67637  0.10324  1.0000
  C   C2570     1.0  0.70808  0.60238  0.28744  1.0000
  C   C2571     1.0  0.68412  0.88787  0.30297  1.0000
  C   C2572     1.0  0.74643  0.48794  0.33068  1.0000
  H   H4559     1.0  0.74886  0.48610  0.36038  1.0000
  H   H4560     1.0  0.62523  0.77580  0.35433  1.0000
  N   N144      1.0  0.65702  0.50496  0.20777  1.0000
  H   H4561     1.0  0.62357  0.74325  0.41285  1.0000
  H   H4562     1.0  0.68537  0.62874  0.28214  1.0000
  C   C2573     1.0  0.62306  0.75807  0.38318  1.0000
  H   H4563     1.0  0.73897  0.67638  0.45826  1.0000
  C   C2574     1.0  0.59489  0.68616  0.30436  1.0000
  C   C2575     1.0  0.76460  0.60638  0.16873  1.0000
  H   H4564     1.0  0.74601  0.90563  0.35967  1.0000
  H   H4565     1.0  0.72342  0.91438  0.32703  1.0000
  H   H4566     1.0  0.75157  0.78462  0.11734  1.0000
  C   C2576     1.0  0.62904  0.77315  0.36833  1.0000
  H   H4567     1.0  0.66190  0.49345  0.26585  1.0000
  H   H4568     1.0  0.66801  0.90892  0.26489  1.0000
  C   C2577     1.0  0.76425  0.54722  0.26154  1.0000
  C   C2578     1.0  0.73665  0.80157  0.46545  1.0000
  S   S563      1.0  0.68259  0.80437  0.43339  1.0000
  C   C2579     1.0  0.59781  0.80124  0.27544  1.0000
  N   N145      1.0  0.70115  0.58887  0.27931  1.0000
  C   C2580     1.0  0.78163  0.83920  0.30962  1.0000
  H   H4569     1.0  0.76151  0.55737  0.20521  1.0000
  C   C2581     1.0  0.76229  0.57107  0.19511  1.0000
  C   C2582     1.0  0.77464  0.75937  0.14382  1.0000
  C   C2583     1.0  0.73027  0.66503  0.46446  1.0000
  H   H4570     1.0  0.71406  0.75213  0.27920  1.0000
  C   C2584     1.0  0.66744  0.98038  0.25600  1.0000
  S   S564      1.0  0.78249  0.56159  0.34230  1.0000
  H   H4571     1.0  0.73742  0.75184  0.15653  1.0000
  C   C2585     1.0  0.66523  0.96304  0.21104  1.0000
  C   C2586     1.0  0.75781  0.67948  0.14053  1.0000
  C   C2587     1.0  0.72705  0.70924  0.13011  1.0000
  H   H4572     1.0  0.71516  0.72060  0.12591  1.0000
  C   C2588     1.0  0.60078  0.74650  0.07344  1.0000
  H   H4573     1.0  0.62366  0.78746  0.10858  1.0000
  S   S565      1.0  0.60951  0.68544  0.32045  1.0000
  H   H4574     1.0  0.68047  0.87562  0.33322  1.0000
  C   C2589     1.0  0.70378  0.65785  0.99568  1.0000
  C   C2590     1.0  0.77956  0.75832  0.45544  1.0000
  H   H4575     1.0  0.62915  0.49741  0.24464  1.0000
  H   H4576     1.0  0.75054  0.59114  0.13006  1.0000
  H   H4577     1.0  0.74729  0.60944  0.09693  1.0000
  C   C2591     1.0  0.74300  0.49694  0.34835  1.0000
  H   H4578     1.0  0.70885  0.64647  0.44777  1.0000
  C   C2592     1.0  0.60552  0.74859  0.10551  1.0000
  H   H4579     1.0  0.69319  0.74698  0.33214  1.0000
  H   H4580     1.0  0.66804  0.82195  0.32904  1.0000
  H   H4581     1.0  0.60146  0.80728  0.20768  1.0000
  C   C2593     1.0  0.76474  0.65400  0.40782  1.0000
  H   H4582     1.0  0.72983  0.76577  0.09843  1.0000
  C   C2594     1.0  0.75506  0.61431  0.10548  1.0000
  H   H4583     1.0  0.76700  0.62103  0.09550  1.0000
  H   H4584     1.0  0.78362  0.93400  0.30818  1.0000
  C   C2595     1.0  0.77862  0.55905  0.28182  1.0000
  C   C2596     1.0  0.77103  0.55548  0.13827  1.0000
  C   C2597     1.0  0.73239  0.89691  0.42928  1.0000
  H   H4585     1.0  0.69268  0.91216  0.25905  1.0000
  S   S566      1.0  0.76179  0.56247  0.99759  1.0000
  H   H4586     1.0  0.69193  0.84261  0.44421  1.0000
  H   H4587     1.0  0.77272  0.51283  0.30170  1.0000
  C   C2598     1.0  0.68903  0.85297  0.47096  1.0000
  C   C2599     1.0  0.76735  0.69386  0.99896  1.0000
  C   C2600     1.0  0.76841  0.60607  0.46233  1.0000
  H   H4588     1.0  0.77676  0.64136  0.40666  1.0000
  C   C2601     1.0  0.71010  0.59995  0.99553  1.0000
  C   C2602     1.0  0.76302  0.59717  0.12047  1.0000
  H   H4589     1.0  0.63024  0.52563  0.18118  1.0000
  C   C2603     1.0  0.76041  0.77369  0.15611  1.0000
  H   H4590     1.0  0.76429  0.73223  0.17797  1.0000
  H   H4591     1.0  0.76030  0.71149  0.17163  1.0000
  H   H4592     1.0  0.60563  0.81768  0.17231  1.0000
  H   H4593     1.0  0.63144  0.80882  0.16922  1.0000
  C   C2604     1.0  0.65744  0.56039  0.18685  1.0000
  C   C2605     1.0  0.77991  0.70282  0.42120  1.0000
  H   H4594     1.0  0.76245  0.74229  0.44742  1.0000
  H   H4595     1.0  0.75424  0.74225  0.11520  1.0000
  H   H4596     1.0  0.62029  0.70850  0.10583  1.0000
  C   C2606     1.0  0.65189  0.97117  0.19641  1.0000
  H   H4597     1.0  0.61515  0.79203  0.17862  1.0000
  C   C2607     1.0  0.77229  0.52653  0.29143  1.0000
  H   H4598     1.0  0.59281  0.72467  0.24230  1.0000
  H   H4599     1.0  0.60463  0.50605  0.19179  1.0000
  H   H4600     1.0  0.64050  0.51677  0.24412  1.0000
  H   H4601     1.0  0.61868  0.77160  0.08490  1.0000
  H   H4602     1.0  0.76178  0.51146  0.16851  1.0000
  H   H4603     1.0  0.67324  0.49579  0.23075  1.0000
  H   H4604     1.0  0.65698  0.53667  0.17480  1.0000
  H   H4605     1.0  0.74153  0.69545  0.03546  1.0000
  H   H4606     1.0  0.63880  0.48559  0.20820  1.0000
  H   H4607     1.0  0.74103  0.69992  0.98802  1.0000
  H   H4608     1.0  0.59723  0.77861  0.06587  1.0000
  C   C2608     1.0  0.77244  0.84053  0.29446  1.0000
  C   C2609     1.0  0.69138  0.50335  0.30265  1.0000
  C   C2610     1.0  0.59582  0.66959  0.29748  1.0000
  H   H4609     1.0  0.62182  0.48600  0.18267  1.0000
  S   S567      1.0  0.71791  0.49900  0.25226  1.0000
  H   H4610     1.0  0.60007  0.74518  0.12145  1.0000
  H   H4611     1.0  0.77504  0.91652  0.25644  1.0000
  C   C2611     1.0  0.78360  0.83823  0.39049  1.0000
  H   H4612     1.0  0.76897  0.66167  0.43324  1.0000
  H   H4613     1.0  0.74768  0.80141  0.47359  1.0000
  C   C2612     1.0  0.63882  0.50140  0.20430  1.0000
  C   C2613     1.0  0.77001  0.78941  0.15765  1.0000
  H   H4614     1.0  0.64743  0.50554  0.17223  1.0000
  H   H4615     1.0  0.77735  0.93600  0.28001  1.0000
  C   C2614     1.0  0.60782  0.76757  0.03970  1.0000
  H   H4616     1.0  0.65695  0.84628  0.44578  1.0000
  H   H4617     1.0  0.72635  0.79119  0.09804  1.0000
  H   H4618     1.0  0.76056  0.68497  0.39502  1.0000
  H   H4619     1.0  0.77693  0.68175  0.00689  1.0000
  S   S568      1.0  0.78238  0.68896  0.10571  1.0000
  H   H4620     1.0  0.59428  0.78669  0.27829  1.0000
  C   C2615     1.0  0.77157  0.73983  0.45827  1.0000
  C   C2616     1.0  0.78519  0.94484  0.26698  1.0000
  H   H4621     1.0  0.78276  0.78290  0.16454  1.0000
  H   H4622     1.0  0.78741  0.80831  0.38936  1.0000
  H   H4623     1.0  0.78283  0.79128  0.46120  1.0000
  H   H4624     1.0  0.73541  0.63369  0.47347  1.0000
  H   H4625     1.0  0.77488  0.62166  0.24350  1.0000
  C   C2617     1.0  0.78780  0.59176  0.46244  1.0000
  S   S569      1.0  0.78791  0.89452  0.30191  1.0000
  H   H4626     1.0  0.77456  0.79832  0.14305  1.0000
  H   H4627     1.0  0.78375  0.53918  0.30842  1.0000
  C   C2618     1.0  0.78743  0.81743  0.44065  1.0000
  C   C2619     1.0  0.78758  0.92130  0.24570  1.0000
  H   H4628     1.0  0.73214  0.78736  0.47037  1.0000
  H   H4629     1.0  0.78765  0.82464  0.45228  1.0000
  H   H4630     1.0  0.77948  0.64211  0.22415  1.0000
  S   S570      1.0  0.70131  0.76060  0.47662  1.0000
  H   H4631     1.0  0.78898  0.52787  0.15124  1.0000
  C   C2620     1.0  0.75875  0.73539  0.47843  1.0000
  C   C2621     1.0  0.66217  0.97708  0.22494  1.0000
  H   H4632     1.0  0.64742  0.97677  0.23413  1.0000
  H   H4633     1.0  0.67910  0.86499  0.47763  1.0000
  H   H4634     1.0  0.78488  0.67358  0.39882  1.0000
  H   H4635     1.0  0.78718  0.72076  0.15000  1.0000
  H   H4636     1.0  0.67799  0.97690  0.26578  1.0000
  C   C2622     1.0  0.70517  0.97881  0.20764  1.0000
  N   N146      1.0  0.78723  0.56389  0.12365  1.0000
  Fe  Fe280     1.0  0.78925  0.62280  0.98409  1.0000
  H   H4637     1.0  0.78923  0.54533  0.10413  1.0000
  H   H4638     1.0  0.78957  0.58942  0.10062  1.0000
  C   C2623     1.0  0.59040  0.72719  0.18661  1.0000
  H   H4639     1.0  0.70857  0.84108  0.53506  1.0000
  H   H4640     1.0  0.71186  0.68189  0.48538  1.0000
  C   C2624     1.0  0.70135  0.86959  0.89073  1.0000
  Fe  Fe281     1.0  0.69949  0.80061  0.56468  1.0000
  S   S571      1.0  0.70565  0.76952  0.58024  1.0000
  S   S572      1.0  0.68274  0.81161  0.54043  1.0000
  Fe  Fe282     1.0  0.72139  0.81372  0.58805  1.0000
  S   S573      1.0  0.72976  0.78371  0.60510  1.0000
  S   S574      1.0  0.72884  0.84046  0.59220  1.0000
  Fe  Fe283     1.0  0.73551  0.77445  0.57672  1.0000
  H   H4641     1.0  0.71975  0.83059  0.50381  1.0000
  Fe  Fe284     1.0  0.69906  0.78152  0.60730  1.0000
  S   S575      1.0  0.68447  0.76618  0.63638  1.0000
  S   S576      1.0  0.72999  0.80474  0.55923  1.0000
  S   S577      1.0  0.69014  0.81235  0.59215  1.0000
  H   H4642     1.0  0.70960  0.81370  0.67299  1.0000
  S   S578      1.0  0.73105  0.87462  0.70822  1.0000
  H   H4643     1.0  0.70642  0.57773  0.93670  1.0000
  H   H4644     1.0  0.67741  0.84960  0.72563  1.0000
  C   C2625     1.0  0.77942  0.70059  0.97893  1.0000
  Fe  Fe285     1.0  0.66525  0.86783  0.83491  1.0000
  S   S579      1.0  0.69479  0.85618  0.84181  1.0000
  S   S580      1.0  0.65244  0.90006  0.83279  1.0000
  Fe  Fe286     1.0  0.66194  0.82829  0.82992  1.0000
  S   S581      1.0  0.69154  0.81459  0.83605  1.0000
  S   S582      1.0  0.74396  0.64447  0.93615  1.0000
  Fe  Fe287     1.0  0.68258  0.83069  0.86012  1.0000
  S   S583      1.0  0.69196  0.81519  0.88811  1.0000
  Fe  Fe288     1.0  0.70053  0.84141  0.81704  1.0000
  S   S584      1.0  0.72977  0.83986  0.79719  1.0000
  S   S585      1.0  0.65229  0.84313  0.85536  1.0000
  S   S586      1.0  0.67160  0.85414  0.80880  1.0000
  Fe  Fe289     1.0  0.76199  0.87077  0.69234  1.0000
  S   S587      1.0  0.60686  0.61132  0.89488  1.0000
  S   S588      1.0  0.65895  0.73545  0.95580  1.0000
  H   H4645     1.0  0.68719  0.89211  0.84844  1.0000
  H   H4646     1.0  0.65248  0.82343  0.96160  1.0000
  S   S589      1.0  0.62888  0.78618  0.95967  1.0000
  Fe  Fe290     1.0  0.75229  0.53419  0.88265  1.0000
  H   H4647     1.0  0.78165  0.50502  0.80923  1.0000
  Fe  Fe291     1.0  0.71296  0.56161  0.88934  1.0000
  S   S590      1.0  0.69845  0.53819  0.90962  1.0000
  S   S591      1.0  0.69833  0.59319  0.88224  1.0000
  Fe  Fe292     1.0  0.72548  0.52952  0.92201  1.0000
  S   S592      1.0  0.72589  0.51972  0.95391  1.0000
  S   S593      1.0  0.73882  0.55419  0.90334  1.0000
  S   S594      1.0  0.72781  0.54392  0.86665  1.0000
  C   C2626     1.0  0.70522  0.61063  0.97580  1.0000
  H   H4648     1.0  0.65875  0.96216  0.84334  1.0000
  H   H4649     1.0  0.70162  0.86580  0.52293  1.0000
  H   H4650     1.0  0.69282  0.62284  0.97835  1.0000
  H   H4651     1.0  0.72493  0.97240  0.83623  1.0000
  N   N147      1.0  0.68358  0.80843  0.76152  1.0000
  H   H4652     1.0  0.66192  0.85729  0.89167  1.0000
  C   C2627     1.0  0.76435  0.49044  0.68044  1.0000
  S   S595      1.0  0.74086  0.50876  0.90231  1.0000
  H   H4653     1.0  0.77579  0.76909  0.59364  1.0000
  H   H4654     1.0  0.64268  0.94103  0.83328  1.0000
  H   H4655     1.0  0.60366  0.75231  0.85793  1.0000
  C   C2628     1.0  0.74071  0.51344  0.81667  1.0000
  C   C2629     1.0  0.77920  0.49770  0.92706  1.0000
  H   H4656     1.0  0.69749  0.58129  0.82541  1.0000
  H   H4657     1.0  0.72024  0.84339  0.88217  1.0000
  H   H4658     1.0  0.63258  0.60690  0.82731  1.0000
  H   H4659     1.0  0.75109  0.97288  0.76927  1.0000
  C   C2630     1.0  0.61493  0.80412  0.78953  1.0000
  H   H4660     1.0  0.73925  0.62155  0.88473  1.0000
  C   C2631     1.0  0.77435  0.54689  0.83443  1.0000
  H   H4661     1.0  0.73459  0.95338  0.82272  1.0000
  H   H4662     1.0  0.76188  0.55514  0.84254  1.0000
  C   C2632     1.0  0.73545  0.66743  0.94184  1.0000
  C   C2633     1.0  0.73606  0.53215  0.96528  1.0000
  C   C2634     1.0  0.74035  0.55045  0.95642  1.0000
  C   C2635     1.0  0.74813  0.56001  0.96624  1.0000
  H   H4663     1.0  0.65131  0.81388  0.71969  1.0000
  H   H4664     1.0  0.78364  0.59781  0.85408  1.0000
  H   H4665     1.0  0.77648  0.95706  0.81193  1.0000
  H   H4666     1.0  0.73741  0.55736  0.94218  1.0000
  H   H4667     1.0  0.65478  0.58544  0.84678  1.0000
  H   H4668     1.0  0.76664  0.56099  0.80677  1.0000
  H   H4669     1.0  0.72554  0.89085  0.83068  1.0000
  C   C2636     1.0  0.70856  0.69342  0.95029  1.0000
  C   C2637     1.0  0.71566  0.67581  0.94400  1.0000
  Fe  Fe293     1.0  0.68048  0.72820  0.97497  1.0000
  H   H4670     1.0  0.70573  0.66830  0.94161  1.0000
  C   C2638     1.0  0.63216  0.60647  0.89255  1.0000
  C   C2639     1.0  0.64212  0.62129  0.88994  1.0000
  C   C2640     1.0  0.66246  0.61708  0.88692  1.0000
  C   C2641     1.0  0.67285  0.59799  0.88703  1.0000
  C   C2642     1.0  0.66283  0.58315  0.89009  1.0000
  C   C2643     1.0  0.64255  0.58740  0.89279  1.0000
  H   H4671     1.0  0.63417  0.63600  0.89004  1.0000
  H   H4672     1.0  0.67017  0.62862  0.88450  1.0000
  H   H4673     1.0  0.67070  0.56845  0.88988  1.0000
  H   H4674     1.0  0.63493  0.57587  0.89484  1.0000
  H   H4675     1.0  0.70116  0.88712  0.65126  1.0000
  C   C2644     1.0  0.61848  0.71507  0.93917  1.0000
  H   H4676     1.0  0.76079  0.91446  0.72688  1.0000
  H   H4677     1.0  0.64055  0.63900  0.94225  1.0000
  H   H4678     1.0  0.62264  0.72668  0.94283  1.0000
  C   C2645     1.0  0.67404  0.80785  0.90794  1.0000
  C   C2646     1.0  0.65431  0.81436  0.90760  1.0000
  C   C2647     1.0  0.64038  0.80840  0.92390  1.0000
  C   C2648     1.0  0.64619  0.79520  0.94015  1.0000
  C   C2649     1.0  0.66591  0.78868  0.94041  1.0000
  C   C2650     1.0  0.67977  0.79536  0.92453  1.0000
  H   H4679     1.0  0.64974  0.82417  0.89498  1.0000
  H   H4680     1.0  0.62511  0.81350  0.92371  1.0000
  H   H4681     1.0  0.67051  0.77858  0.95294  1.0000
  H   H4682     1.0  0.69500  0.79053  0.92498  1.0000
  H   H4683     1.0  0.61135  0.68798  0.82430  1.0000
  H   H4684     1.0  0.63070  0.71071  0.80056  1.0000
  H   H4685     1.0  0.65275  0.66327  0.86327  1.0000
  S   S596      1.0  0.70385  0.50151  0.87423  1.0000
  H   H4686     1.0  0.70589  0.83605  0.73737  1.0000
  Fe  Fe294     1.0  0.59121  0.64248  0.88872  1.0000
  H   H4687     1.0  0.62657  0.84301  0.81022  1.0000
  C   C2651     1.0  0.73064  0.86474  0.73286  1.0000
  C   C2652     1.0  0.71334  0.86786  0.74642  1.0000
  C   C2653     1.0  0.71297  0.86016  0.76624  1.0000
  C   C2654     1.0  0.72988  0.84945  0.77251  1.0000
  C   C2655     1.0  0.74720  0.84634  0.75892  1.0000
  C   C2656     1.0  0.74757  0.85389  0.73910  1.0000
  H   H4688     1.0  0.70028  0.87631  0.74158  1.0000
  H   H4689     1.0  0.69968  0.86278  0.77663  1.0000
  H   H4690     1.0  0.76036  0.83803  0.76371  1.0000
  H   H4691     1.0  0.76099  0.85132  0.72871  1.0000
  H   H4692     1.0  0.74706  0.69709  0.53958  1.0000
  H   H4693     1.0  0.65073  0.76365  0.75321  1.0000
  Fe  Fe295     1.0  0.64361  0.71414  0.97844  1.0000
  C   C2657     1.0  0.66672  0.85680  0.73676  1.0000
  H   H4694     1.0  0.74270  0.74202  0.60612  1.0000
  C   C2658     1.0  0.68815  0.79737  0.52270  1.0000
  C   C2659     1.0  0.70213  0.78014  0.52376  1.0000
  C   C2660     1.0  0.70603  0.76896  0.50956  1.0000
  C   C2661     1.0  0.69635  0.77515  0.49397  1.0000
  H   H4695     1.0  0.76440  0.49494  0.93368  1.0000
  C   C2662     1.0  0.67835  0.80349  0.50719  1.0000
  H   H4696     1.0  0.70976  0.77530  0.53565  1.0000
  H   H4697     1.0  0.71660  0.75546  0.51067  1.0000
  H   H4698     1.0  0.75131  0.89310  0.73961  1.0000
  H   H4699     1.0  0.66733  0.81665  0.50646  1.0000
  C   C2663     1.0  0.66317  0.77857  0.64943  1.0000
  C   C2664     1.0  0.65340  0.79674  0.64105  1.0000
  C   C2665     1.0  0.63641  0.80623  0.65186  1.0000
  C   C2666     1.0  0.62920  0.79763  0.67109  1.0000
  C   C2667     1.0  0.63902  0.77953  0.67952  1.0000
  C   C2668     1.0  0.65595  0.77002  0.66868  1.0000
  H   H4700     1.0  0.65875  0.80333  0.62617  1.0000
  H   H4701     1.0  0.62881  0.82021  0.64528  1.0000
  H   H4702     1.0  0.63352  0.77280  0.69434  1.0000
  H   H4703     1.0  0.66346  0.75595  0.67520  1.0000
  C   C2669     1.0  0.74547  0.83819  0.60689  1.0000
  C   C2670     1.0  0.75418  0.82006  0.61645  1.0000
  H   H4704     1.0  0.61173  0.79325  0.78380  1.0000
  S   S597      1.0  0.77896  0.59670  0.94876  1.0000
  C   C2671     1.0  0.76402  0.85361  0.61983  1.0000
  C   C2672     1.0  0.75024  0.85495  0.60884  1.0000
  H   H4705     1.0  0.75038  0.80711  0.61530  1.0000
  H   H4706     1.0  0.76792  0.86660  0.62088  1.0000
  H   H4707     1.0  0.74345  0.86904  0.60160  1.0000
  C   C2673     1.0  0.68207  0.93892  0.85154  1.0000
  C   C2674     1.0  0.68998  0.91909  0.85284  1.0000
  C   C2675     1.0  0.68087  0.90721  0.84732  1.0000
  C   C2676     1.0  0.66383  0.91493  0.84021  1.0000
  C   C2677     1.0  0.65590  0.93485  0.83875  1.0000
  C   C2678     1.0  0.66499  0.94685  0.84440  1.0000
  H   H4708     1.0  0.70321  0.91286  0.85828  1.0000
  C   C2679     1.0  0.65131  0.81675  0.70396  1.0000
  H   H4709     1.0  0.72345  0.81447  0.74311  1.0000
  H   H4710     1.0  0.65477  0.65739  0.93728  1.0000
  H   H4711     1.0  0.76709  0.73296  0.48995  1.0000
  N   N148      1.0  0.76616  0.48490  0.83132  1.0000
  C   C2680     1.0  0.67903  0.62199  0.94652  1.0000
  C   C2681     1.0  0.72143  0.85693  0.88573  1.0000
  H   H4712     1.0  0.76120  0.50753  0.76675  1.0000
  H   H4713     1.0  0.76359  0.67082  0.94301  1.0000
  H   H4714     1.0  0.66904  0.87176  0.73450  1.0000
  C   C2682     1.0  0.63436  0.74307  0.83195  1.0000
  H   H4715     1.0  0.70984  0.83060  0.70434  1.0000
  H   H4716     1.0  0.73683  0.91238  0.79915  1.0000
  S   S598      1.0  0.71261  0.72367  0.96380  1.0000
  H   H4717     1.0  0.66679  0.61917  0.92288  1.0000
  H   H4718     1.0  0.64050  0.84550  0.97032  1.0000
  S   S599      1.0  0.77033  0.88409  0.66082  1.0000
  H   H4719     1.0  0.71822  0.81849  0.64755  1.0000
  H   H4720     1.0  0.68492  0.56205  0.83873  1.0000
  C   C2683     1.0  0.63214  0.81267  0.80969  1.0000
  Fe  Fe296     1.0  0.60275  0.76511  0.75197  1.0000
  H   H4721     1.0  0.72692  0.85363  0.51936  1.0000
  C   C2684     1.0  0.62332  0.83215  0.80452  1.0000
  H   H4722     1.0  0.78145  0.78475  0.60538  1.0000
  C   C2685     1.0  0.59535  0.62404  0.83409  1.0000
  H   H4723     1.0  0.69074  0.55863  0.97071  1.0000
  H   H4724     1.0  0.71796  0.61669  0.96695  1.0000
  C   C2686     1.0  0.72010  0.78000  0.65966  1.0000
  H   H4725     1.0  0.77494  0.48800  0.80003  1.0000
  H   H4726     1.0  0.65174  0.89008  0.93128  1.0000
  H   H4727     1.0  0.75113  0.51727  0.80294  1.0000
  H   H4728     1.0  0.65116  0.76322  0.77796  1.0000
  S   S600      1.0  0.60794  0.80986  0.68426  1.0000
  C   C2687     1.0  0.77094  0.66966  0.51719  1.0000
  C   C2688     1.0  0.69303  0.58929  0.93787  1.0000
  C   C2689     1.0  0.78566  0.67566  0.56255  1.0000
  H   H4729     1.0  0.68672  0.83958  0.48185  1.0000
  H   H4730     1.0  0.73820  0.91173  0.72315  1.0000
  N   N149      1.0  0.66569  0.74989  0.89127  1.0000
  C   C2690     1.0  0.67654  0.74760  0.87106  1.0000
  C   C2691     1.0  0.65913  0.73130  0.90248  1.0000
  C   C2692     1.0  0.64786  0.76577  0.88922  1.0000
  C   C2693     1.0  0.67757  0.75600  0.90200  1.0000
  C   C2694     1.0  0.69663  0.74176  0.90578  1.0000
  C   C2695     1.0  0.68352  0.76573  0.85738  1.0000
  C   C2696     1.0  0.63253  0.76807  0.90819  1.0000
  C   C2697     1.0  0.67274  0.71180  0.89872  1.0000
  C   C2698     1.0  0.66622  0.69457  0.91379  1.0000
  C   C2699     1.0  0.70846  0.75073  0.91433  1.0000
  C   C2700     1.0  0.69365  0.76158  0.83727  1.0000
  H   H4731     1.0  0.77167  0.58359  0.89053  1.0000
  H   H4732     1.0  0.66726  0.74302  0.86375  1.0000
  H   H4733     1.0  0.68964  0.73586  0.87149  1.0000
  H   H4734     1.0  0.65588  0.73091  0.91836  1.0000
  H   H4735     1.0  0.64525  0.73080  0.89900  1.0000
  H   H4736     1.0  0.64031  0.76352  0.87868  1.0000
  H   H4737     1.0  0.65196  0.78017  0.88320  1.0000
  H   H4738     1.0  0.68094  0.77046  0.89445  1.0000
  H   H4739     1.0  0.66906  0.75822  0.91653  1.0000
  H   H4740     1.0  0.70590  0.73760  0.89226  1.0000
  H   H4741     1.0  0.69331  0.72862  0.91664  1.0000
  H   H4742     1.0  0.67124  0.77814  0.85525  1.0000
  H   H4743     1.0  0.69399  0.77013  0.86328  1.0000
  H   H4744     1.0  0.63869  0.77169  0.91889  1.0000
  H   H4745     1.0  0.62694  0.75467  0.91519  1.0000
  H   H4746     1.0  0.67242  0.70972  0.88420  1.0000
  H   H4747     1.0  0.68797  0.71116  0.89899  1.0000
  H   H4748     1.0  0.65144  0.69371  0.91308  1.0000
  H   H4749     1.0  0.67631  0.68090  0.91089  1.0000
  H   H4750     1.0  0.66622  0.69589  0.92869  1.0000
  H   H4751     1.0  0.70014  0.75426  0.92851  1.0000
  H   H4752     1.0  0.72202  0.74021  0.91692  1.0000
  H   H4753     1.0  0.69873  0.77466  0.82783  1.0000
  H   H4754     1.0  0.70641  0.74944  0.83831  1.0000
  H   H4755     1.0  0.68343  0.75797  0.83038  1.0000
  H   H4756     1.0  0.66499  0.81688  0.66589  1.0000
  H   H4757     1.0  0.73025  0.86492  0.87285  1.0000
  H   H4758     1.0  0.70138  0.82212  0.77165  1.0000
  H   H4759     1.0  0.66563  0.93647  0.89973  1.0000
  C   C2701     1.0  0.66995  0.82816  0.67010  1.0000
  C   C2702     1.0  0.77815  0.82415  0.55472  1.0000
  C   C2703     1.0  0.62138  0.69646  0.95084  1.0000
  C   C2704     1.0  0.76769  0.96673  0.80131  1.0000
  S   S601      1.0  0.62226  0.73944  0.76678  1.0000
  C   C2705     1.0  0.61548  0.68159  0.94626  1.0000
  H   H4760     1.0  0.60851  0.64619  0.83608  1.0000
  H   H4761     1.0  0.78078  0.50161  0.91101  1.0000
  S   S602      1.0  0.60339  0.66735  0.86838  1.0000
  C   C2706     1.0  0.63570  0.87723  0.90147  1.0000
  H   H4762     1.0  0.75418  0.71692  0.63333  1.0000
  H   H4763     1.0  0.60479  0.78608  0.91789  1.0000
  H   H4764     1.0  0.66834  0.78825  0.78380  1.0000
  H   H4765     1.0  0.75556  0.71870  0.55666  1.0000
  C   C2707     1.0  0.72134  0.70287  0.95387  1.0000
  C   C2708     1.0  0.67133  0.85592  0.62949  1.0000
  H   H4766     1.0  0.64265  0.86119  0.93588  1.0000
  H   H4767     1.0  0.69618  0.85741  0.92103  1.0000
  H   H4768     1.0  0.66990  0.78856  0.74066  1.0000
  H   H4769     1.0  0.69316  0.69944  0.95278  1.0000
  S   S603      1.0  0.76188  0.75327  0.56596  1.0000
  C   C2709     1.0  0.65479  0.83616  0.96581  1.0000
  C   C2710     1.0  0.66485  0.90609  0.90416  1.0000
  C   C2711     1.0  0.66878  0.84588  0.75740  1.0000
  H   H4770     1.0  0.75614  0.67871  0.51776  1.0000
  C   C2712     1.0  0.76829  0.81867  0.62706  1.0000
  C   C2713     1.0  0.69313  0.84976  0.66098  1.0000
  N   N150      1.0  0.69636  0.60537  0.94543  1.0000
  C   C2714     1.0  0.72682  0.53226  0.82068  1.0000
  C   C2715     1.0  0.65209  0.64576  0.93160  1.0000
  H   H4771     1.0  0.69091  0.59434  0.92271  1.0000
  H   H4772     1.0  0.66706  0.61787  0.95867  1.0000
  H   H4773     1.0  0.69435  0.84227  0.50774  1.0000
  C   C2716     1.0  0.68560  0.57734  0.83770  1.0000
  C   C2717     1.0  0.78813  0.65577  0.59643  1.0000
  H   H4774     1.0  0.73021  0.63883  0.90042  1.0000
  C   C2718     1.0  0.77288  0.79527  0.71649  1.0000
  H   H4775     1.0  0.74614  0.91574  0.76139  1.0000
  C   C2719     1.0  0.77743  0.66036  0.57973  1.0000
  H   H4776     1.0  0.60781  0.73300  0.91385  1.0000
  C   C2720     1.0  0.74729  0.90898  0.73412  1.0000
  H   H4777     1.0  0.71351  0.81531  0.48525  1.0000
  H   H4778     1.0  0.68167  0.83758  0.94571  1.0000
  H   H4779     1.0  0.59285  0.61766  0.84991  1.0000
  H   H4780     1.0  0.75081  0.57433  0.95958  1.0000
  C   C2721     1.0  0.60736  0.68506  0.92978  1.0000
  C   C2722     1.0  0.73525  0.62317  0.90011  1.0000
  H   H4781     1.0  0.78288  0.49103  0.84879  1.0000
  C   C2723     1.0  0.71105  0.85722  0.64734  1.0000
  H   H4782     1.0  0.68309  0.85730  0.59850  1.0000
  N   N151      1.0  0.78024  0.97882  0.78557  1.0000
  H   H4783     1.0  0.75120  0.48538  0.87207  1.0000
  H   H4784     1.0  0.68497  0.81052  0.79031  1.0000
  H   H4785     1.0  0.78341  0.71029  0.53804  1.0000
  H   H4786     1.0  0.71935  0.53921  0.80834  1.0000
  C   C2724     1.0  0.77247  0.51615  0.75908  1.0000
  H   H4787     1.0  0.64686  0.65241  0.91783  1.0000
  H   H4788     1.0  0.65676  0.85648  0.63904  1.0000
  C   C2725     1.0  0.60584  0.69724  0.81186  1.0000
  H   H4789     1.0  0.72692  0.87993  0.64289  1.0000
  C   C2726     1.0  0.76812  0.73387  0.58476  1.0000
  H   H4790     1.0  0.72430  0.72451  0.57917  1.0000
  H   H4791     1.0  0.65686  0.82414  0.75185  1.0000
  H   H4792     1.0  0.71351  0.62767  0.93439  1.0000
  C   C2727     1.0  0.61014  0.71860  0.92279  1.0000
  H   H4793     1.0  0.70485  0.87386  0.48744  1.0000
  H   H4794     1.0  0.68055  0.92055  0.91602  1.0000
  Fe  Fe297     1.0  0.64248  0.75667  0.97468  1.0000
  N   N152      1.0  0.68845  0.83258  0.65651  1.0000
  C   C2728     1.0  0.71920  0.61212  0.91117  1.0000
  H   H4795     1.0  0.76567  0.83560  0.55929  1.0000
  C   C2729     1.0  0.67057  0.82177  0.69202  1.0000
  C   C2730     1.0  0.68548  0.83673  0.63593  1.0000
  H   H4796     1.0  0.73722  0.78194  0.79226  1.0000
  H   H4797     1.0  0.71182  0.58373  0.96565  1.0000
  N   N153      1.0  0.66764  0.86852  0.91401  1.0000
  H   H4798     1.0  0.61166  0.89032  0.88668  1.0000
  H   H4799     1.0  0.78541  0.64108  0.51122  1.0000
  H   H4800     1.0  0.71936  0.80093  0.80213  1.0000
  H   H4801     1.0  0.72900  0.85311  0.89808  1.0000
  C   C2731     1.0  0.62774  0.88687  0.88303  1.0000
  H   H4802     1.0  0.74831  0.61745  0.90666  1.0000
  H   H4803     1.0  0.71999  0.96510  0.79410  1.0000
  C   C2732     1.0  0.60925  0.72256  0.78271  1.0000
  C   C2733     1.0  0.66885  0.85794  0.60878  1.0000
  C   C2734     1.0  0.71430  0.61259  0.93313  1.0000
  H   H4804     1.0  0.75980  0.64344  0.52172  1.0000
  H   H4805     1.0  0.64877  0.79626  0.75834  1.0000
  C   C2735     1.0  0.66645  0.92330  0.91156  1.0000
  H   H4806     1.0  0.78453  0.51185  0.76706  1.0000
  C   C2736     1.0  0.74827  0.67714  0.94491  1.0000
  H   H4807     1.0  0.72701  0.80809  0.70991  1.0000
  H   H4808     1.0  0.60317  0.85263  0.78814  1.0000
  Fe  Fe298     1.0  0.71533  0.51967  0.88793  1.0000
  H   H4809     1.0  0.76770  0.51830  0.73062  1.0000
  C   C2737     1.0  0.71182  0.85181  0.52137  1.0000
  C   C2738     1.0  0.59873  0.74564  0.84846  1.0000
  H   H4810     1.0  0.76555  0.49118  0.71848  1.0000
  H   H4811     1.0  0.77922  0.64659  0.57500  1.0000
  H   H4812     1.0  0.76765  0.80226  0.57796  1.0000
  H   H4813     1.0  0.76719  0.50478  0.67187  1.0000
  H   H4814     1.0  0.65719  0.85385  0.76747  1.0000
  H   H4815     1.0  0.67716  0.88631  0.92797  1.0000
  H   H4816     1.0  0.66640  0.61197  0.84944  1.0000
  H   H4817     1.0  0.66866  0.55320  0.96865  1.0000
  H   H4818     1.0  0.68108  0.63779  0.91629  1.0000
  H   H4819     1.0  0.78622  0.68821  0.56821  1.0000
  H   H4820     1.0  0.59797  0.61243  0.82584  1.0000
  H   H4821     1.0  0.72754  0.60385  0.93860  1.0000
  S   S604      1.0  0.69427  0.95278  0.85910  1.0000
  C   C2739     1.0  0.74125  0.69508  0.95047  1.0000
  Fe  Fe299     1.0  0.76684  0.62708  0.95281  1.0000
  H   H4822     1.0  0.68236  0.84723  0.76034  1.0000
  H   H4823     1.0  0.78817  0.57169  0.86134  1.0000
  H   H4824     1.0  0.78541  0.66868  0.60288  1.0000
  C   C2740     1.0  0.61015  0.83757  0.79200  1.0000
  H   H4825     1.0  0.67481  0.79713  0.48098  1.0000
  H   H4826     1.0  0.75446  0.70022  0.57855  1.0000
  C   C2741     1.0  0.73238  0.89900  0.79899  1.0000
  H   H4827     1.0  0.68271  0.63434  0.95022  1.0000
  H   H4828     1.0  0.71623  0.87156  0.66791  1.0000
  H   H4829     1.0  0.65800  0.84112  0.66879  1.0000
  H   H4830     1.0  0.65442  0.92614  0.92404  1.0000
  N   N154      1.0  0.77530  0.68231  0.54576  1.0000
  H   H4831     1.0  0.71232  0.76410  0.90424  1.0000
  H   H4832     1.0  0.72440  0.59689  0.90924  1.0000
  C   C2742     1.0  0.65942  0.76573  0.76273  1.0000
  C   C2743     1.0  0.71392  0.87505  0.65276  1.0000
  H   H4833     1.0  0.66385  0.88176  0.88439  1.0000
  C   C2744     1.0  0.67636  0.78960  0.76839  1.0000
  C   C2745     1.0  0.78552  0.72053  0.58122  1.0000
  C   C2746     1.0  0.65816  0.87108  0.89706  1.0000
  H   H4834     1.0  0.73206  0.66485  0.49399  1.0000
  H   H4835     1.0  0.59107  0.81731  0.83999  1.0000
  C   C2747     1.0  0.68257  0.79251  0.49275  1.0000
  H   H4836     1.0  0.65190  0.85781  0.73464  1.0000
  C   C2748     1.0  0.59009  0.76187  0.67392  1.0000
  H   H4837     1.0  0.71756  0.76619  0.65795  1.0000
  C   C2749     1.0  0.66620  0.59063  0.83455  1.0000
  H   H4838     1.0  0.73410  0.80629  0.77806  1.0000
  C   C2750     1.0  0.66314  0.78633  0.75634  1.0000
  C   C2751     1.0  0.66614  0.61205  0.83420  1.0000
  H   H4839     1.0  0.77577  0.70450  0.51940  1.0000
  H   H4840     1.0  0.69002  0.54975  0.94998  1.0000
  N   N155      1.0  0.64945  0.62749  0.82756  1.0000
  H   H4841     1.0  0.75120  0.70263  0.95272  1.0000
  H   H4842     1.0  0.64382  0.61432  0.79612  1.0000
  C   C2752     1.0  0.64609  0.64410  0.83769  1.0000
  C   C2753     1.0  0.65424  0.63539  0.80598  1.0000
  C   C2754     1.0  0.65653  0.62121  0.79262  1.0000
  H   H4843     1.0  0.78382  0.81402  0.58346  1.0000
  C   C2755     1.0  0.66408  0.65241  0.83640  1.0000
  C   C2756     1.0  0.78008  0.51330  0.73817  1.0000
  C   C2757     1.0  0.66539  0.88735  0.92031  1.0000
  C   C2758     1.0  0.65869  0.63175  0.77132  1.0000
  H   H4844     1.0  0.67305  0.83365  0.69743  1.0000
  C   C2759     1.0  0.65857  0.66874  0.84766  1.0000
  H   H4845     1.0  0.67150  0.63868  0.76680  1.0000
  H   H4846     1.0  0.77530  0.80461  0.63406  1.0000
  H   H4847     1.0  0.68026  0.61547  0.82546  1.0000
  H   H4848     1.0  0.63897  0.82891  0.70091  1.0000
  H   H4849     1.0  0.63973  0.63964  0.85336  1.0000
  H   H4850     1.0  0.63526  0.65657  0.83179  1.0000
  H   H4851     1.0  0.64325  0.64857  0.80168  1.0000
  H   H4852     1.0  0.66813  0.64050  0.80199  1.0000
  C   C2760     1.0  0.73848  0.96398  0.82885  1.0000
  H   H4853     1.0  0.76058  0.75611  0.62853  1.0000
  H   H4854     1.0  0.63236  0.87709  0.87255  1.0000
  H   H4855     1.0  0.63291  0.90059  0.87603  1.0000
  H   H4856     1.0  0.67026  0.65850  0.82111  1.0000
  H   H4857     1.0  0.67557  0.64116  0.84266  1.0000
  C   C2761     1.0  0.74929  0.97796  0.81302  1.0000
  H   H4858     1.0  0.77766  0.50793  0.70042  1.0000
  H   H4859     1.0  0.65784  0.84141  0.92590  1.0000
  H   H4860     1.0  0.71990  0.70142  0.57878  1.0000
  C   C2762     1.0  0.61254  0.63409  0.82827  1.0000
  H   H4861     1.0  0.64550  0.64303  0.76901  1.0000
  H   H4862     1.0  0.61312  0.73445  0.82218  1.0000
  H   H4863     1.0  0.66070  0.62123  0.76196  1.0000
  H   H4864     1.0  0.77082  0.71337  0.97056  1.0000
  H   H4865     1.0  0.67681  0.86869  0.62970  1.0000
  H   H4866     1.0  0.74736  0.95602  0.83990  1.0000
  H   H4867     1.0  0.67159  0.67451  0.84658  1.0000
  H   H4868     1.0  0.64749  0.68078  0.84161  1.0000
  H   H4869     1.0  0.70325  0.79410  0.73914  1.0000
  H   H4870     1.0  0.61449  0.64018  0.81243  1.0000
  C   C2763     1.0  0.61672  0.71007  0.79847  1.0000
  H   H4871     1.0  0.58964  0.74780  0.68435  1.0000
  C   C2764     1.0  0.75646  0.73213  0.60341  1.0000
  H   H4872     1.0  0.60758  0.78059  0.89438  1.0000
  H   H4873     1.0  0.65930  0.87209  0.60421  1.0000
  C   C2765     1.0  0.69565  0.80900  0.74119  1.0000
  C   C2766     1.0  0.65809  0.85460  0.93076  1.0000
  H   H4874     1.0  0.70957  0.86124  0.63193  1.0000
  H   H4875     1.0  0.73280  0.78379  0.64837  1.0000
  H   H4876     1.0  0.73260  0.83095  0.70942  1.0000
  H   H4877     1.0  0.73488  0.54253  0.82240  1.0000
  C   C2767     1.0  0.77725  0.66510  0.53699  1.0000
  H   H4878     1.0  0.72332  0.77776  0.67429  1.0000
  C   C2768     1.0  0.77720  0.55039  0.81417  1.0000
  C   C2769     1.0  0.66587  0.82468  0.76184  1.0000
  S   S605      1.0  0.61517  0.79174  0.73821  1.0000
  N   N156      1.0  0.70596  0.91890  0.77945  1.0000
  C   C2770     1.0  0.70965  0.93812  0.78028  1.0000
  C   C2771     1.0  0.71670  0.91310  0.76034  1.0000
  C   C2772     1.0  0.68446  0.92165  0.78048  1.0000
  C   C2773     1.0  0.71122  0.90309  0.79639  1.0000
  H   H4879     1.0  0.59292  0.75931  0.65894  1.0000
  C   C2774     1.0  0.70011  0.94553  0.79938  1.0000
  C   C2775     1.0  0.67761  0.90422  0.77777  1.0000
  H   H4880     1.0  0.73409  0.93505  0.74493  1.0000
  C   C2776     1.0  0.62794  0.79869  0.80217  1.0000
  H   H4881     1.0  0.63595  0.75513  0.83779  1.0000
  Fe  Fe300     1.0  0.59793  0.79576  0.71554  1.0000
  C   C2777     1.0  0.65602  0.90930  0.77735  1.0000
  H   H4882     1.0  0.70475  0.94951  0.76800  1.0000
  H   H4883     1.0  0.72532  0.93769  0.77822  1.0000
  H   H4884     1.0  0.71911  0.89713  0.76195  1.0000
  H   H4885     1.0  0.70778  0.91944  0.74896  1.0000
  H   H4886     1.0  0.67956  0.93454  0.76941  1.0000
  H   H4887     1.0  0.67595  0.92457  0.79484  1.0000
  H   H4888     1.0  0.70136  0.90614  0.81016  1.0000
  H   H4889     1.0  0.70885  0.88902  0.79513  1.0000
  H   H4890     1.0  0.67985  0.82486  0.63361  1.0000
  C   C2778     1.0  0.67062  0.63051  0.92792  1.0000
  H   H4891     1.0  0.68416  0.94718  0.80267  1.0000
  H   H4892     1.0  0.70596  0.93543  0.81179  1.0000
  H   H4893     1.0  0.67979  0.89184  0.79008  1.0000
  H   H4894     1.0  0.68550  0.89955  0.76405  1.0000
  H   H4895     1.0  0.66695  0.57918  0.93893  1.0000
  C   C2779     1.0  0.60477  0.70356  0.91792  1.0000
  H   H4896     1.0  0.65102  0.91003  0.89896  1.0000
  H   H4897     1.0  0.61057  0.76009  0.81846  1.0000
  C   C2780     1.0  0.63105  0.61965  0.83359  1.0000
  H   H4898     1.0  0.65634  0.82247  0.77645  1.0000
  H   H4899     1.0  0.73162  0.87076  0.81838  1.0000
  H   H4900     1.0  0.63061  0.88752  0.91146  1.0000
  S   S606      1.0  0.63281  0.69102  0.97087  1.0000
  C   C2781     1.0  0.75112  0.50318  0.83390  1.0000
  C   C2782     1.0  0.60595  0.82358  0.78448  1.0000
  H   H4901     1.0  0.65303  0.92117  0.76475  1.0000
  H   H4902     1.0  0.65143  0.89636  0.77606  1.0000
  H   H4903     1.0  0.64731  0.91383  0.79098  1.0000
  C   C2783     1.0  0.72082  0.66706  0.48536  1.0000
  H   H4904     1.0  0.76851  0.65477  0.54715  1.0000
  C   C2784     1.0  0.77098  0.65095  0.51139  1.0000
  H   H4905     1.0  0.66335  0.58879  0.82098  1.0000
  H   H4906     1.0  0.73199  0.50409  0.81441  1.0000
  C   C2785     1.0  0.72638  0.79539  0.78864  1.0000
  H   H4907     1.0  0.78340  0.76987  0.70433  1.0000
  H   H4908     1.0  0.69005  0.84412  0.90702  1.0000
  H   H4909     1.0  0.71132  0.65641  0.49230  1.0000
  C   C2786     1.0  0.61514  0.78425  0.90401  1.0000
  H   H4910     1.0  0.68874  0.77698  0.76828  1.0000
  H   H4911     1.0  0.70654  0.61854  0.90424  1.0000
  C   C2787     1.0  0.72725  0.71344  0.57019  1.0000
  C   C2788     1.0  0.61370  0.74622  0.82894  1.0000
  C   C2789     1.0  0.73504  0.88482  0.81813  1.0000
  H   H4912     1.0  0.62802  0.61417  0.84967  1.0000
  H   H4913     1.0  0.66206  0.84622  0.60800  1.0000
  H   H4914     1.0  0.74621  0.67855  0.56071  1.0000
  C   C2790     1.0  0.74910  0.70603  0.56479  1.0000
  H   H4915     1.0  0.66984  0.60986  0.79388  1.0000
  H   H4916     1.0  0.71902  0.78584  0.76643  1.0000
  C   C2791     1.0  0.72079  0.82271  0.71330  1.0000
  H   H4917     1.0  0.64467  0.74270  0.81780  1.0000
  H   H4918     1.0  0.75033  0.88208  0.81966  1.0000
  H   H4919     1.0  0.77187  0.97524  0.74951  1.0000
  H   H4920     1.0  0.70509  0.77914  0.79045  1.0000
  H   H4921     1.0  0.64903  0.80360  0.70056  1.0000
  H   H4922     1.0  0.77106  0.52719  0.93073  1.0000
  C   C2792     1.0  0.75401  0.69036  0.55236  1.0000
  C   C2793     1.0  0.78421  0.69808  0.53113  1.0000
  H   H4923     1.0  0.60319  0.67338  0.92625  1.0000
  H   H4924     1.0  0.77231  0.76781  0.64006  1.0000
  S   S607      1.0  0.64917  0.80537  0.82472  1.0000
  C   C2794     1.0  0.66746  0.84754  0.94893  1.0000
  H   H4925     1.0  0.61734  0.66727  0.95545  1.0000
  H   H4926     1.0  0.76776  0.65436  0.49663  1.0000
  H   H4927     1.0  0.68980  0.79123  0.66863  1.0000
  C   C2795     1.0  0.71354  0.85937  0.48500  1.0000
  H   H4928     1.0  0.68608  0.81429  0.73039  1.0000
  H   H4929     1.0  0.72114  0.72033  0.55694  1.0000
  C   C2796     1.0  0.69489  0.80909  0.77602  1.0000
  C   C2797     1.0  0.71166  0.82118  0.73488  1.0000
  C   C2798     1.0  0.71136  0.79110  0.77995  1.0000
  H   H4930     1.0  0.75775  0.51399  0.83692  1.0000
  H   H4931     1.0  0.67671  0.90434  0.89146  1.0000
  H   H4932     1.0  0.63805  0.72909  0.84216  1.0000
  C   C2799     1.0  0.77341  0.83543  0.62857  1.0000
  C   C2800     1.0  0.70206  0.79593  0.65731  1.0000
  H   H4933     1.0  0.69953  0.83676  0.62544  1.0000
  H   H4934     1.0  0.62931  0.86420  0.90854  1.0000
  C   C2801     1.0  0.76288  0.71782  0.61877  1.0000
  H   H4935     1.0  0.68038  0.86205  0.66116  1.0000
  H   H4936     1.0  0.74223  0.89214  0.78714  1.0000
  C   C2802     1.0  0.73650  0.91916  0.75090  1.0000
  H   H4937     1.0  0.69487  0.87303  0.87778  1.0000
  H   H4938     1.0  0.72447  0.84601  0.64856  1.0000
  C   C2803     1.0  0.67542  0.57988  0.94939  1.0000
  H   H4939     1.0  0.69615  0.84613  0.67584  1.0000
  H   H4940     1.0  0.67322  0.75482  0.76143  1.0000
  H   H4941     1.0  0.68895  0.57833  0.85142  1.0000
  H   H4942     1.0  0.76186  0.66546  0.58560  1.0000
  H   H4943     1.0  0.61983  0.79820  0.89700  1.0000
  H   H4944     1.0  0.76249  0.95694  0.79531  1.0000
  H   H4945     1.0  0.63487  0.78364  0.80601  1.0000
  H   H4946     1.0  0.70350  0.88306  0.89353  1.0000
  C   C2804     1.0  0.70419  0.96542  0.79802  1.0000
  C   C2805     1.0  0.70937  0.84460  0.50433  1.0000
  H   H4947     1.0  0.68213  0.80879  0.69491  1.0000
  C   C2806     1.0  0.70522  0.81562  0.65893  1.0000
  C   C2807     1.0  0.69996  0.59683  0.96575  1.0000
  H   H4948     1.0  0.71567  0.52926  0.83409  1.0000
  H   H4949     1.0  0.66962  0.85995  0.95375  1.0000
  H   H4950     1.0  0.69912  0.79696  0.64283  1.0000
  C   C2808     1.0  0.68878  0.85908  0.90891  1.0000
  H   H4951     1.0  0.60309  0.78411  0.83561  1.0000
  H   H4952     1.0  0.60219  0.76763  0.67553  1.0000
  C   C2809     1.0  0.77406  0.75515  0.63349  1.0000
  H   H4953     1.0  0.76600  0.53171  0.75907  1.0000
  H   H4954     1.0  0.59988  0.73009  0.85592  1.0000
  H   H4955     1.0  0.69838  0.96966  0.81234  1.0000
  H   H4956     1.0  0.66516  0.58836  0.95972  1.0000
  H   H4957     1.0  0.78280  0.64397  0.60801  1.0000
  H   H4958     1.0  0.69698  0.97652  0.78702  1.0000
  C   C2810     1.0  0.68165  0.55915  0.96038  1.0000
  C   C2811     1.0  0.59131  0.72164  0.77988  1.0000
  H   H4959     1.0  0.77612  0.74166  0.64476  1.0000
  H   H4960     1.0  0.73940  0.50015  0.84671  1.0000
  H   H4961     1.0  0.77479  0.81871  0.54327  1.0000
  S   S608      1.0  0.59530  0.70834  0.89669  1.0000
  H   H4962     1.0  0.74606  0.74751  0.48039  1.0000
  S   S609      1.0  0.77920  0.84134  0.68935  1.0000
  H   H4963     1.0  0.76304  0.78793  0.72891  1.0000
  C   C2812     1.0  0.78041  0.48956  0.81240  1.0000
  H   H4964     1.0  0.72898  0.86008  0.48302  1.0000
  H   H4965     1.0  0.76447  0.80356  0.70516  1.0000
  H   H4966     1.0  0.74971  0.49242  0.68995  1.0000
  C   C2813     1.0  0.77937  0.49231  0.70770  1.0000
  H   H4967     1.0  0.78315  0.94696  0.76719  1.0000
  H   H4968     1.0  0.78105  0.67743  0.50551  1.0000
  S   S610      1.0  0.78420  0.52862  0.86942  1.0000
  C   C2814     1.0  0.78135  0.80773  0.57224  1.0000
  H   H4969     1.0  0.68705  0.59170  0.97557  1.0000
  H   H4970     1.0  0.78525  0.54975  0.90213  1.0000
  H   H4971     1.0  0.66204  0.83079  0.97844  1.0000
  H   H4972     1.0  0.76183  0.57761  0.91608  1.0000
  C   C2815     1.0  0.78097  0.70537  0.61544  1.0000
  H   H4973     1.0  0.77835  0.80545  0.72180  1.0000
  H   H4974     1.0  0.77972  0.50956  0.95068  1.0000
  C   C2816     1.0  0.77536  0.57936  0.90513  1.0000
  C   C2817     1.0  0.78766  0.77155  0.59923  1.0000
  H   H4975     1.0  0.78401  0.58336  0.83722  1.0000
  H   H4976     1.0  0.78098  0.59124  0.90736  1.0000
  H   H4977     1.0  0.77972  0.55281  0.93755  1.0000
  C   C2818     1.0  0.78224  0.51415  0.93464  1.0000
  H   H4978     1.0  0.78431  0.68871  0.97070  1.0000
  S   S611      1.0  0.78508  0.87889  0.70207  1.0000
  C   C2819     1.0  0.78782  0.53312  0.84408  1.0000
  H   H4979     1.0  0.77877  0.48323  0.74701  1.0000
  C   C2820     1.0  0.76012  0.98304  0.75951  1.0000
  H   H4980     1.0  0.75329  0.72205  0.48005  1.0000
  S   S612      1.0  0.83549  0.05915  0.31072  1.0000
  H   H4981     1.0  0.87373  0.42379  0.32632  1.0000
  Fe  Fe301     1.0  0.80820  0.23630  0.44249  1.0000
  H   H4982     1.0  0.92889  0.98840  0.38063  1.0000
  S   S613      1.0  0.82297  0.22982  0.41310  1.0000
  C   C2821     1.0  0.86831  0.16850  0.28515  1.0000
  H   H4983     1.0  0.92793  0.24639  0.43814  1.0000
  S   S614      1.0  0.80972  0.26191  0.45328  1.0000
  H   H4984     1.0  0.90768  0.16453  0.42940  1.0000
  Fe  Fe302     1.0  0.92297  0.17861  0.38068  1.0000
  S   S615      1.0  0.92742  0.14688  0.39373  1.0000
  S   S616      1.0  0.91335  0.19994  0.40048  1.0000
  Fe  Fe303     1.0  0.93882  0.17175  0.33978  1.0000
  S   S617      1.0  0.94447  0.13918  0.34940  1.0000
  S   S618      1.0  0.94848  0.18677  0.30879  1.0000
  Fe  Fe304     1.0  0.91516  0.14435  0.36928  1.0000
  S   S619      1.0  0.89015  0.12862  0.37775  1.0000
  Fe  Fe305     1.0  0.95616  0.14461  0.37295  1.0000
  S   S620      1.0  0.90858  0.17641  0.35773  1.0000
  S   S621      1.0  0.95252  0.17664  0.36182  1.0000
  Fe  Fe306     1.0  0.84394  0.07482  0.32923  1.0000
  S   S622      1.0  0.86705  0.09304  0.31796  1.0000
  C   C2822     1.0  0.83681  0.28931  0.46729  1.0000
  H   H4985     1.0  0.80499  0.16370  0.00520  1.0000
  H   H4986     1.0  0.86514  0.21096  0.26691  1.0000
  H   H4987     1.0  0.81689  0.41389  0.23413  1.0000
  H   H4988     1.0  0.94940  0.07752  0.37693  1.0000
  S   S623      1.0  0.81467  0.38129  0.34240  1.0000
  Fe  Fe307     1.0  0.79184  0.24753  0.12072  1.0000
  S   S624      1.0  0.80438  0.04328  0.35028  1.0000
  H   H4989     1.0  0.83606  0.27386  0.47342  1.0000
  S   S625      1.0  0.82023  0.33863  0.31591  1.0000
  H   H4990     1.0  0.82040  0.24841  0.19380  1.0000
  S   S626      1.0  0.80550  0.43670  0.31619  1.0000
  N   N157      1.0  0.88449  0.17558  0.28893  1.0000
  Fe  Fe308     1.0  0.89328  0.27138  0.24826  1.0000
  S   S627      1.0  0.90906  0.26219  0.22021  1.0000
  S   S628      1.0  0.88248  0.25249  0.27660  1.0000
  Fe  Fe309     1.0  0.89378  0.31381  0.23175  1.0000
  S   S629      1.0  0.91013  0.30843  0.20247  1.0000
  S   S630      1.0  0.88271  0.34393  0.23769  1.0000
  Fe  Fe310     1.0  0.88976  0.28863  0.20610  1.0000
  S   S631      1.0  0.87131  0.29463  0.18364  1.0000
  Fe  Fe311     1.0  0.92809  0.28269  0.21910  1.0000
  S   S632      1.0  0.87232  0.29581  0.23440  1.0000
  S   S633      1.0  0.91345  0.28995  0.24816  1.0000
  H   H4991     1.0  0.88927  0.05680  0.40337  1.0000
  S   S634      1.0  0.81372  0.22013  0.12731  1.0000
  S   S635      1.0  0.98326  0.12758  0.38407  1.0000
  H   H4992     1.0  0.87289  0.19389  0.25115  1.0000
  C   C2823     1.0  0.93400  0.08329  0.38306  1.0000
  Fe  Fe312     1.0  0.82042  0.23497  0.14766  1.0000
  S   S636      1.0  0.85128  0.23117  0.15077  1.0000
  H   H4993     1.0  0.88832  0.13935  0.44622  1.0000
  H   H4994     1.0  0.79967  0.17512  0.33348  1.0000
  H   H4995     1.0  0.80471  0.27084  0.18538  1.0000
  C   C2824     1.0  0.85445  0.47010  0.30822  1.0000
  C   C2825     1.0  0.83512  0.98549  0.34054  1.0000
  H   H4996     1.0  0.81072  0.01167  0.30813  1.0000
  H   H4997     1.0  0.94966  0.19328  0.44080  1.0000
  C   C2826     1.0  0.88762  0.21751  0.24219  1.0000
  H   H4998     1.0  0.87354  0.16237  0.27173  1.0000
  H   H4999     1.0  0.95506  0.29053  0.24392  1.0000
  C   C2827     1.0  0.86580  0.27646  0.17527  1.0000
  C   C2828     1.0  0.87616  0.25730  0.17827  1.0000
  C   C2829     1.0  0.87163  0.24345  0.17070  1.0000
  C   C2830     1.0  0.85634  0.24855  0.16069  1.0000
  C   C2831     1.0  0.84569  0.26759  0.15817  1.0000
  C   C2832     1.0  0.85066  0.28156  0.16510  1.0000
  H   H5000     1.0  0.88793  0.25329  0.18599  1.0000
  H   H5001     1.0  0.87995  0.22875  0.17262  1.0000
  H   H5002     1.0  0.83385  0.27165  0.15058  1.0000
  H   H5003     1.0  0.84260  0.29636  0.16273  1.0000
  C   C2833     1.0  0.79689  0.05675  0.28369  1.0000
  H   H5004     1.0  0.87996  0.03762  0.39943  1.0000
  H   H5005     1.0  0.79997  0.22065  0.09108  1.0000
  C   C2834     1.0  0.79941  0.28653  0.21846  1.0000
  H   H5006     1.0  0.81047  0.05640  0.28726  1.0000
  C   C2835     1.0  0.88189  0.15459  0.44757  1.0000
  H   H5007     1.0  0.79118  0.32547  0.23957  1.0000
  Fe  Fe313     1.0  0.81583  0.06014  0.36506  1.0000
  C   C2836     1.0  0.88060  0.05321  0.39480  1.0000
  H   H5008     1.0  0.79694  0.28596  0.41024  1.0000
  C   C2837     1.0  0.83784  0.34080  0.29444  1.0000
  C   C2838     1.0  0.84063  0.35889  0.28302  1.0000
  C   C2839     1.0  0.85468  0.35989  0.26566  1.0000
  C   C2840     1.0  0.86577  0.34285  0.25974  1.0000
  C   C2841     1.0  0.86312  0.32485  0.27141  1.0000
  C   C2842     1.0  0.84918  0.32384  0.28868  1.0000
  H   H5009     1.0  0.83199  0.37201  0.28756  1.0000
  H   H5010     1.0  0.85695  0.37382  0.25680  1.0000
  H   H5011     1.0  0.87191  0.31163  0.26725  1.0000
  H   H5012     1.0  0.84725  0.30986  0.29764  1.0000
  H   H5013     1.0  0.84870  0.19982  0.30208  1.0000
  C   C2843     1.0  0.93098  0.20642  0.30012  1.0000
  C   C2844     1.0  0.91422  0.21348  0.31277  1.0000
  C   C2845     1.0  0.89955  0.22796  0.30549  1.0000
  C   C2846     1.0  0.90179  0.23581  0.28558  1.0000
  C   C2847     1.0  0.91905  0.22964  0.27299  1.0000
  C   C2848     1.0  0.93355  0.21477  0.28024  1.0000
  H   H5014     1.0  0.91253  0.20787  0.32816  1.0000
  H   H5015     1.0  0.88647  0.23316  0.31529  1.0000
  C   C2849     1.0  0.88316  0.12031  0.36033  1.0000
  C   C2850     1.0  0.86561  0.11390  0.36519  1.0000
  C   C2851     1.0  0.86042  0.10562  0.35227  1.0000
  C   C2852     1.0  0.87275  0.10383  0.33434  1.0000
  C   C2853     1.0  0.89006  0.11071  0.32928  1.0000
  C   C2854     1.0  0.89526  0.11893  0.34223  1.0000
  H   H5016     1.0  0.85607  0.11511  0.37909  1.0000
  H   H5017     1.0  0.84701  0.10043  0.35628  1.0000
  H   H5018     1.0  0.89963  0.10939  0.31541  1.0000
  H   H5019     1.0  0.90883  0.12376  0.33846  1.0000
  H   H5020     1.0  0.83014  0.29303  0.28412  1.0000
  H   H5021     1.0  0.79887  0.29911  0.47410  1.0000
  C   C2855     1.0  0.91923  0.01635  0.38945  1.0000
  H   H5022     1.0  0.95646  0.23283  0.41542  1.0000
  S   S637      1.0  0.84868  0.00388  0.33049  1.0000
  S   S638      1.0  0.79894  0.22317  0.17315  1.0000
  H   H5023     1.0  0.93840  0.05025  0.36960  1.0000
  H   H5024     1.0  0.92099  0.23586  0.25760  1.0000
  C   C2856     1.0  0.97366  0.21814  0.38291  1.0000
  H   H5025     1.0  0.95872  0.22278  0.44017  1.0000
  C   C2857     1.0  0.84817  0.22278  0.40949  1.0000
  C   C2858     1.0  0.85804  0.22196  0.42392  1.0000
  C   C2859     1.0  0.87827  0.21579  0.42075  1.0000
  C   C2860     1.0  0.88846  0.20978  0.40346  1.0000
  C   C2861     1.0  0.87857  0.21110  0.38892  1.0000
  C   C2862     1.0  0.85848  0.21777  0.39185  1.0000
  H   H5026     1.0  0.85009  0.22596  0.43754  1.0000
  H   H5027     1.0  0.88593  0.21511  0.43191  1.0000
  H   H5028     1.0  0.88641  0.20721  0.37530  1.0000
  H   H5029     1.0  0.85092  0.21880  0.38050  1.0000
  H   H5030     1.0  0.86634  0.21502  0.29586  1.0000
  C   C2863     1.0  0.80532  0.22753  0.04188  1.0000
  H   H5031     1.0  0.96347  0.32458  0.15970  1.0000
  H   H5032     1.0  0.83026  0.16151  0.29609  1.0000
  H   H5033     1.0  0.90096  0.02303  0.36815  1.0000
  H   H5034     1.0  0.93074  0.07716  0.39890  1.0000
  H   H5035     1.0  0.90409  0.18188  0.26107  1.0000
  H   H5036     1.0  0.84114  0.17052  0.46034  1.0000
  H   H5037     1.0  0.87039  0.47221  0.36006  1.0000
  H   H5038     1.0  0.90019  0.21001  0.23265  1.0000
  C   C2864     1.0  0.98310  0.35470  0.21077  1.0000
  C   C2865     1.0  0.94778  0.26204  0.28380  1.0000
  H   H5039     1.0  0.95140  0.27630  0.28234  1.0000
  H   H5040     1.0  0.94521  0.26102  0.26971  1.0000
  H   H5041     1.0  0.93416  0.26102  0.29482  1.0000
  H   H5042     1.0  0.81200  0.32993  0.41996  1.0000
  H   H5043     1.0  0.81108  0.37178  0.24597  1.0000
  H   H5044     1.0  0.83764  0.35298  0.19930  1.0000
  H   H5045     1.0  0.82514  0.16457  0.42271  1.0000
  S   S639      1.0  0.81508  0.21452  0.02304  1.0000
  C   C2866     1.0  0.98324  0.24598  0.27463  1.0000
  H   H5046     1.0  0.90454  0.15020  0.28048  1.0000
  H   H5047     1.0  0.81254  0.14952  0.45361  1.0000
  H   H5048     1.0  0.84476  0.14484  0.46657  1.0000
  H   H5049     1.0  0.89265  0.22722  0.24845  1.0000
  H   H5050     1.0  0.79708  0.25497  0.02305  1.0000
  C   C2867     1.0  0.79668  0.00690  0.31174  1.0000
  H   H5051     1.0  0.93187  0.09928  0.38098  1.0000
  H   H5052     1.0  0.92327  0.22249  0.44949  1.0000
  Fe  Fe314     1.0  0.83548  0.03401  0.33626  1.0000
  H   H5053     1.0  0.88824  0.44879  0.31650  1.0000
  H   H5054     1.0  0.79538  0.13876  0.41175  1.0000
  S   S640      1.0  0.80956  0.21569  0.47115  1.0000
  C   C2868     1.0  0.89873  0.16472  0.44421  1.0000
  C   C2869     1.0  0.85073  0.10529  0.42779  1.0000
  C   C2870     1.0  0.89229  0.47680  0.31662  1.0000
  H   H5055     1.0  0.86555  0.46217  0.29776  1.0000
  H   H5056     1.0  0.81140  0.15000  0.33930  1.0000
  H   H5057     1.0  0.98589  0.26103  0.27086  1.0000
  C   C2871     1.0  0.95356  0.20205  0.42588  1.0000
  C   C2872     1.0  0.85987  0.06458  0.39970  1.0000
  C   C2873     1.0  0.81439  0.28750  0.24466  1.0000
  C   C2874     1.0  0.83837  0.33760  0.19925  1.0000
  C   C2875     1.0  0.96254  0.14037  0.43118  1.0000
  C   C2876     1.0  0.81577  0.27034  0.21076  1.0000
  Fe  Fe315     1.0  0.79536  0.40830  0.32966  1.0000
  C   C2877     1.0  0.96218  0.32111  0.17571  1.0000
  C   C2878     1.0  0.82689  0.28469  0.27498  1.0000
  H   H5058     1.0  0.81837  0.31075  0.19751  1.0000
  H   H5059     1.0  0.82271  0.17297  0.38832  1.0000
  H   H5060     1.0  0.79168  0.09328  0.24429  1.0000
  C   C2879     1.0  0.87797  0.20283  0.25834  1.0000
  H   H5061     1.0  0.83532  0.30084  0.21276  1.0000
  H   H5062     1.0  0.81605  0.27606  0.28411  1.0000
  H   H5063     1.0  0.90391  0.99308  0.39346  1.0000
  C   C2880     1.0  0.84211  0.14843  0.29689  1.0000
  H   H5064     1.0  0.80456  0.34889  0.47430  1.0000
  H   H5065     1.0  0.82831  0.27789  0.23942  1.0000
  H   H5066     1.0  0.93127  0.05328  0.33910  1.0000
  H   H5067     1.0  0.83038  0.30695  0.24952  1.0000
  C   C2881     1.0  0.97587  0.17113  0.42280  1.0000
  H   H5068     1.0  0.95792  0.37785  0.21479  1.0000
  H   H5069     1.0  0.82057  0.25908  0.22308  1.0000
  H   H5070     1.0  0.82852  0.27611  0.20171  1.0000
  H   H5071     1.0  0.84084  0.46539  0.30911  1.0000
  H   H5072     1.0  0.97723  0.13217  0.42587  1.0000
  C   C2882     1.0  0.92290  0.05627  0.37534  1.0000
  H   H5073     1.0  0.83887  0.33636  0.18421  1.0000
  H   H5074     1.0  0.79497  0.15767  0.32254  1.0000
  C   C2883     1.0  0.91880  0.99489  0.39264  1.0000
  C   C2884     1.0  0.79775  0.15998  0.33602  1.0000
  C   C2885     1.0  0.88169  0.45971  0.32579  1.0000
  H   H5075     1.0  0.84274  0.18081  0.37028  1.0000
  C   C2886     1.0  0.80120  0.15848  0.02118  1.0000
  H   H5076     1.0  0.84051  0.27472  0.26982  1.0000
  H   H5077     1.0  0.85366  0.40725  0.35592  1.0000
  H   H5078     1.0  0.83673  0.13665  0.30853  1.0000
  N   N158      1.0  0.85539  0.24282  0.06798  1.0000
  C   C2887     1.0  0.84513  0.26111  0.07537  1.0000
  C   C2888     1.0  0.84951  0.24379  0.04922  1.0000
  C   C2889     1.0  0.84814  0.22610  0.08275  1.0000
  C   C2890     1.0  0.87718  0.23916  0.06540  1.0000
  C   C2891     1.0  0.88663  0.25722  0.05937  1.0000
  C   C2892     1.0  0.84668  0.26098  0.09632  1.0000
  C   C2893     1.0  0.85478  0.20598  0.07700  1.0000
  C   C2894     1.0  0.85517  0.26010  0.03183  1.0000
  C   C2895     1.0  0.84590  0.26099  0.01489  1.0000
  C   C2896     1.0  0.90869  0.25141  0.05400  1.0000
  C   C2897     1.0  0.84101  0.28144  0.10038  1.0000
  C   C2898     1.0  0.84911  0.18990  0.09419  1.0000
  H   H5079     1.0  0.82935  0.26407  0.07527  1.0000
  H   H5080     1.0  0.85024  0.27398  0.06558  1.0000
  H   H5081     1.0  0.85612  0.23020  0.04374  1.0000
  H   H5082     1.0  0.83355  0.24509  0.05186  1.0000
  H   H5083     1.0  0.83205  0.22933  0.08631  1.0000
  H   H5084     1.0  0.85278  0.22423  0.09669  1.0000
  H   H5085     1.0  0.88188  0.23071  0.07914  1.0000
  H   H5086     1.0  0.88420  0.22975  0.05460  1.0000
  H   H5087     1.0  0.88309  0.26487  0.07159  1.0000
  H   H5088     1.0  0.88160  0.26780  0.04686  1.0000
  H   H5089     1.0  0.83665  0.25233  0.10705  1.0000
  H   H5090     1.0  0.86152  0.25442  0.09898  1.0000
  H   H5091     1.0  0.87073  0.20251  0.07190  1.0000
  H   H5092     1.0  0.84767  0.20558  0.06534  1.0000
  H   H5093     1.0  0.85043  0.27457  0.03565  1.0000
  H   H5094     1.0  0.87110  0.25708  0.02647  1.0000
  H   H5095     1.0  0.84952  0.24664  0.01072  1.0000
  H   H5096     1.0  0.82990  0.26550  0.01891  1.0000
  H   H5097     1.0  0.85125  0.27178  0.00209  1.0000
  H   H5098     1.0  0.91510  0.26451  0.05025  1.0000
  H   H5099     1.0  0.91450  0.24125  0.06644  1.0000
  H   H5100     1.0  0.91315  0.24442  0.04122  1.0000
  H   H5101     1.0  0.84201  0.28078  0.11551  1.0000
  H   H5102     1.0  0.85093  0.29067  0.09040  1.0000
  H   H5103     1.0  0.82586  0.28811  0.09867  1.0000
  H   H5104     1.0  0.83309  0.19233  0.09907  1.0000
  H   H5105     1.0  0.85422  0.17568  0.08973  1.0000
  H   H5106     1.0  0.85576  0.18934  0.10653  1.0000
  H   H5107     1.0  0.94661  0.20957  0.27039  1.0000
  C   C2899     1.0  0.97617  0.28339  0.21882  1.0000
  C   C2900     1.0  0.91528  0.05716  0.34431  1.0000
  C   C2901     1.0  0.79654  0.04607  0.27025  1.0000
  N   N159      1.0  0.85069  0.15652  0.43551  1.0000
  C   C2902     1.0  0.83911  0.16899  0.42061  1.0000
  C   C2903     1.0  0.86860  0.16462  0.43261  1.0000
  C   C2904     1.0  0.85731  0.13575  0.43307  1.0000
  C   C2905     1.0  0.84153  0.12530  0.43257  1.0000
  C   C2906     1.0  0.84908  0.16915  0.39902  1.0000
  C   C2907     1.0  0.85781  0.42918  0.32917  1.0000
  C   C2908     1.0  0.83504  0.18030  0.38560  1.0000
  H   H5108     1.0  0.90856  0.03395  0.33393  1.0000
  H   H5109     1.0  0.83140  0.29411  0.45350  1.0000
  C   C2909     1.0  0.81939  0.98723  0.35616  1.0000
  H   H5110     1.0  0.79223  0.29528  0.20621  1.0000
  H   H5111     1.0  0.87798  0.16363  0.41805  1.0000
  H   H5112     1.0  0.86876  0.13469  0.41966  1.0000
  H   H5113     1.0  0.97678  0.31423  0.17896  1.0000
  H   H5114     1.0  0.80450  0.28984  0.36580  1.0000
  Fe  Fe316     1.0  0.79020  0.21115  0.15212  1.0000
  H   H5115     1.0  0.86170  0.17627  0.39480  1.0000
  H   H5116     1.0  0.85406  0.15427  0.39619  1.0000
  H   H5117     1.0  0.80189  0.12727  0.38119  1.0000
  C   C2910     1.0  0.80218  0.47420  0.31906  1.0000
  H   H5118     1.0  0.79505  0.37620  0.19916  1.0000
  H   H5119     1.0  0.92332  0.98695  0.40652  1.0000
  H   H5120     1.0  0.92866  0.05200  0.30566  1.0000
  H   H5121     1.0  0.80760  0.34071  0.20878  1.0000
  C   C2911     1.0  0.80592  0.38733  0.24012  1.0000
  N   N160      1.0  0.94703  0.35284  0.21531  1.0000
  C   C2912     1.0  0.96231  0.36507  0.20774  1.0000
  C   C2913     1.0  0.92734  0.36491  0.21240  1.0000
  C   C2914     1.0  0.94618  0.34557  0.23691  1.0000
  C   C2915     1.0  0.95215  0.33542  0.20601  1.0000
  C   C2916     1.0  0.95397  0.33962  0.18372  1.0000
  Fe  Fe317     1.0  0.80492  0.06922  0.32561  1.0000
  C   C2917     1.0  0.92830  0.33682  0.24873  1.0000
  C   C2918     1.0  0.92654  0.38129  0.19393  1.0000
  C   C2919     1.0  0.90569  0.38927  0.19107  1.0000
  Fe  Fe318     1.0  0.80364  0.22588  0.99521  1.0000
  H   H5122     1.0  0.85375  0.06022  0.41543  1.0000
  C   C2920     1.0  0.93086  0.32630  0.26927  1.0000
  H   H5123     1.0  0.79589  0.25421  0.20710  1.0000
  H   H5124     1.0  0.96371  0.34982  0.17606  1.0000
  H   H5125     1.0  0.91751  0.35528  0.21279  1.0000
  H   H5126     1.0  0.92031  0.37259  0.22461  1.0000
  H   H5127     1.0  0.94637  0.35750  0.24381  1.0000
  H   H5128     1.0  0.95925  0.33433  0.23956  1.0000
  H   H5129     1.0  0.96582  0.32580  0.20953  1.0000
  H   H5130     1.0  0.94117  0.32619  0.21221  1.0000
  H   H5131     1.0  0.79474  0.10492  0.39422  1.0000
  H   H5132     1.0  0.93941  0.34558  0.18010  1.0000
  H   H5133     1.0  0.79900  0.35940  0.27641  1.0000
  H   H5134     1.0  0.91603  0.46531  0.33225  1.0000
  H   H5135     1.0  0.92548  0.32644  0.24161  1.0000
  H   H5136     1.0  0.91518  0.34850  0.25029  1.0000
  H   H5137     1.0  0.93223  0.39346  0.19549  1.0000
  H   H5138     1.0  0.93523  0.37646  0.18055  1.0000
  H   H5139     1.0  0.90536  0.40133  0.17813  1.0000
  H   H5140     1.0  0.89960  0.37773  0.18873  1.0000
  H   H5141     1.0  0.89644  0.39482  0.20399  1.0000
  H   H5142     1.0  0.80562  0.38890  0.22461  1.0000
  C   C2921     1.0  0.80263  0.99512  0.22244  1.0000
  N   N161      1.0  0.97322  0.19282  0.41546  1.0000
  H   H5143     1.0  0.85289  0.43297  0.31518  1.0000
  H   H5144     1.0  0.94213  0.20203  0.41830  1.0000
  H   H5145     1.0  0.90991  0.07376  0.30657  1.0000
  H   H5146     1.0  0.94300  0.31354  0.26882  1.0000
  H   H5147     1.0  0.93367  0.33622  0.27707  1.0000
  H   H5148     1.0  0.91742  0.32111  0.27745  1.0000
  H   H5149     1.0  0.91129  0.07324  0.34065  1.0000
  H   H5150     1.0  0.87050  0.13891  0.30284  1.0000
  H   H5151     1.0  0.81175  0.20249  0.06438  1.0000
  H   H5152     1.0  0.81171  0.11542  0.41299  1.0000
  H   H5153     1.0  0.80662  0.16722  0.02831  1.0000
  H   H5154     1.0  0.95929  0.23179  0.29182  1.0000
  C   C2922     1.0  0.85971  0.15273  0.30149  1.0000
  H   H5155     1.0  0.95173  0.13361  0.42844  1.0000
  S   S641      1.0  0.80899  0.06327  0.39611  1.0000
  Fe  Fe319     1.0  0.80327  0.36566  0.32642  1.0000
  S   S642      1.0  0.96076  0.27431  0.20980  1.0000
  H   H5156     1.0  0.83250  0.41695  0.34509  1.0000
  H   H5157     1.0  0.83506  0.18430  0.42258  1.0000
  H   H5158     1.0  0.92605  0.02221  0.35857  1.0000
  H   H5159     1.0  0.79922  0.99118  0.31842  1.0000
  H   H5160     1.0  0.87381  0.15470  0.46270  1.0000
  H   H5161     1.0  0.85602  0.18061  0.28207  1.0000
  H   H5162     1.0  0.95892  0.22696  0.38670  1.0000
  H   H5163     1.0  0.90942  0.02197  0.40199  1.0000
  H   H5164     1.0  0.79649  0.32621  0.29405  1.0000
  H   H5165     1.0  0.98738  0.21530  0.41661  1.0000
  H   H5166     1.0  0.80062  0.03521  0.18259  1.0000
  H   H5167     1.0  0.83597  0.45049  0.34310  1.0000
  H   H5168     1.0  0.85504  0.15721  0.31570  1.0000
  H   H5169     1.0  0.96111  0.16185  0.40494  1.0000
  C   C2923     1.0  0.96967  0.29072  0.23583  1.0000
  H   H5170     1.0  0.88582  0.45251  0.34003  1.0000
  S   S643      1.0  0.80024  0.26330  0.13930  1.0000
  S   S644      1.0  0.81324  0.08721  0.34190  1.0000
  C   C2924     1.0  0.95086  0.22298  0.42885  1.0000
  H   H5171     1.0  0.80986  0.00442  0.22700  1.0000
  N   N162      1.0  0.91004  0.04973  0.36602  1.0000
  N   N163      1.0  0.85994  0.46460  0.32798  1.0000
  C   C2925     1.0  0.85212  0.44675  0.33931  1.0000
  H   H5172     1.0  0.92077  0.45855  0.30891  1.0000
  H   H5173     1.0  0.96762  0.21381  0.35660  1.0000
  C   C2926     1.0  0.85465  0.47631  0.36016  1.0000
  N   N164      1.0  0.80554  0.29973  0.22771  1.0000
  H   H5174     1.0  0.79301  0.06825  0.18946  1.0000
  C   C2927     1.0  0.89240  0.18975  0.27119  1.0000
  C   C2928     1.0  0.90061  0.15818  0.29259  1.0000
  C   C2929     1.0  0.87817  0.18450  0.30667  1.0000
  C   C2930     1.0  0.86127  0.20237  0.30624  1.0000
  C   C2931     1.0  0.91946  0.16237  0.29540  1.0000
  C   C2932     1.0  0.85406  0.20777  0.32619  1.0000
  C   C2933     1.0  0.93569  0.14430  0.29567  1.0000
  H   H5175     1.0  0.89945  0.19941  0.27550  1.0000
  H   H5176     1.0  0.89580  0.14779  0.30603  1.0000
  H   H5177     1.0  0.87461  0.17343  0.32003  1.0000
  H   H5178     1.0  0.89037  0.18957  0.30900  1.0000
  H   H5179     1.0  0.86438  0.18036  0.43292  1.0000
  H   H5180     1.0  0.91687  0.16675  0.30952  1.0000
  H   H5181     1.0  0.92483  0.17401  0.28366  1.0000
  S   S645      1.0  0.84706  0.04860  0.35324  1.0000
  H   H5182     1.0  0.87706  0.22658  0.23316  1.0000
  H   H5183     1.0  0.84694  0.19639  0.33665  1.0000
  H   H5184     1.0  0.86622  0.20947  0.33180  1.0000
  H   H5185     1.0  0.84334  0.22171  0.32508  1.0000
  H   H5186     1.0  0.93125  0.13219  0.30743  1.0000
  H   H5187     1.0  0.93958  0.13975  0.28149  1.0000
  H   H5188     1.0  0.94874  0.14758  0.29833  1.0000
  N   N165      1.0  0.82948  0.28760  0.37793  1.0000
  C   C2934     1.0  0.84367  0.27620  0.36371  1.0000
  C   C2935     1.0  0.83470  0.28087  0.39783  1.0000
  C   C2936     1.0  0.80973  0.28351  0.37964  1.0000
  C   C2937     1.0  0.82829  0.30916  0.37096  1.0000
  C   C2938     1.0  0.84737  0.31621  0.36768  1.0000
  C   C2939     1.0  0.84004  0.28136  0.34266  1.0000
  H   H5189     1.0  0.95242  0.31064  0.18208  1.0000
  C   C2940     1.0  0.85654  0.27366  0.39866  1.0000
  C   C2941     1.0  0.85987  0.27150  0.41909  1.0000
  C   C2942     1.0  0.84486  0.33788  0.35900  1.0000
  C   C2943     1.0  0.85559  0.26905  0.32976  1.0000
  H   H5190     1.0  0.97694  0.30451  0.25521  1.0000
  H   H5191     1.0  0.84391  0.26040  0.36939  1.0000
  H   H5192     1.0  0.85870  0.27781  0.36228  1.0000
  H   H5193     1.0  0.82842  0.29246  0.40644  1.0000
  H   H5194     1.0  0.82798  0.26836  0.40634  1.0000
  H   H5195     1.0  0.81065  0.26754  0.38241  1.0000
  H   H5196     1.0  0.80579  0.33430  0.45712  1.0000
  H   H5197     1.0  0.82242  0.31453  0.35740  1.0000
  H   H5198     1.0  0.81770  0.31716  0.38164  1.0000
  H   H5199     1.0  0.85922  0.30864  0.35763  1.0000
  H   H5200     1.0  0.85163  0.31401  0.38180  1.0000
  H   H5201     1.0  0.82588  0.27860  0.34234  1.0000
  H   H5202     1.0  0.84042  0.29680  0.33599  1.0000
  H   H5203     1.0  0.93419  0.01731  0.38950  1.0000
  H   H5204     1.0  0.81027  0.17482  0.45244  1.0000
  H   H5205     1.0  0.86185  0.25924  0.39462  1.0000
  H   H5206     1.0  0.86571  0.28348  0.38859  1.0000
  H   H5207     1.0  0.85618  0.28588  0.42313  1.0000
  H   H5208     1.0  0.85091  0.26180  0.42987  1.0000
  H   H5209     1.0  0.87535  0.26506  0.41953  1.0000
  H   H5210     1.0  0.84120  0.34106  0.34444  1.0000
  H   H5211     1.0  0.83323  0.34620  0.36868  1.0000
  H   H5212     1.0  0.85856  0.34270  0.35733  1.0000
  H   H5213     1.0  0.85569  0.25338  0.33562  1.0000
  H   H5214     1.0  0.85258  0.27281  0.31485  1.0000
  H   H5215     1.0  0.87015  0.27183  0.32870  1.0000
  C   C2944     1.0  0.96410  0.24552  0.29007  1.0000
  C   C2945     1.0  0.81906  0.29865  0.25779  1.0000
  C   C2946     1.0  0.82076  0.33072  0.21321  1.0000
  C   C2947     1.0  0.98203  0.29867  0.24216  1.0000
  H   H5216     1.0  0.84612  0.14347  0.28290  1.0000
  C   C2948     1.0  0.79706  0.32963  0.42074  1.0000
  H   H5217     1.0  0.86048  0.10669  0.41323  1.0000
  H   H5218     1.0  0.88961  0.05521  0.33460  1.0000
  C   C2949     1.0  0.81682  0.15997  0.45950  1.0000
  H   H5219     1.0  0.83179  0.12297  0.44702  1.0000
  H   H5220     1.0  0.86444  0.12667  0.44513  1.0000
  H   H5221     1.0  0.80989  0.03761  0.26355  1.0000
  H   H5222     1.0  0.96170  0.19276  0.39090  1.0000
  H   H5223     1.0  0.92404  0.08562  0.35724  1.0000
  H   H5224     1.0  0.85250  0.40013  0.33433  1.0000
  H   H5225     1.0  0.88586  0.07405  0.36770  1.0000
  H   H5226     1.0  0.83532  0.39219  0.23237  1.0000
  C   C2950     1.0  0.82098  0.39826  0.24071  1.0000
  H   H5227     1.0  0.89328  0.17994  0.44604  1.0000
  H   H5228     1.0  0.82232  0.39675  0.25593  1.0000
  C   C2951     1.0  0.82042  0.30970  0.21247  1.0000
  H   H5229     1.0  0.85955  0.08036  0.39625  1.0000
  C   C2952     1.0  0.92946  0.23162  0.43567  1.0000
  C   C2953     1.0  0.84855  0.41239  0.34197  1.0000
  C   C2954     1.0  0.90553  0.04999  0.33152  1.0000
  H   H5230     1.0  0.82934  0.19538  0.38791  1.0000
  C   C2955     1.0  0.83916  0.15771  0.45588  1.0000
  H   H5231     1.0  0.83927  0.09781  0.42774  1.0000
  H   H5232     1.0  0.80494  0.27740  0.25397  1.0000
  C   C2956     1.0  0.79594  0.34366  0.46695  1.0000
  H   H5233     1.0  0.84752  0.46455  0.36984  1.0000
  C   C2957     1.0  0.80608  0.21795  0.06114  1.0000
  H   H5234     1.0  0.96353  0.37124  0.19198  1.0000
  H   H5235     1.0  0.85054  0.06161  0.39134  1.0000
  H   H5236     1.0  0.85703  0.44125  0.35337  1.0000
  H   H5237     1.0  0.82110  0.33213  0.22789  1.0000
  H   H5238     1.0  0.85195  0.32882  0.20384  1.0000
  C   C2958     1.0  0.80869  0.26038  0.19855  1.0000
  C   C2959     1.0  0.79990  0.45549  0.32924  1.0000
  H   H5239     1.0  0.87980  0.05291  0.36582  1.0000
  C   C2960     1.0  0.91287  0.05765  0.30993  1.0000
  H   H5240     1.0  0.90520  0.05288  0.30117  1.0000
  C   C2961     1.0  0.88890  0.05806  0.37273  1.0000
  C   C2962     1.0  0.96003  0.16157  0.42050  1.0000
  C   C2963     1.0  0.91388  0.47037  0.31703  1.0000
  H   H5241     1.0  0.92053  0.05046  0.39123  1.0000
  H   H5242     1.0  0.96575  0.24657  0.30443  1.0000
  C   C2964     1.0  0.91374  0.02780  0.36975  1.0000
  H   H5243     1.0  0.83292  0.13354  0.42143  1.0000
  H   H5244     1.0  0.80855  0.14308  0.02500  1.0000
  H   H5245     1.0  0.94518  0.16899  0.42635  1.0000
  H   H5246     1.0  0.90550  0.08507  0.37914  1.0000
  C   C2965     1.0  0.92051  0.07850  0.37276  1.0000
  H   H5247     1.0  0.81548  0.99996  0.36242  1.0000
  H   H5248     1.0  0.85921  0.09619  0.43882  1.0000
  C   C2966     1.0  0.97415  0.19689  0.39388  1.0000
  H   H5249     1.0  0.80624  0.47713  0.30336  1.0000
  H   H5250     1.0  0.80605  0.30873  0.26379  1.0000
  H   H5251     1.0  0.82683  0.31691  0.47525  1.0000
  H   H5252     1.0  0.92108  0.23271  0.42448  1.0000
  H   H5253     1.0  0.80270  0.09779  0.21883  1.0000
  H   H5254     1.0  0.96032  0.13928  0.44707  1.0000
  H   H5255     1.0  0.90810  0.15707  0.45489  1.0000
  H   H5256     1.0  0.79145  0.00932  0.29806  1.0000
  H   H5257     1.0  0.81004  0.99332  0.20747  1.0000
  C   C2967     1.0  0.79405  0.45205  0.34948  1.0000
  S   S646      1.0  0.79597  0.36455  0.39528  1.0000
  H   H5258     1.0  0.97971  0.24380  0.26138  1.0000
  C   C2968     1.0  0.79951  0.22824  0.07628  1.0000
  H   H5259     1.0  0.79148  0.12543  0.35516  1.0000
  C   C2969     1.0  0.79324  0.29145  0.39567  1.0000
  C   C2970     1.0  0.97820  0.21962  0.36093  1.0000
  H   H5260     1.0  0.79194  0.34622  0.26231  1.0000
  C   C2971     1.0  0.79665  0.12317  0.41211  1.0000
  H   H5261     1.0  0.79840  0.98841  0.26129  1.0000
  H   H5262     1.0  0.97679  0.16736  0.43846  1.0000
  H   H5263     1.0  0.98348  0.34958  0.22643  1.0000
  H   H5264     1.0  0.79221  0.43769  0.35750  1.0000
  H   H5265     1.0  0.98720  0.18754  0.38676  1.0000
  H   H5266     1.0  0.85222  0.29056  0.46404  1.0000
  C   C2972     1.0  0.79772  0.24745  0.03787  1.0000
  C   C2973     1.0  0.79195  0.25788  0.05289  1.0000
  H   H5267     1.0  0.79753  0.30291  0.44196  1.0000
  C   C2974     1.0  0.79116  0.46709  0.35946  1.0000
  C   C2975     1.0  0.79178  0.12063  0.39381  1.0000
  H   H5268     1.0  0.79659  0.36843  0.44273  1.0000
  C   C2976     1.0  0.85064  0.48047  0.33935  1.0000
  H   H5269     1.0  0.98866  0.34211  0.20355  1.0000
  H   H5270     1.0  0.98549  0.21494  0.30527  1.0000
  H   H5271     1.0  0.98440  0.22450  0.38624  1.0000
  H   H5272     1.0  0.97729  0.23506  0.35343  1.0000
  H   H5273     1.0  0.79049  0.03563  0.20781  1.0000
  C   C2977     1.0  0.79298  0.24835  0.07213  1.0000
  H   H5274     1.0  0.79015  0.30752  0.39259  1.0000
  H   H5275     1.0  0.98819  0.20682  0.28373  1.0000
  H   H5276     1.0  0.89111  0.48220  0.30117  1.0000
  S   S647      1.0  0.80021  0.20400  0.98007  1.0000
  H   H5277     1.0  0.98838  0.19531  0.43637  1.0000
  C   C2978     1.0  0.98919  0.19931  0.42036  1.0000
  H   H5278     1.0  0.78957  0.44593  0.28077  1.0000
  H   H5279     1.0  0.92114  0.48284  0.31010  1.0000
  Fe  Fe320     1.0  0.83589  0.36023  0.69133  1.0000
  S   S648      1.0  0.84276  0.33672  0.71659  1.0000
  S   S649      1.0  0.82874  0.35343  0.66560  1.0000
  Fe  Fe321     1.0  0.84500  0.39115  0.70738  1.0000
  S   S650      1.0  0.85289  0.36995  0.73394  1.0000
  S   S651      1.0  0.84617  0.42321  0.70002  1.0000
  Fe  Fe322     1.0  0.86823  0.34949  0.71395  1.0000
  S   S652      1.0  0.89587  0.32825  0.71856  1.0000
  S   S653      1.0  0.86294  0.37158  0.68698  1.0000
  S   S654      1.0  0.79985  0.06205  0.69876  1.0000
  Fe  Fe323     1.0  0.95359  0.25697  0.82411  1.0000
  S   S655      1.0  0.94930  0.22785  0.84218  1.0000
  H   H5280     1.0  0.81957  0.99999  0.80348  1.0000
  Fe  Fe324     1.0  0.91197  0.26888  0.81787  1.0000
  S   S656      1.0  0.90455  0.24060  0.83509  1.0000
  S   S657      1.0  0.88664  0.29099  0.80817  1.0000
  Fe  Fe325     1.0  0.92052  0.24394  0.85611  1.0000
  S   S658      1.0  0.90889  0.23973  0.88853  1.0000
  Fe  Fe326     1.0  0.93364  0.22719  0.81952  1.0000
  S   S659      1.0  0.93997  0.20025  0.80734  1.0000
  S   S660      1.0  0.92620  0.27328  0.83989  1.0000
  S   S661      1.0  0.93983  0.25518  0.80036  1.0000
  H   H5281     1.0  0.85307  0.13998  0.68803  1.0000
  S   S662      1.0  0.81730  0.38140  0.70975  1.0000
  S   S663      1.0  0.82744  0.21577  0.92450  1.0000
  H   H5282     1.0  0.84205  0.17810  0.60547  1.0000
  Fe  Fe327     1.0  0.84128  0.23477  0.62160  1.0000
  S   S664      1.0  0.82510  0.22747  0.65224  1.0000
  S   S665      1.0  0.87322  0.22438  0.61142  1.0000
  H   H5283     1.0  0.80743  0.12557  0.67183  1.0000
  H   H5284     1.0  0.83135  0.29708  0.49494  1.0000
  H   H5285     1.0  0.96168  0.24652  0.73791  1.0000
  H   H5286     1.0  0.79859  0.16211  0.58506  1.0000
  H   H5287     1.0  0.85348  0.16341  0.67353  1.0000
  Fe  Fe328     1.0  0.80535  0.25818  0.60658  1.0000
  H   H5288     1.0  0.81167  0.42446  0.73216  1.0000
  S   S666      1.0  0.82802  0.26666  0.61689  1.0000
  S   S667      1.0  0.82018  0.22708  0.60853  1.0000
  Fe  Fe329     1.0  0.88374  0.13815  0.73053  1.0000
  S   S668      1.0  0.85728  0.12680  0.73054  1.0000
  Fe  Fe330     1.0  0.89320  0.17298  0.74010  1.0000
  S   S669      1.0  0.92376  0.16752  0.72371  1.0000
  S   S670      1.0  0.88360  0.19867  0.75465  1.0000
  Fe  Fe331     1.0  0.91172  0.16105  0.70126  1.0000
  S   S671      1.0  0.92521  0.16909  0.66966  1.0000
  S   S672      1.0  0.88090  0.16976  0.71605  1.0000
  S   S673      1.0  0.89353  0.14221  0.75613  1.0000
  Fe  Fe332     1.0  0.82492  0.03977  0.70833  1.0000
  C   C2979     1.0  0.80785  0.41478  0.78136  1.0000
  S   S674      1.0  0.85143  0.04689  0.71399  1.0000
  H   H5289     1.0  0.79883  0.34616  0.88163  1.0000
  Fe  Fe333     1.0  0.80308  0.04435  0.67672  1.0000
  H   H5290     1.0  0.79318  0.42169  0.78834  1.0000
  H   H5291     1.0  0.85476  0.39582  0.83774  1.0000
  H   H5292     1.0  0.82119  0.17319  0.67011  1.0000
  S   S675      1.0  0.82965  0.02311  0.68470  1.0000
  H   H5293     1.0  0.86548  0.27853  0.93490  1.0000
  Fe  Fe334     1.0  0.92384  0.13652  0.73822  1.0000
  H   H5294     1.0  0.82612  0.29861  0.63971  1.0000
  H   H5295     1.0  0.79955  0.02069  0.80309  1.0000
  S   S676      1.0  0.82602  0.24092  0.50388  1.0000
  H   H5296     1.0  0.80260  0.46223  0.81578  1.0000
  H   H5297     1.0  0.79581  0.10177  0.74366  1.0000
  H   H5298     1.0  0.80755  0.47655  0.78041  1.0000
  H   H5299     1.0  0.82928  0.25872  0.85484  1.0000
  H   H5300     1.0  0.96193  0.18339  0.72063  1.0000
  S   S677      1.0  0.80570  0.02075  0.72990  1.0000
  C   C2980     1.0  0.80783  0.15722  0.48122  1.0000
  H   H5301     1.0  0.85187  0.11700  0.65907  1.0000
  H   H5302     1.0  0.85666  0.17800  0.64164  1.0000
  C   C2981     1.0  0.93166  0.24561  0.74759  1.0000
  H   H5303     1.0  0.83638  0.18602  0.56560  1.0000
  C   C2982     1.0  0.85646  0.10487  0.72473  1.0000
  C   C2983     1.0  0.87279  0.08996  0.72240  1.0000
  C   C2984     1.0  0.87108  0.07239  0.71885  1.0000
  C   C2985     1.0  0.85316  0.06967  0.71726  1.0000
  C   C2986     1.0  0.83703  0.08487  0.71884  1.0000
  C   C2987     1.0  0.83863  0.10225  0.72283  1.0000
  H   H5304     1.0  0.88657  0.09175  0.72391  1.0000
  H   H5305     1.0  0.88366  0.06072  0.71761  1.0000
  H   H5306     1.0  0.82328  0.08305  0.71736  1.0000
  H   H5307     1.0  0.82596  0.11369  0.72467  1.0000
  H   H5308     1.0  0.79141  0.45033  0.74965  1.0000
  C   C2988     1.0  0.97899  0.18884  0.87487  1.0000
  H   H5309     1.0  0.92718  0.26096  0.74033  1.0000
  Fe  Fe335     1.0  0.80863  0.00559  0.70558  1.0000
  H   H5310     1.0  0.86169  0.47893  0.71442  1.0000
  C   C2989     1.0  0.97313  0.14207  0.72279  1.0000
  C   C2990     1.0  0.82028  0.25597  0.55531  1.0000
  C   C2991     1.0  0.82793  0.24920  0.53792  1.0000
  C   C2992     1.0  0.81572  0.24905  0.52588  1.0000
  H   H5311     1.0  0.85480  0.19502  0.60818  1.0000
  H   H5312     1.0  0.81409  0.14269  0.48913  1.0000
  H   H5313     1.0  0.82988  0.25618  0.56439  1.0000
  H   H5314     1.0  0.84341  0.24410  0.53376  1.0000
  H   H5315     1.0  0.83200  0.18524  0.63866  1.0000
  C   C2993     1.0  0.88694  0.20893  0.62821  1.0000
  C   C2994     1.0  0.90634  0.20096  0.62130  1.0000
  C   C2995     1.0  0.91787  0.18876  0.63418  1.0000
  C   C2996     1.0  0.91013  0.18450  0.65410  1.0000
  C   C2997     1.0  0.89072  0.19249  0.66109  1.0000
  C   C2998     1.0  0.87910  0.20460  0.64814  1.0000
  H   H5316     1.0  0.91250  0.20429  0.60593  1.0000
  H   H5317     1.0  0.93285  0.18271  0.62867  1.0000
  H   H5318     1.0  0.88466  0.18950  0.67644  1.0000
  H   H5319     1.0  0.86423  0.21076  0.65365  1.0000
  C   C2999     1.0  0.82326  0.32362  0.83149  1.0000
  C   C3000     1.0  0.92492  0.20047  0.79180  1.0000
  C   C3001     1.0  0.92768  0.18429  0.78366  1.0000
  C   C3002     1.0  0.91524  0.18378  0.77197  1.0000
  C   C3003     1.0  0.89985  0.19939  0.76855  1.0000
  C   C3004     1.0  0.89725  0.21568  0.77651  1.0000
  C   C3005     1.0  0.90991  0.21632  0.78791  1.0000
  H   H5320     1.0  0.93933  0.17201  0.78653  1.0000
  H   H5321     1.0  0.91732  0.17110  0.76598  1.0000
  H   H5322     1.0  0.88547  0.22786  0.77378  1.0000
  H   H5323     1.0  0.90783  0.22896  0.79397  1.0000
  H   H5324     1.0  0.80181  0.20287  0.54177  1.0000
  H   H5325     1.0  0.88864  0.12766  0.68794  1.0000
  H   H5326     1.0  0.82614  0.47965  0.68432  1.0000
  S   S678      1.0  0.80380  0.27467  0.67181  1.0000
  H   H5327     1.0  0.85639  0.46010  0.69284  1.0000
  H   H5328     1.0  0.96139  0.14655  0.71508  1.0000
  C   C3006     1.0  0.80906  0.30330  0.68671  1.0000
  C   C3007     1.0  0.88619  0.23312  0.89838  1.0000
  C   C3008     1.0  0.87614  0.22831  0.88689  1.0000
  C   C3009     1.0  0.85816  0.22297  0.89509  1.0000
  C   C3010     1.0  0.84995  0.22267  0.91479  1.0000
  C   C3011     1.0  0.85989  0.22760  0.92631  1.0000
  C   C3012     1.0  0.87801  0.23275  0.91812  1.0000
  H   H5329     1.0  0.88226  0.22854  0.87173  1.0000
  H   H5330     1.0  0.85045  0.21926  0.88615  1.0000
  H   H5331     1.0  0.85377  0.22712  0.94158  1.0000
  H   H5332     1.0  0.88573  0.23638  0.92713  1.0000
  C   C3013     1.0  0.85199  0.43507  0.71554  1.0000
  C   C3014     1.0  0.85576  0.45383  0.70812  1.0000
  C   C3015     1.0  0.85872  0.46453  0.72031  1.0000
  C   C3016     1.0  0.85822  0.45646  0.74001  1.0000
  C   C3017     1.0  0.85491  0.43750  0.74740  1.0000
  C   C3018     1.0  0.85169  0.42687  0.73524  1.0000
  H   H5333     1.0  0.79200  0.15828  0.48342  1.0000
  H   H5334     1.0  0.82869  0.47434  0.78992  1.0000
  H   H5335     1.0  0.85471  0.43110  0.76260  1.0000
  H   H5336     1.0  0.84881  0.41245  0.74109  1.0000
  C   C3019     1.0  0.82411  0.33028  0.66796  1.0000
  C   C3020     1.0  0.81491  0.32051  0.68572  1.0000
  H   H5337     1.0  0.98614  0.11248  0.76380  1.0000
  C   C3021     1.0  0.81286  0.29541  0.67011  1.0000
  C   C3022     1.0  0.82294  0.30464  0.65255  1.0000
  C   C3023     1.0  0.82827  0.32219  0.65143  1.0000
  C   C3024     1.0  0.80227  0.00308  0.78200  1.0000
  H   H5338     1.0  0.81083  0.13583  0.69806  1.0000
  H   H5339     1.0  0.83614  0.09233  0.65461  1.0000
  H   H5340     1.0  0.85614  0.14429  0.63472  1.0000
  C   C3025     1.0  0.89323  0.31625  0.74307  1.0000
  C   C3026     1.0  0.87496  0.31828  0.75539  1.0000
  C   C3027     1.0  0.87303  0.30998  0.77525  1.0000
  C   C3028     1.0  0.88935  0.29967  0.78295  1.0000
  C   C3029     1.0  0.90757  0.29712  0.77056  1.0000
  C   C3030     1.0  0.90949  0.30536  0.75061  1.0000
  H   H5341     1.0  0.86229  0.32650  0.74973  1.0000
  H   H5342     1.0  0.85885  0.31174  0.78465  1.0000
  H   H5343     1.0  0.92025  0.28935  0.77640  1.0000
  H   H5344     1.0  0.92365  0.30384  0.74115  1.0000
  S   S679      1.0  0.91420  0.12934  0.71439  1.0000
  H   H5345     1.0  0.95645  0.13329  0.68773  1.0000
  H   H5346     1.0  0.81151  0.32672  0.69849  1.0000
  H   H5347     1.0  0.95157  0.23828  0.72214  1.0000
  H   H5348     1.0  0.82269  0.18055  0.86455  1.0000
  H   H5349     1.0  0.80065  0.31186  0.58363  1.0000
  H   H5350     1.0  0.80147  0.22020  0.56725  1.0000
  H   H5351     1.0  0.81803  0.42447  0.77939  1.0000
  H   H5352     1.0  0.80121  0.29626  0.70032  1.0000
  C   C3031     1.0  0.94052  0.10437  0.67454  1.0000
  C   C3032     1.0  0.92534  0.09182  0.67942  1.0000
  H   H5353     1.0  0.79139  0.34340  0.80326  1.0000
  C   C3033     1.0  0.80746  0.20439  0.56914  1.0000
  H   H5354     1.0  0.97922  0.21918  0.78906  1.0000
  C   C3034     1.0  0.96143  0.19886  0.71364  1.0000
  H   H5355     1.0  0.79845  0.33301  0.59317  1.0000
  C   C3035     1.0  0.98408  0.13836  0.66911  1.0000
  C   C3036     1.0  0.82326  0.09834  0.66491  1.0000
  H   H5356     1.0  0.83521  0.20948  0.57017  1.0000
  H   H5357     1.0  0.82147  0.34711  0.86460  1.0000
  H   H5358     1.0  0.95014  0.19540  0.69014  1.0000
  C   C3037     1.0  0.79574  0.25559  0.53146  1.0000
  H   H5359     1.0  0.81051  0.46023  0.70688  1.0000
  C   C3038     1.0  0.79225  0.36251  0.77514  1.0000
  H   H5360     1.0  0.80649  0.03912  0.61231  1.0000
  C   C3039     1.0  0.81107  0.01169  0.79397  1.0000
  H   H5361     1.0  0.96051  0.21659  0.68460  1.0000
  H   H5362     1.0  0.80323  0.38652  0.79613  1.0000
  H   H5363     1.0  0.93282  0.11892  0.67733  1.0000
  H   H5364     1.0  0.94685  0.10606  0.65884  1.0000
  H   H5365     1.0  0.93217  0.07710  0.67653  1.0000
  C   C3040     1.0  0.96740  0.12695  0.67600  1.0000
  H   H5366     1.0  0.91428  0.09855  0.67030  1.0000
  N   N166      1.0  0.97845  0.20561  0.73773  1.0000
  C   C3041     1.0  0.79901  0.31714  0.59710  1.0000
  C   C3042     1.0  0.81336  0.48196  0.79024  1.0000
  H   H5367     1.0  0.95977  0.21648  0.76266  1.0000
  H   H5368     1.0  0.96000  0.13071  0.66357  1.0000
  H   H5369     1.0  0.87859  0.38699  0.82414  1.0000
  H   H5370     1.0  0.97975  0.30985  0.82213  1.0000
  H   H5371     1.0  0.81760  0.46168  0.72771  1.0000
  H   H5372     1.0  0.97263  0.18797  0.77868  1.0000
  N   N167      1.0  0.86836  0.27312  0.70349  1.0000
  C   C3043     1.0  0.88888  0.26215  0.70397  1.0000
  C   C3044     1.0  0.86852  0.29439  0.69558  1.0000
  C   C3045     1.0  0.85719  0.27117  0.72429  1.0000
  C   C3046     1.0  0.85845  0.26551  0.69195  1.0000
  C   C3047     1.0  0.87138  0.25710  0.67421  1.0000
  C   C3048     1.0  0.89097  0.24063  0.71489  1.0000
  C   C3049     1.0  0.83567  0.28199  0.72734  1.0000
  C   C3050     1.0  0.87950  0.30013  0.67442  1.0000
  C   C3051     1.0  0.88125  0.32137  0.66965  1.0000
  C   C3052     1.0  0.85910  0.25318  0.66205  1.0000
  C   C3053     1.0  0.91117  0.22882  0.70858  1.0000
  C   C3054     1.0  0.82557  0.27735  0.74866  1.0000
  H   H5373     1.0  0.89612  0.26940  0.71106  1.0000
  H   H5374     1.0  0.89779  0.26253  0.68911  1.0000
  H   H5375     1.0  0.85356  0.30298  0.69558  1.0000
  H   H5376     1.0  0.87453  0.30005  0.70518  1.0000
  H   H5377     1.0  0.86460  0.27620  0.73319  1.0000
  H   H5378     1.0  0.85687  0.25569  0.73105  1.0000
  H   H5379     1.0  0.85117  0.25367  0.70140  1.0000
  H   H5380     1.0  0.84654  0.27709  0.68671  1.0000
  H   H5381     1.0  0.88095  0.24310  0.67915  1.0000
  H   H5382     1.0  0.88075  0.26693  0.66453  1.0000
  H   H5383     1.0  0.88858  0.23986  0.73077  1.0000
  H   H5384     1.0  0.88021  0.23358  0.71249  1.0000
  H   H5385     1.0  0.82763  0.27776  0.71858  1.0000
  H   H5386     1.0  0.83442  0.29790  0.72333  1.0000
  H   H5387     1.0  0.89440  0.29141  0.67173  1.0000
  H   H5388     1.0  0.87130  0.29850  0.66419  1.0000
  H   H5389     1.0  0.88835  0.32547  0.65417  1.0000
  H   H5390     1.0  0.86673  0.33097  0.67205  1.0000
  H   H5391     1.0  0.89010  0.32376  0.67887  1.0000
  H   H5392     1.0  0.84976  0.24291  0.67106  1.0000
  H   H5393     1.0  0.84983  0.26686  0.65588  1.0000
  H   H5394     1.0  0.86867  0.24671  0.64979  1.0000
  H   H5395     1.0  0.91248  0.21392  0.71766  1.0000
  H   H5396     1.0  0.91364  0.22774  0.69314  1.0000
  H   H5397     1.0  0.92238  0.23562  0.71043  1.0000
  H   H5398     1.0  0.81031  0.28547  0.75047  1.0000
  H   H5399     1.0  0.82558  0.26160  0.75352  1.0000
  H   H5400     1.0  0.83294  0.28175  0.75796  1.0000
  Fe  Fe336     1.0  0.82688  0.35858  0.73474  1.0000
  H   H5401     1.0  0.87797  0.12599  0.65962  1.0000
  H   H5402     1.0  0.84347  0.39508  0.77670  1.0000
  H   H5403     1.0  0.87989  0.15062  0.64837  1.0000
  C   C3055     1.0  0.98233  0.18472  0.74828  1.0000
  C   C3056     1.0  0.80327  0.30009  0.48730  1.0000
  C   C3057     1.0  0.79340  0.16375  0.70149  1.0000
  H   H5404     1.0  0.79693  0.17375  0.53167  1.0000
  H   H5405     1.0  0.97986  0.11482  0.64183  1.0000
  H   H5406     1.0  0.84593  0.28403  0.95473  1.0000
  H   H5407     1.0  0.96775  0.18808  0.86741  1.0000
  H   H5408     1.0  0.97294  0.20057  0.88325  1.0000
  N   N168      1.0  0.88207  0.17841  0.84452  1.0000
  C   C3058     1.0  0.89049  0.18060  0.86062  1.0000
  C   C3059     1.0  0.86345  0.17099  0.85301  1.0000
  C   C3060     1.0  0.89654  0.16358  0.83405  1.0000
  C   C3061     1.0  0.87887  0.19716  0.82983  1.0000
  C   C3062     1.0  0.86312  0.21405  0.83670  1.0000
  C   C3063     1.0  0.91116  0.18504  0.85481  1.0000
  C   C3064     1.0  0.88954  0.15660  0.81897  1.0000
  C   C3065     1.0  0.85068  0.17751  0.87185  1.0000
  H   H5409     1.0  0.83876  0.11802  0.68287  1.0000
  C   C3066     1.0  0.86153  0.23190  0.82014  1.0000
  C   C3067     1.0  0.91786  0.18687  0.87241  1.0000
  C   C3068     1.0  0.90495  0.14043  0.81090  1.0000
  H   H5410     1.0  0.89113  0.16699  0.87198  1.0000
  H   H5411     1.0  0.88103  0.19226  0.86801  1.0000
  H   H5412     1.0  0.85435  0.17476  0.84182  1.0000
  H   H5413     1.0  0.86664  0.15483  0.85712  1.0000
  H   H5414     1.0  0.90161  0.15048  0.84483  1.0000
  H   H5415     1.0  0.90965  0.16945  0.82577  1.0000
  H   H5416     1.0  0.89258  0.20243  0.82387  1.0000
  H   H5417     1.0  0.87465  0.19480  0.81713  1.0000
  H   H5418     1.0  0.86642  0.21818  0.84896  1.0000
  H   H5419     1.0  0.84872  0.21002  0.84109  1.0000
  H   H5420     1.0  0.92198  0.17329  0.84862  1.0000
  H   H5421     1.0  0.91153  0.19882  0.84406  1.0000
  H   H5422     1.0  0.88673  0.16855  0.80641  1.0000
  H   H5423     1.0  0.87613  0.15084  0.82543  1.0000
  H   H5424     1.0  0.85762  0.16989  0.88447  1.0000
  H   H5425     1.0  0.84861  0.19324  0.87101  1.0000
  H   H5426     1.0  0.82094  0.02104  0.78406  1.0000
  C   C3069     1.0  0.81440  0.39509  0.79402  1.0000
  H   H5427     1.0  0.81797  0.31896  0.82072  1.0000
  H   H5428     1.0  0.87514  0.23749  0.81549  1.0000
  H   H5429     1.0  0.85840  0.22835  0.80743  1.0000
  H   H5430     1.0  0.84954  0.24358  0.82498  1.0000
  H   H5431     1.0  0.93258  0.19020  0.86776  1.0000
  H   H5432     1.0  0.90803  0.19878  0.87912  1.0000
  H   H5433     1.0  0.91840  0.17312  0.88346  1.0000
  H   H5434     1.0  0.90772  0.12753  0.82265  1.0000
  H   H5435     1.0  0.89988  0.13608  0.79979  1.0000
  H   H5436     1.0  0.91872  0.14545  0.80385  1.0000
  C   C3070     1.0  0.98629  0.08034  0.71169  1.0000
  H   H5437     1.0  0.97809  0.15265  0.77801  1.0000
  C   C3071     1.0  0.80282  0.30829  0.52778  1.0000
  S   S680      1.0  0.86190  0.46958  0.75570  1.0000
  H   H5438     1.0  0.84426  0.27601  0.84150  1.0000
  H   H5439     1.0  0.96857  0.16360  0.65153  1.0000
  H   H5440     1.0  0.83031  0.31597  0.52605  1.0000
  H   H5441     1.0  0.96591  0.16524  0.67650  1.0000
  H   H5442     1.0  0.81189  0.30977  0.60364  1.0000
  H   H5443     1.0  0.81904  0.34964  0.88932  1.0000
  C   C3072     1.0  0.98501  0.31377  0.83338  1.0000
  C   C3073     1.0  0.97618  0.16013  0.66381  1.0000
  H   H5444     1.0  0.82483  0.09096  0.67998  1.0000
  H   H5445     1.0  0.97883  0.22070  0.70775  1.0000
  C   C3074     1.0  0.97145  0.12901  0.74066  1.0000
  H   H5446     1.0  0.96103  0.07996  0.68681  1.0000
  H   H5447     1.0  0.80748  0.18025  0.55733  1.0000
  H   H5448     1.0  0.83164  0.37882  0.77240  1.0000
  Fe  Fe337     1.0  0.81038  0.25892  0.64694  1.0000
  S   S681      1.0  0.81056  0.34601  0.76381  1.0000
  H   H5449     1.0  0.91787  0.09059  0.69493  1.0000
  H   H5450     1.0  0.97612  0.19282  0.68505  1.0000
  H   H5451     1.0  0.84803  0.26324  0.94484  1.0000
  H   H5452     1.0  0.79747  0.06410  0.60166  1.0000
  H   H5453     1.0  0.97810  0.26197  0.85615  1.0000
  C   C3075     1.0  0.84996  0.27845  0.94109  1.0000
  H   H5454     1.0  0.81017  0.16863  0.48746  1.0000
  H   H5455     1.0  0.79500  0.17899  0.69916  1.0000
  C   C3076     1.0  0.83065  0.17259  0.87635  1.0000
  C   C3077     1.0  0.98597  0.09946  0.64762  1.0000
  C   C3078     1.0  0.80037  0.26304  0.56058  1.0000
  H   H5456     1.0  0.81438  0.99452  0.77303  1.0000
  S   S682      1.0  0.98278  0.26568  0.81437  1.0000
  C   C3079     1.0  0.80475  0.46503  0.72091  1.0000
  H   H5457     1.0  0.97376  0.32536  0.83944  1.0000
  C   C3080     1.0  0.83132  0.35369  0.80706  1.0000
  C   C3081     1.0  0.97848  0.20593  0.71689  1.0000
  H   H5458     1.0  0.81987  0.12677  0.64695  1.0000
  H   H5459     1.0  0.83104  0.15320  0.63554  1.0000
  H   H5460     1.0  0.83340  0.20747  0.54654  1.0000
  N   N169      1.0  0.85173  0.29254  0.89015  1.0000
  C   C3082     1.0  0.83979  0.28283  0.90851  1.0000
  C   C3083     1.0  0.85438  0.28196  0.87392  1.0000
  C   C3084     1.0  0.87157  0.29065  0.89406  1.0000
  C   C3085     1.0  0.84331  0.31391  0.88411  1.0000
  C   C3086     1.0  0.82103  0.32012  0.88633  1.0000
  C   C3087     1.0  0.83696  0.29103  0.92704  1.0000
  C   C3088     1.0  0.88677  0.29812  0.87631  1.0000
  C   C3089     1.0  0.83712  0.27368  0.87298  1.0000
  C   C3090     1.0  0.84168  0.26486  0.85501  1.0000
  C   C3091     1.0  0.81484  0.34211  0.88005  1.0000
  Fe  Fe338     1.0  0.80743  0.24206  0.48285  1.0000
  C   C3092     1.0  0.90601  0.29618  0.88213  1.0000
  H   H5461     1.0  0.84595  0.26698  0.91169  1.0000
  H   H5462     1.0  0.82502  0.28362  0.90642  1.0000
  H   H5463     1.0  0.85879  0.29127  0.85946  1.0000
  H   H5464     1.0  0.86661  0.26914  0.87499  1.0000
  H   H5465     1.0  0.87771  0.27518  0.89997  1.0000
  H   H5466     1.0  0.87068  0.29877  0.90537  1.0000
  H   H5467     1.0  0.84745  0.32250  0.89248  1.0000
  H   H5468     1.0  0.84971  0.31949  0.86867  1.0000
  H   H5469     1.0  0.81356  0.31608  0.90167  1.0000
  H   H5470     1.0  0.81579  0.31352  0.87715  1.0000
  H   H5471     1.0  0.83899  0.30617  0.92361  1.0000
  H   H5472     1.0  0.82169  0.29139  0.93504  1.0000
  H   H5473     1.0  0.88170  0.31363  0.87002  1.0000
  H   H5474     1.0  0.88966  0.28968  0.86482  1.0000
  H   H5475     1.0  0.83417  0.26193  0.88585  1.0000
  H   H5476     1.0  0.82375  0.28487  0.87243  1.0000
  H   H5477     1.0  0.85476  0.25304  0.85524  1.0000
  C   C3093     1.0  0.96218  0.20107  0.69201  1.0000
  H   H5478     1.0  0.97588  0.09033  0.64773  1.0000
  C   C3094     1.0  0.86467  0.39757  0.82329  1.0000
  C   C3095     1.0  0.79873  0.04877  0.60092  1.0000
  C   C3096     1.0  0.81642  0.31476  0.53656  1.0000
  C   C3097     1.0  0.82490  0.30191  0.48178  1.0000
  H   H5479     1.0  0.80711  0.41283  0.76696  1.0000
  C   C3098     1.0  0.81285  0.15099  0.69445  1.0000
  H   H5480     1.0  0.91664  0.30159  0.86921  1.0000
  H   H5481     1.0  0.90405  0.30477  0.89332  1.0000
  H   H5482     1.0  0.91203  0.28073  0.88793  1.0000
  H   H5483     1.0  0.82325  0.15195  0.70280  1.0000
  C   C3099     1.0  0.95917  0.21588  0.74769  1.0000
  H   H5484     1.0  0.98828  0.16803  0.65942  1.0000
  H   H5485     1.0  0.88754  0.15343  0.67982  1.0000
  N   N170      1.0  0.84478  0.36771  0.79764  1.0000
  C   C3100     1.0  0.86244  0.35709  0.78562  1.0000
  H   H5486     1.0  0.82693  0.34897  0.79569  1.0000
  C   C3101     1.0  0.85021  0.37426  0.81328  1.0000
  C   C3102     1.0  0.85543  0.39467  0.80789  1.0000
  C   C3103     1.0  0.83917  0.33509  0.82123  1.0000
  C   C3104     1.0  0.87868  0.36842  0.77477  1.0000
  C   C3105     1.0  0.89472  0.35663  0.76179  1.0000
  C   C3106     1.0  0.98016  0.10185  0.70157  1.0000
  H   H5487     1.0  0.83813  0.37456  0.82625  1.0000
  H   H5488     1.0  0.86973  0.34401  0.79483  1.0000
  H   H5489     1.0  0.85798  0.35168  0.77476  1.0000
  H   H5490     1.0  0.90512  0.13698  0.66632  1.0000
  H   H5491     1.0  0.86258  0.36343  0.81861  1.0000
  H   H5492     1.0  0.86550  0.39724  0.79373  1.0000
  H   H5493     1.0  0.84465  0.33866  0.83250  1.0000
  H   H5494     1.0  0.85104  0.32528  0.81339  1.0000
  H   H5495     1.0  0.87318  0.38228  0.76533  1.0000
  H   H5496     1.0  0.88559  0.37126  0.78541  1.0000
  H   H5497     1.0  0.88912  0.35435  0.74991  1.0000
  H   H5498     1.0  0.90668  0.36460  0.75507  1.0000
  H   H5499     1.0  0.90067  0.34232  0.77033  1.0000
  C   C3107     1.0  0.83436  0.38424  0.78427  1.0000
  S   S683      1.0  0.81600  0.24501  0.96751  1.0000
  C   C3108     1.0  0.98567  0.18119  0.76922  1.0000
  H   H5500     1.0  0.80744  0.04642  0.58648  1.0000
  C   C3109     1.0  0.83855  0.12496  0.66736  1.0000
  C   C3110     1.0  0.95202  0.23716  0.73750  1.0000
  H   H5501     1.0  0.82214  0.17695  0.89013  1.0000
  H   H5502     1.0  0.78985  0.38458  0.74920  1.0000
  H   H5503     1.0  0.86705  0.17031  0.60845  1.0000
  N   N171      1.0  0.83914  0.14618  0.66355  1.0000
  C   C3111     1.0  0.84319  0.15377  0.64187  1.0000
  C   C3112     1.0  0.82014  0.15778  0.67232  1.0000
  C   C3113     1.0  0.85481  0.14807  0.67264  1.0000
  C   C3114     1.0  0.87590  0.14067  0.66245  1.0000
  C   C3115     1.0  0.84594  0.17507  0.63497  1.0000
  C   C3116     1.0  0.82114  0.12021  0.66222  1.0000
  C   C3117     1.0  0.89015  0.13961  0.67496  1.0000
  C   C3118     1.0  0.85286  0.17981  0.61291  1.0000
  H   H5504     1.0  0.94724  0.20723  0.71973  1.0000
  S   S684      1.0  0.79757  0.06185  0.64767  1.0000
  Fe  Fe339     1.0  0.80983  0.22462  0.95241  1.0000
  H   H5505     1.0  0.80858  0.15818  0.66466  1.0000
  H   H5506     1.0  0.97000  0.17784  0.74937  1.0000
  H   H5507     1.0  0.86771  0.41243  0.81935  1.0000
  H   H5508     1.0  0.83543  0.32967  0.63766  1.0000
  H   H5509     1.0  0.83190  0.15676  0.87809  1.0000
  S   S685      1.0  0.95006  0.11983  0.75095  1.0000
  H   H5510     1.0  0.94783  0.09599  0.70247  1.0000
  H   H5511     1.0  0.93128  0.24520  0.76305  1.0000
  H   H5512     1.0  0.94770  0.20753  0.74988  1.0000
  H   H5513     1.0  0.92113  0.23739  0.74673  1.0000
  H   H5514     1.0  0.81771  0.36089  0.81565  1.0000
  C   C3119     1.0  0.82946  0.20163  0.56240  1.0000
  H   H5515     1.0  0.79625  0.43183  0.71457  1.0000
  H   H5516     1.0  0.84224  0.40624  0.80692  1.0000
  H   H5517     1.0  0.81012  0.32931  0.50137  1.0000
  C   C3120     1.0  0.80167  0.47806  0.81101  1.0000
  H   H5518     1.0  0.82913  0.31049  0.84159  1.0000
  H   H5519     1.0  0.97467  0.07216  0.71419  1.0000
  H   H5520     1.0  0.81454  0.39726  0.80851  1.0000
  C   C3121     1.0  0.79721  0.32328  0.50957  1.0000
  H   H5521     1.0  0.97773  0.08461  0.74152  1.0000
  H   H5522     1.0  0.79014  0.27488  0.92574  1.0000
  H   H5523     1.0  0.79491  0.01538  0.77214  1.0000
  C   C3122     1.0  0.79090  0.45170  0.73419  1.0000
  H   H5524     1.0  0.98421  0.20020  0.82128  1.0000
  H   H5525     1.0  0.79166  0.15765  0.55468  1.0000
  H   H5526     1.0  0.96857  0.10907  0.71225  1.0000
  H   H5527     1.0  0.80999  0.29389  0.52429  1.0000
  C   C3123     1.0  0.79677  0.43134  0.72983  1.0000
  N   N172      1.0  0.97327  0.10525  0.68280  1.0000
  H   H5528     1.0  0.80299  0.28550  0.49692  1.0000
  C   C3124     1.0  0.95604  0.09563  0.68730  1.0000
  H   H5529     1.0  0.98244  0.17489  0.88521  1.0000
  H   H5530     1.0  0.81086  0.33244  0.84000  1.0000
  H   H5531     1.0  0.81965  0.30380  0.54974  1.0000
  Fe  Fe340     1.0  0.80274  0.22261  0.63884  1.0000
  C   C3125     1.0  0.98726  0.12273  0.75005  1.0000
  H   H5532     1.0  0.79397  0.47815  0.68246  1.0000
  H   H5533     1.0  0.80956  0.32891  0.54083  1.0000
  H   H5534     1.0  0.80449  0.19777  0.58485  1.0000
  H   H5535     1.0  0.79683  0.07673  0.74375  1.0000
  H   H5536     1.0  0.98708  0.30087  0.84532  1.0000
  H   H5537     1.0  0.81023  0.09519  0.66205  1.0000
  C   C3126     1.0  0.79874  0.19511  0.55726  1.0000
  H   H5538     1.0  0.79068  0.30926  0.63747  1.0000
  H   H5539     1.0  0.78961  0.30647  0.53920  1.0000
  S   S686      1.0  0.79078  0.27349  0.58122  1.0000
  H   H5540     1.0  0.80884  0.48268  0.82035  1.0000
  Fe  Fe341     1.0  0.80181  0.53200  0.34771  1.0000
  C   C3127     1.0  0.79291  0.79543  0.44733  1.0000
  H   H5541     1.0  0.85365  0.50632  0.36042  1.0000
  H   H5542     1.0  0.82740  0.97608  0.26830  1.0000
  H   H5543     1.0  0.87513  0.59854  0.23786  1.0000
  H   H5544     1.0  0.86749  0.68069  0.21500  1.0000
  H   H5545     1.0  0.82822  0.71313  0.10946  1.0000
  H   H5546     1.0  0.86283  0.53376  0.36922  1.0000
  H   H5547     1.0  0.88360  0.70680  0.14068  1.0000
  H   H5548     1.0  0.80049  0.85865  0.24976  1.0000
  H   H5549     1.0  0.88048  0.53624  0.38126  1.0000
  H   H5550     1.0  0.85490  0.54549  0.38971  1.0000
  Fe  Fe342     1.0  0.84453  0.88398  0.33326  1.0000
  S   S687      1.0  0.87529  0.88332  0.31757  1.0000
  H   H5551     1.0  0.86150  0.48842  0.26855  1.0000
  Fe  Fe343     1.0  0.83126  0.62818  0.44656  1.0000
  S   S688      1.0  0.82213  0.54271  0.35936  1.0000
  S   S689      1.0  0.83447  0.60113  0.43505  1.0000
  Fe  Fe344     1.0  0.84889  0.66213  0.44454  1.0000
  S   S690      1.0  0.87530  0.67494  0.43082  1.0000
  S   S691      1.0  0.92499  0.62021  0.22975  1.0000
  Fe  Fe345     1.0  0.93492  0.73622  0.32577  1.0000
  S   S692      1.0  0.92871  0.73375  0.35792  1.0000
  S   S693      1.0  0.94582  0.70872  0.31426  1.0000
  Fe  Fe346     1.0  0.92467  0.77997  0.31817  1.0000
  S   S694      1.0  0.91738  0.78137  0.34975  1.0000
  S   S695      1.0  0.92403  0.80551  0.29326  1.0000
  Fe  Fe347     1.0  0.94450  0.75818  0.35134  1.0000
  S   S696      1.0  0.96669  0.75524  0.36925  1.0000
  Fe  Fe348     1.0  0.90237  0.75687  0.35350  1.0000
  S   S697      1.0  0.87209  0.75444  0.37022  1.0000
  S   S698      1.0  0.95287  0.75867  0.31947  1.0000
  S   S699      1.0  0.90744  0.75758  0.32166  1.0000
  C   C3128     1.0  0.95392  0.74624  0.26452  1.0000
  S   S700      1.0  0.82242  0.57817  0.32035  1.0000
  S   S701      1.0  0.87034  0.53541  0.32241  1.0000
  C   C3129     1.0  0.82707  0.54041  0.08400  1.0000
  H   H5552     1.0  0.79742  0.97323  0.37659  1.0000
  S   S702      1.0  0.79498  0.64039  0.00285  1.0000
  C   C3130     1.0  0.81488  0.95011  0.27481  1.0000
  Fe  Fe349     1.0  0.90412  0.66516  0.25402  1.0000
  S   S703      1.0  0.93273  0.64575  0.25740  1.0000
  S   S704      1.0  0.89257  0.69233  0.26637  1.0000
  Fe  Fe350     1.0  0.89645  0.64134  0.22882  1.0000
  S   S705      1.0  0.87133  0.63846  0.21739  1.0000
  Fe  Fe351     1.0  0.91789  0.62125  0.26142  1.0000
  S   S706      1.0  0.92544  0.59517  0.28458  1.0000
  S   S707      1.0  0.88864  0.64053  0.26105  1.0000
  S   S708      1.0  0.90953  0.66772  0.22176  1.0000
  S   S709      1.0  0.80848  0.83821  0.38395  1.0000
  S   S710      1.0  0.83099  0.65145  0.09613  1.0000
  H   H5553     1.0  0.85253  0.73273  0.43620  1.0000
  Fe  Fe352     1.0  0.80726  0.62473  0.14654  1.0000
  S   S711      1.0  0.83575  0.61175  0.12968  1.0000
  S   S712      1.0  0.82718  0.65871  0.42915  1.0000
  Fe  Fe353     1.0  0.84209  0.64138  0.12409  1.0000
  S   S713      1.0  0.87019  0.64497  0.12917  1.0000
  Fe  Fe354     1.0  0.82180  0.62284  0.10351  1.0000
  S   S714      1.0  0.82476  0.60385  0.08212  1.0000
  S   S715      1.0  0.81421  0.65388  0.14226  1.0000
  C   C3131     1.0  0.83573  0.58619  0.20598  1.0000
  H   H5554     1.0  0.79420  0.69376  0.41870  1.0000
  C   C3132     1.0  0.87109  0.60861  0.02531  1.0000
  C   C3133     1.0  0.97922  0.70456  0.35733  1.0000
  H   H5555     1.0  0.81012  0.62307  0.23312  1.0000
  H   H5556     1.0  0.85937  0.59812  0.26163  1.0000
  S   S716      1.0  0.81949  0.53496  0.31749  1.0000
  N   N173      1.0  0.79428  0.95876  0.27235  1.0000
  H   H5557     1.0  0.85284  0.96699  0.32114  1.0000
  H   H5558     1.0  0.89044  0.68159  0.15183  1.0000
  H   H5559     1.0  0.87760  0.62149  0.02261  1.0000
  H   H5560     1.0  0.98877  0.67859  0.25383  1.0000
  H   H5561     1.0  0.84216  0.55372  0.23596  1.0000
  H   H5562     1.0  0.80014  0.55945  0.23128  1.0000
  C   C3134     1.0  0.81601  0.71158  0.12212  1.0000
  H   H5563     1.0  0.81385  0.84503  0.27995  1.0000
  C   C3135     1.0  0.87161  0.64078  0.15384  1.0000
  C   C3136     1.0  0.88821  0.64295  0.15882  1.0000
  C   C3137     1.0  0.88870  0.64171  0.17836  1.0000
  C   C3138     1.0  0.87260  0.63809  0.19297  1.0000
  C   C3139     1.0  0.85638  0.63510  0.18805  1.0000
  C   C3140     1.0  0.85588  0.63638  0.16860  1.0000
  H   H5564     1.0  0.90053  0.64611  0.14747  1.0000
  H   H5565     1.0  0.90133  0.64393  0.18204  1.0000
  H   H5566     1.0  0.84396  0.63223  0.19932  1.0000
  H   H5567     1.0  0.84322  0.63419  0.16503  1.0000
  H   H5568     1.0  0.90178  0.78241  0.28158  1.0000
  Fe  Fe355     1.0  0.80580  0.66585  0.45594  1.0000
  H   H5569     1.0  0.81871  0.56779  0.39228  1.0000
  H   H5570     1.0  0.89153  0.78926  0.26020  1.0000
  C   C3141     1.0  0.88527  0.55216  0.31053  1.0000
  C   C3142     1.0  0.87805  0.57069  0.30041  1.0000
  C   C3143     1.0  0.89041  0.58393  0.29170  1.0000
  C   C3144     1.0  0.90990  0.57862  0.29328  1.0000
  C   C3145     1.0  0.91707  0.55999  0.30313  1.0000
  C   C3146     1.0  0.90484  0.54680  0.31163  1.0000
  H   H5571     1.0  0.86300  0.57482  0.29929  1.0000
  H   H5572     1.0  0.88480  0.59831  0.28410  1.0000
  H   H5573     1.0  0.93216  0.55576  0.30423  1.0000
  H   H5574     1.0  0.86661  0.90403  0.37488  1.0000
  C   C3147     1.0  0.93122  0.70458  0.30052  1.0000
  C   C3148     1.0  0.91710  0.71950  0.29287  1.0000
  C   C3149     1.0  0.90551  0.71572  0.28210  1.0000
  C   C3150     1.0  0.90801  0.69702  0.27890  1.0000
  C   C3151     1.0  0.92215  0.68216  0.28655  1.0000
  C   C3152     1.0  0.93382  0.68596  0.29716  1.0000
  H   H5575     1.0  0.91530  0.73401  0.29493  1.0000
  H   H5576     1.0  0.89459  0.72730  0.27625  1.0000
  H   H5577     1.0  0.92371  0.66757  0.28490  1.0000
  H   H5578     1.0  0.94465  0.67432  0.30309  1.0000
  H   H5579     1.0  0.81677  0.96902  0.29353  1.0000
  C   C3153     1.0  0.82548  0.80503  0.33666  1.0000
  C   C3154     1.0  0.80367  0.97537  0.23621  1.0000
  S   S717      1.0  0.82335  0.91040  0.32290  1.0000
  H   H5580     1.0  0.79825  0.83383  0.25273  1.0000
  C   C3155     1.0  0.86828  0.58912  0.25103  1.0000
  H   H5581     1.0  0.81920  0.96852  0.23552  1.0000
  H   H5582     1.0  0.82934  0.87087  0.26600  1.0000
  N   N174      1.0  0.83974  0.70161  0.19042  1.0000
  C   C3156     1.0  0.82435  0.60064  0.41557  1.0000
  C   C3157     1.0  0.81550  0.61763  0.40435  1.0000
  H   H5583     1.0  0.85437  0.94701  0.27150  1.0000
  C   C3158     1.0  0.81467  0.68606  0.18247  1.0000
  C   C3159     1.0  0.81794  0.58170  0.39547  1.0000
  C   C3160     1.0  0.82564  0.58272  0.41099  1.0000
  C   C3161     1.0  0.81492  0.75503  0.44167  1.0000
  H   H5584     1.0  0.82964  0.86623  0.29132  1.0000
  H   H5585     1.0  0.97161  0.69206  0.22679  1.0000
  H   H5586     1.0  0.83254  0.56952  0.41957  1.0000
  C   C3162     1.0  0.87303  0.69804  0.41569  1.0000
  C   C3163     1.0  0.85643  0.70679  0.40795  1.0000
  C   C3164     1.0  0.85599  0.72441  0.39427  1.0000
  C   C3165     1.0  0.87200  0.73338  0.38858  1.0000
  C   C3166     1.0  0.88819  0.72499  0.39700  1.0000
  C   C3167     1.0  0.88876  0.70730  0.41040  1.0000
  H   H5587     1.0  0.84424  0.69967  0.41205  1.0000
  H   H5588     1.0  0.84359  0.73069  0.38755  1.0000
  H   H5589     1.0  0.90035  0.73208  0.39316  1.0000
  H   H5590     1.0  0.90157  0.70063  0.41649  1.0000
  C   C3168     1.0  0.88756  0.86166  0.31012  1.0000
  C   C3169     1.0  0.90459  0.86173  0.29596  1.0000
  C   C3170     1.0  0.91534  0.84446  0.29044  1.0000
  C   C3171     1.0  0.90951  0.82696  0.29961  1.0000
  C   C3172     1.0  0.89242  0.82680  0.31379  1.0000
  C   C3173     1.0  0.88116  0.84428  0.31868  1.0000
  H   H5591     1.0  0.90954  0.87516  0.28929  1.0000
  H   H5592     1.0  0.92855  0.84459  0.27949  1.0000
  H   H5593     1.0  0.88792  0.81324  0.32095  1.0000
  H   H5594     1.0  0.86796  0.84421  0.32957  1.0000
  H   H5595     1.0  0.98417  0.74382  0.25212  1.0000
  C   C3174     1.0  0.84050  0.96855  0.33301  1.0000
  C   C3175     1.0  0.80515  0.66843  0.18924  1.0000
  H   H5596     1.0  0.84675  0.71054  0.45181  1.0000
  H   H5597     1.0  0.85778  0.54828  0.98850  1.0000
  Fe  Fe356     1.0  0.93754  0.64656  0.22569  1.0000
  S   S718      1.0  0.78979  0.89130  0.35592  1.0000
  H   H5598     1.0  0.87300  0.80178  0.29926  1.0000
  C   C3176     1.0  0.87390  0.61146  0.98911  1.0000
  H   H5599     1.0  0.80941  0.62217  0.20885  1.0000
  H   H5600     1.0  0.80358  0.78929  0.41885  1.0000
  C   C3177     1.0  0.80937  0.60980  0.03054  1.0000
  C   C3178     1.0  0.81618  0.60203  0.04799  1.0000
  C   C3179     1.0  0.81594  0.61410  0.06037  1.0000
  C   C3180     1.0  0.80892  0.63404  0.05509  1.0000
  H   H5601     1.0  0.85054  0.56787  0.25900  1.0000
  H   H5602     1.0  0.80963  0.60037  0.02114  1.0000
  H   H5603     1.0  0.82178  0.58662  0.05182  1.0000
  C   C3181     1.0  0.96841  0.70008  0.37843  1.0000
  H   H5604     1.0  0.79924  0.59093  0.24555  1.0000
  H   H5605     1.0  0.91052  0.53248  0.31933  1.0000
  H   H5606     1.0  0.80072  0.54830  0.16063  1.0000
  H   H5607     1.0  0.79463  0.66971  0.18007  1.0000
  H   H5608     1.0  0.83437  0.94063  0.33490  1.0000
  C   C3182     1.0  0.82808  0.68580  0.19613  1.0000
  H   H5609     1.0  0.83265  0.54979  0.16458  1.0000
  C   C3183     1.0  0.85052  0.49194  0.29854  1.0000
  H   H5610     1.0  0.80475  0.74228  0.11875  1.0000
  H   H5611     1.0  0.96915  0.75117  0.23454  1.0000
  H   H5612     1.0  0.85965  0.56053  0.20638  1.0000
  H   H5613     1.0  0.82563  0.83746  0.30871  1.0000
  C   C3184     1.0  0.98363  0.63243  0.23918  1.0000
  C   C3185     1.0  0.84322  0.70498  0.20882  1.0000
  C   C3186     1.0  0.82833  0.72043  0.18079  1.0000
  C   C3187     1.0  0.84953  0.56344  0.98550  1.0000
  H   H5614     1.0  0.81952  0.54181  0.14027  1.0000
  S   S719      1.0  0.96657  0.65288  0.20825  1.0000
  C   C3188     1.0  0.87950  0.69244  0.14437  1.0000
  Fe  Fe357     1.0  0.80233  0.66094  0.11519  1.0000
  H   H5615     1.0  0.80091  0.62975  0.38021  1.0000
  H   H5616     1.0  0.79334  0.58692  0.44839  1.0000
  H   H5617     1.0  0.82319  0.52061  0.98690  1.0000
  H   H5618     1.0  0.84355  0.60498  0.22754  1.0000
  H   H5619     1.0  0.79284  0.85487  0.32429  1.0000
  C   C3189     1.0  0.80671  0.59469  0.23013  1.0000
  H   H5620     1.0  0.82072  0.79117  0.34397  1.0000
  S   S720      1.0  0.79749  0.59807  0.36588  1.0000
  H   H5621     1.0  0.88578  0.59836  0.98971  1.0000
  H   H5622     1.0  0.94352  0.84066  0.40350  1.0000
  H   H5623     1.0  0.87037  0.57460  0.99300  1.0000
  S   S721      1.0  0.79248  0.63289  0.12116  1.0000
  C   C3190     1.0  0.98431  0.64720  0.22252  1.0000
  H   H5624     1.0  0.88266  0.59529  0.02602  1.0000
  H   H5625     1.0  0.94196  0.70681  0.21455  1.0000
  Fe  Fe358     1.0  0.80149  0.56503  0.31259  1.0000
  C   C3191     1.0  0.80389  0.75074  0.38599  1.0000
  H   H5626     1.0  0.83630  0.56675  0.14170  1.0000
  H   H5627     1.0  0.79864  0.59044  0.22136  1.0000
  C   C3192     1.0  0.85594  0.57807  0.24561  1.0000
  H   H5628     1.0  0.81823  0.68641  0.21057  1.0000
  H   H5629     1.0  0.94731  0.83635  0.32787  1.0000
  H   H5630     1.0  0.83581  0.48869  0.27729  1.0000
  H   H5631     1.0  0.93526  0.82284  0.42416  1.0000
  H   H5632     1.0  0.81609  0.75956  0.45474  1.0000
  H   H5633     1.0  0.84043  0.69810  0.24899  1.0000
  H   H5634     1.0  0.85980  0.87919  0.28357  1.0000
  Fe  Fe359     1.0  0.81080  0.90972  0.35441  1.0000
  H   H5635     1.0  0.80373  0.77642  0.39484  1.0000
  C   C3193     1.0  0.85708  0.57624  0.19983  1.0000
  C   C3194     1.0  0.86285  0.57843  0.17775  1.0000
  S   S722      1.0  0.85461  0.63100  0.46018  1.0000
  C   C3195     1.0  0.85923  0.69547  0.17785  1.0000
  S   S723      1.0  0.82700  0.67234  0.46963  1.0000
  Fe  Fe360     1.0  0.83837  0.54760  0.32844  1.0000
  H   H5636     1.0  0.86672  0.58327  0.20412  1.0000
  H   H5637     1.0  0.85393  0.57138  0.17249  1.0000
  H   H5638     1.0  0.86093  0.59400  0.17046  1.0000
  H   H5639     1.0  0.87833  0.57150  0.17359  1.0000
  H   H5640     1.0  0.82999  0.66879  0.38068  1.0000
  C   C3196     1.0  0.82158  0.73271  0.44555  1.0000
  H   H5641     1.0  0.83786  0.67124  0.19809  1.0000
  C   C3197     1.0  0.84228  0.72660  0.44910  1.0000
  H   H5642     1.0  0.80680  0.91797  0.26502  1.0000
  H   H5643     1.0  0.82594  0.76135  0.42971  1.0000
  H   H5644     1.0  0.82133  0.72676  0.43306  1.0000
  H   H5645     1.0  0.86218  0.49919  0.29836  1.0000
  H   H5646     1.0  0.88469  0.81640  0.27778  1.0000
  H   H5647     1.0  0.82163  0.75584  0.40276  1.0000
  H   H5648     1.0  0.80777  0.79193  0.45023  1.0000
  H   H5649     1.0  0.81747  0.53566  0.07729  1.0000
  H   H5650     1.0  0.84031  0.89651  0.27397  1.0000
  H   H5651     1.0  0.84403  0.67542  0.22711  1.0000
  N   N175      1.0  0.87900  0.59495  0.35937  1.0000
  C   C3198     1.0  0.89672  0.59029  0.34385  1.0000
  C   C3199     1.0  0.86212  0.60775  0.35055  1.0000
  C   C3200     1.0  0.88431  0.60635  0.37126  1.0000
  C   C3201     1.0  0.87328  0.57681  0.37261  1.0000
  C   C3202     1.0  0.86815  0.56287  0.36277  1.0000
  C   C3203     1.0  0.91423  0.57528  0.35104  1.0000
  C   C3204     1.0  0.86793  0.61351  0.38774  1.0000
  C   C3205     1.0  0.86037  0.60508  0.33063  1.0000
  C   C3206     1.0  0.84185  0.61783  0.32453  1.0000
  C   C3207     1.0  0.93355  0.57898  0.33808  1.0000
  C   C3208     1.0  0.87434  0.62657  0.39726  1.0000
  H   H5652     1.0  0.90146  0.60394  0.33530  1.0000
  H   H5653     1.0  0.89348  0.58411  0.33291  1.0000
  H   H5654     1.0  0.84812  0.60611  0.36087  1.0000
  H   H5655     1.0  0.86261  0.62334  0.34815  1.0000
  H   H5656     1.0  0.88966  0.61927  0.36154  1.0000
  H   H5657     1.0  0.89640  0.59777  0.37847  1.0000
  H   H5658     1.0  0.88476  0.56862  0.38091  1.0000
  H   H5659     1.0  0.86025  0.58054  0.38386  1.0000
  H   H5660     1.0  0.87921  0.55986  0.34972  1.0000
  H   H5661     1.0  0.85387  0.56917  0.35857  1.0000
  H   H5662     1.0  0.91509  0.57504  0.36604  1.0000
  H   H5663     1.0  0.91290  0.56046  0.35091  1.0000
  H   H5664     1.0  0.86428  0.60096  0.39929  1.0000
  H   H5665     1.0  0.85465  0.62181  0.38235  1.0000
  H   H5666     1.0  0.87271  0.60939  0.31913  1.0000
  H   H5667     1.0  0.86022  0.58990  0.33095  1.0000
  H   H5668     1.0  0.84156  0.63337  0.32342  1.0000
  H   H5669     1.0  0.84118  0.61583  0.31009  1.0000
  H   H5670     1.0  0.82889  0.61374  0.33517  1.0000
  H   H5671     1.0  0.93589  0.59327  0.33866  1.0000
  H   H5672     1.0  0.94559  0.56751  0.34309  1.0000
  H   H5673     1.0  0.93393  0.57878  0.32282  1.0000
  H   H5674     1.0  0.88708  0.61856  0.40379  1.0000
  H   H5675     1.0  0.87804  0.63964  0.38653  1.0000
  H   H5676     1.0  0.86238  0.63130  0.40908  1.0000
  H   H5677     1.0  0.82265  0.68622  0.16732  1.0000
  H   H5678     1.0  0.95230  0.72811  0.23023  1.0000
  H   H5679     1.0  0.86893  0.70549  0.17657  1.0000
  H   H5680     1.0  0.86683  0.68109  0.18489  1.0000
  C   C3209     1.0  0.82519  0.56155  0.15425  1.0000
  H   H5681     1.0  0.80272  0.69906  0.18260  1.0000
  H   H5682     1.0  0.85248  0.73465  0.16370  1.0000
  H   H5683     1.0  0.87974  0.68818  0.13068  1.0000
  C   C3210     1.0  0.81097  0.55388  0.14744  1.0000
  C   C3211     1.0  0.79400  0.48568  0.34931  1.0000
  H   H5684     1.0  0.83503  0.60177  0.19918  1.0000
  H   H5685     1.0  0.88121  0.62374  0.98697  1.0000
  C   C3212     1.0  0.80637  0.76067  0.40104  1.0000
  C   C3213     1.0  0.84798  0.49507  0.27767  1.0000
  C   C3214     1.0  0.80264  0.62979  0.02513  1.0000
  C   C3215     1.0  0.80874  0.59864  0.38450  1.0000
  H   H5686     1.0  0.88003  0.57866  0.25763  1.0000
  N   N176      1.0  0.82750  0.58368  0.22752  1.0000
  H   H5687     1.0  0.79325  0.74002  0.42426  1.0000
  C   C3216     1.0  0.87583  0.80507  0.28316  1.0000
  C   C3217     1.0  0.88797  0.78669  0.27632  1.0000
  H   H5688     1.0  0.81760  0.82024  0.27985  1.0000
  H   H5689     1.0  0.81745  0.57363  0.16178  1.0000
  H   H5690     1.0  0.82669  0.58140  0.19863  1.0000
  C   C3218     1.0  0.79310  0.97732  0.25717  1.0000
  S   S724      1.0  0.83346  0.88449  0.36493  1.0000
  S   S725      1.0  0.80049  0.93715  0.36629  1.0000
  C   C3219     1.0  0.79211  0.75596  0.42069  1.0000
  H   H5691     1.0  0.82423  0.94596  0.26134  1.0000
  H   H5692     1.0  0.81463  0.63152  0.40761  1.0000
  C   C3220     1.0  0.82730  0.56269  0.23713  1.0000
  H   H5693     1.0  0.84259  0.79367  0.31190  1.0000
  C   C3221     1.0  0.82473  0.83293  0.27439  1.0000
  C   C3222     1.0  0.83093  0.80639  0.31465  1.0000
  H   H5694     1.0  0.85332  0.59752  0.01332  1.0000
  H   H5695     1.0  0.82866  0.59730  0.25037  1.0000
  H   H5696     1.0  0.86559  0.56934  0.23519  1.0000
  H   H5697     1.0  0.81342  0.81718  0.34042  1.0000
  H   H5698     1.0  0.84952  0.49081  0.38413  1.0000
  H   H5699     1.0  0.86152  0.67890  0.25021  1.0000
  H   H5700     1.0  0.82127  0.71039  0.13548  1.0000
  H   H5701     1.0  0.80991  0.93628  0.24337  1.0000
  H   H5702     1.0  0.83682  0.49928  0.30672  1.0000
  S   S726      1.0  0.80808  0.63509  0.47219  1.0000
  H   H5703     1.0  0.79754  0.53098  0.99251  1.0000
  C   C3223     1.0  0.85679  0.81193  0.27529  1.0000
  C   C3224     1.0  0.83762  0.82568  0.30406  1.0000
  H   H5704     1.0  0.84985  0.82639  0.31025  1.0000
  H   H5705     1.0  0.86422  0.84477  0.28308  1.0000
  H   H5706     1.0  0.84325  0.73150  0.46200  1.0000
  H   H5707     1.0  0.96751  0.71191  0.38588  1.0000
  C   C3225     1.0  0.79964  0.57012  0.13372  1.0000
  H   H5708     1.0  0.80872  0.64350  0.06445  1.0000
  H   H5709     1.0  0.84959  0.70564  0.14962  1.0000
  H   H5710     1.0  0.95065  0.77757  0.25406  1.0000
  H   H5711     1.0  0.81806  0.80524  0.30990  1.0000
  H   H5712     1.0  0.84136  0.74211  0.18651  1.0000
  C   C3226     1.0  0.86650  0.54343  0.37669  1.0000
  N   N177      1.0  0.97586  0.72009  0.24552  1.0000
  S   S727      1.0  0.79828  0.60875  0.17713  1.0000
  H   H5713     1.0  0.85503  0.49439  0.33157  1.0000
  H   H5714     1.0  0.81548  0.93620  0.28565  1.0000
  Fe  Fe361     1.0  0.81364  0.86609  0.36343  1.0000
  H   H5715     1.0  0.88646  0.48890  0.32447  1.0000
  C   C3227     1.0  0.83846  0.59201  0.23744  1.0000
  H   H5716     1.0  0.82131  0.56156  0.25304  1.0000
  C   C3228     1.0  0.81564  0.55229  0.22941  1.0000
  H   H5717     1.0  0.93960  0.76993  0.27912  1.0000
  H   H5718     1.0  0.82413  0.71879  0.16779  1.0000
  H   H5719     1.0  0.81503  0.54483  0.99156  1.0000
  H   H5720     1.0  0.83815  0.80542  0.34231  1.0000
  H   H5721     1.0  0.81435  0.72469  0.19086  1.0000
  C   C3229     1.0  0.81649  0.53132  0.24057  1.0000
  C   C3230     1.0  0.81201  0.53414  0.98486  1.0000
  C   C3231     1.0  0.79937  0.72912  0.11959  1.0000
  H   H5722     1.0  0.83161  0.52288  0.23840  1.0000
  C   C3232     1.0  0.79895  0.92993  0.25514  1.0000
  S   S728      1.0  0.82688  0.86334  0.33264  1.0000
  C   C3233     1.0  0.82520  0.96347  0.28039  1.0000
  N   N178      1.0  0.89935  0.84806  0.37343  1.0000
  C   C3234     1.0  0.88834  0.83181  0.38215  1.0000
  C   C3235     1.0  0.90969  0.85052  0.38800  1.0000
  C   C3236     1.0  0.88470  0.86660  0.36882  1.0000
  C   C3237     1.0  0.91342  0.84493  0.35477  1.0000
  C   C3238     1.0  0.92971  0.82659  0.35628  1.0000
  C   C3239     1.0  0.87702  0.82746  0.36892  1.0000
  C   C3240     1.0  0.89272  0.88563  0.36150  1.0000
  H   H5723     1.0  0.97109  0.71839  0.35004  1.0000
  C   C3241     1.0  0.94109  0.82351  0.33617  1.0000
  C   C3242     1.0  0.86651  0.81085  0.37944  1.0000
  C   C3243     1.0  0.87632  0.90357  0.36042  1.0000
  H   H5724     1.0  0.87782  0.83494  0.39563  1.0000
  H   H5725     1.0  0.89812  0.81788  0.38679  1.0000
  H   H5726     1.0  0.92207  0.85779  0.38031  1.0000
  H   H5727     1.0  0.89984  0.86036  0.39749  1.0000
  H   H5728     1.0  0.87290  0.86837  0.38183  1.0000
  H   H5729     1.0  0.87757  0.86601  0.35726  1.0000
  H   H5730     1.0  0.90558  0.84497  0.34350  1.0000
  H   H5731     1.0  0.92097  0.85726  0.34846  1.0000
  H   H5732     1.0  0.92392  0.81339  0.36382  1.0000
  H   H5733     1.0  0.94015  0.82826  0.36418  1.0000
  H   H5734     1.0  0.86582  0.84019  0.36439  1.0000
  H   H5735     1.0  0.88711  0.82297  0.35589  1.0000
  H   H5736     1.0  0.90177  0.88608  0.34665  1.0000
  H   H5737     1.0  0.90159  0.88709  0.37115  1.0000
  H   H5738     1.0  0.90499  0.82680  0.41324  1.0000
  H   H5739     1.0  0.82313  0.75275  0.15044  1.0000
  H   H5740     1.0  0.93160  0.82076  0.32787  1.0000
  Fe  Fe362     1.0  0.80448  0.88983  0.32525  1.0000
  H   H5741     1.0  0.95312  0.81070  0.33771  1.0000
  H   H5742     1.0  0.87699  0.79732  0.38387  1.0000
  H   H5743     1.0  0.85574  0.81467  0.39245  1.0000
  H   H5744     1.0  0.85865  0.80803  0.36955  1.0000
  H   H5745     1.0  0.86769  0.90371  0.34981  1.0000
  N   N179      1.0  0.87629  0.69298  0.34461  1.0000
  C   C3244     1.0  0.87559  0.68516  0.32755  1.0000
  C   C3245     1.0  0.87413  0.71485  0.33915  1.0000
  C   C3246     1.0  0.89607  0.68437  0.34956  1.0000
  C   C3247     1.0  0.86124  0.68715  0.36229  1.0000
  C   C3248     1.0  0.83988  0.69365  0.36001  1.0000
  C   C3249     1.0  0.87795  0.66284  0.33085  1.0000
  C   C3250     1.0  0.90073  0.69198  0.36555  1.0000
  C   C3251     1.0  0.86076  0.72623  0.32460  1.0000
  C   C3252     1.0  0.85608  0.74799  0.32416  1.0000
  C   C3253     1.0  0.82639  0.68489  0.37809  1.0000
  C   C3254     1.0  0.87690  0.65692  0.31252  1.0000
  C   C3255     1.0  0.92142  0.68310  0.36846  1.0000
  H   H5746     1.0  0.88708  0.68958  0.31505  1.0000
  H   H5747     1.0  0.86185  0.69158  0.32235  1.0000
  H   H5748     1.0  0.86915  0.72111  0.35246  1.0000
  H   H5749     1.0  0.88848  0.71886  0.33219  1.0000
  H   H5750     1.0  0.90762  0.68682  0.33630  1.0000
  H   H5751     1.0  0.89798  0.66843  0.35486  1.0000
  H   H5752     1.0  0.86439  0.67120  0.36775  1.0000
  H   H5753     1.0  0.86193  0.69332  0.37445  1.0000
  H   H5754     1.0  0.83761  0.68920  0.34743  1.0000
  H   H5755     1.0  0.83535  0.70963  0.35834  1.0000
  H   H5756     1.0  0.89220  0.65510  0.33443  1.0000
  H   H5757     1.0  0.86628  0.65771  0.34271  1.0000
  H   H5758     1.0  0.89102  0.68787  0.37967  1.0000
  H   H5759     1.0  0.89918  0.70796  0.36188  1.0000
  H   H5760     1.0  0.86815  0.72404  0.30971  1.0000
  H   H5761     1.0  0.84684  0.72145  0.32805  1.0000
  H   H5762     1.0  0.86953  0.75383  0.31949  1.0000
  H   H5763     1.0  0.84649  0.75565  0.31369  1.0000
  H   H5764     1.0  0.84854  0.75096  0.33876  1.0000
  H   H5765     1.0  0.95516  0.73594  0.27850  1.0000
  H   H5766     1.0  0.82749  0.68963  0.39104  1.0000
  H   H5767     1.0  0.81117  0.68992  0.37609  1.0000
  H   H5768     1.0  0.87859  0.64098  0.31518  1.0000
  H   H5769     1.0  0.86281  0.66389  0.30809  1.0000
  H   H5770     1.0  0.88884  0.66104  0.30041  1.0000
  H   H5771     1.0  0.92374  0.66703  0.37240  1.0000
  H   H5772     1.0  0.93204  0.68751  0.35506  1.0000
  H   H5773     1.0  0.92396  0.68829  0.38049  1.0000
  H   H5774     1.0  0.81069  0.53081  0.25635  1.0000
  H   H5775     1.0  0.94579  0.71731  0.25526  1.0000
  C   C3256     1.0  0.79899  0.54957  0.11116  1.0000
  H   H5776     1.0  0.83867  0.54594  0.07227  1.0000
  H   H5777     1.0  0.88247  0.91688  0.35549  1.0000
  H   H5778     1.0  0.86026  0.84744  0.25955  1.0000
  C   C3257     1.0  0.82590  0.75572  0.16362  1.0000
  H   H5779     1.0  0.83948  0.60124  0.98774  1.0000
  N   N180      1.0  0.84296  0.82922  0.28215  1.0000
  H   H5780     1.0  0.80747  0.52441  0.23526  1.0000
  H   H5781     1.0  0.84943  0.79948  0.27868  1.0000
  H   H5782     1.0  0.94013  0.74637  0.26061  1.0000
  C   C3258     1.0  0.85481  0.69209  0.24071  1.0000
  H   H5783     1.0  0.88012  0.77455  0.28218  1.0000
  H   H5784     1.0  0.83812  0.63399  0.98202  1.0000
  C   C3259     1.0  0.85258  0.84652  0.27499  1.0000
  H   H5785     1.0  0.81189  0.75990  0.17353  1.0000
  H   H5786     1.0  0.86430  0.70281  0.23691  1.0000
  C   C3260     1.0  0.82736  0.83730  0.25193  1.0000
  C   C3261     1.0  0.85275  0.68685  0.22239  1.0000
  H   H5787     1.0  0.80763  0.73474  0.39081  1.0000
  C   C3262     1.0  0.81422  0.95542  0.35631  1.0000
  H   H5788     1.0  0.81375  0.75498  0.37192  1.0000
  H   H5789     1.0  0.92738  0.70273  0.23884  1.0000
  C   C3263     1.0  0.85923  0.69338  0.15720  1.0000
  C   C3264     1.0  0.95244  0.76654  0.26757  1.0000
  C   C3265     1.0  0.94113  0.69732  0.22925  1.0000
  H   H5790     1.0  0.95347  0.69885  0.37885  1.0000
  H   H5791     1.0  0.79865  0.59850  0.46511  1.0000
  H   H5792     1.0  0.85967  0.88379  0.25790  1.0000
  H   H5793     1.0  0.79664  0.96674  0.23059  1.0000
  H   H5794     1.0  0.86136  0.81521  0.25919  1.0000
  C   C3266     1.0  0.83897  0.86654  0.27668  1.0000
  H   H5795     1.0  0.83612  0.84853  0.24481  1.0000
  H   H5796     1.0  0.83464  0.48362  0.34076  1.0000
  H   H5797     1.0  0.84847  0.62351  0.00977  1.0000
  H   H5798     1.0  0.79549  0.73005  0.10550  1.0000
  H   H5799     1.0  0.95813  0.68533  0.25117  1.0000
  H   H5800     1.0  0.84394  0.94057  0.29710  1.0000
  H   H5801     1.0  0.94103  0.68255  0.22800  1.0000
  C   C3267     1.0  0.83003  0.95361  0.34079  1.0000
  C   C3268     1.0  0.85047  0.88243  0.27274  1.0000
  H   H5802     1.0  0.85290  0.71550  0.20536  1.0000
  H   H5803     1.0  0.81227  0.72596  0.45877  1.0000
  H   H5804     1.0  0.82153  0.55202  0.21381  1.0000
  H   H5805     1.0  0.82592  0.56100  0.10081  1.0000
  H   H5806     1.0  0.97579  0.68616  0.38642  1.0000
  H   H5807     1.0  0.80571  0.53590  0.11998  1.0000
  H   H5808     1.0  0.82930  0.71155  0.21760  1.0000
  H   H5809     1.0  0.86086  0.60775  0.03961  1.0000
  H   H5810     1.0  0.79797  0.82250  0.42747  1.0000
  H   H5811     1.0  0.80994  0.84641  0.22972  1.0000
  C   C3269     1.0  0.79925  0.48921  0.32903  1.0000
  H   H5812     1.0  0.83341  0.76812  0.15906  1.0000
  H   H5813     1.0  0.83466  0.82391  0.24629  1.0000
  C   C3270     1.0  0.80779  0.84446  0.24573  1.0000
  H   H5814     1.0  0.80092  0.50353  0.32098  1.0000
  C   C3271     1.0  0.93045  0.83617  0.41362  1.0000
  C   C3272     1.0  0.80777  0.61660  0.38886  1.0000
  H   H5815     1.0  0.85465  0.67973  0.15815  1.0000
  H   H5816     1.0  0.83070  0.49860  0.37023  1.0000
  Fe  Fe363     1.0  0.80479  0.57263  0.35076  1.0000
  C   C3273     1.0  0.84661  0.49415  0.36923  1.0000
  H   H5817     1.0  0.81124  0.69803  0.12300  1.0000
  H   H5818     1.0  0.97203  0.62450  0.24353  1.0000
  C   C3274     1.0  0.80339  0.61716  0.22444  1.0000
  H   H5819     1.0  0.81619  0.65494  0.18789  1.0000
  C   C3275     1.0  0.84520  0.95274  0.28434  1.0000
  H   H5820     1.0  0.85249  0.96286  0.28753  1.0000
  H   H5821     1.0  0.97850  0.78231  0.33324  1.0000
  C   C3276     1.0  0.80248  0.64185  0.03746  1.0000
  C   C3277     1.0  0.86329  0.57746  0.98047  1.0000
  N   N181      1.0  0.79486  0.76307  0.43740  1.0000
  H   H5822     1.0  0.83396  0.52781  0.09403  1.0000
  H   H5823     1.0  0.79788  0.94772  0.31383  1.0000
  C   C3278     1.0  0.91737  0.83201  0.40243  1.0000
  H   H5824     1.0  0.79705  0.90863  0.23991  1.0000
  C   C3279     1.0  0.95759  0.71648  0.24217  1.0000
  C   C3280     1.0  0.86014  0.61034  0.00941  1.0000
  S   S729      1.0  0.80282  0.59177  0.98304  1.0000
  S   S730      1.0  0.79111  0.50400  0.36240  1.0000
  H   H5825     1.0  0.83828  0.56598  0.99864  1.0000
  C   C3281     1.0  0.83855  0.73796  0.17400  1.0000
  H   H5826     1.0  0.92574  0.82002  0.39507  1.0000
  H   H5827     1.0  0.79741  0.65734  0.03336  1.0000
  C   C3282     1.0  0.97155  0.74074  0.24834  1.0000
  H   H5828     1.0  0.92252  0.84777  0.42177  1.0000
  C   C3283     1.0  0.95857  0.69663  0.23757  1.0000
  C   C3284     1.0  0.98174  0.70656  0.26358  1.0000
  C   C3285     1.0  0.81559  0.55651  0.09482  1.0000
  C   C3286     1.0  0.80912  0.97215  0.36411  1.0000
  H   H5829     1.0  0.80999  0.57845  0.12293  1.0000
  H   H5830     1.0  0.80970  0.56880  0.08392  1.0000
  H   H5831     1.0  0.84460  0.51087  0.27149  1.0000
  H   H5832     1.0  0.96862  0.70400  0.27488  1.0000
  H   H5833     1.0  0.79242  0.70477  0.98061  1.0000
  H   H5834     1.0  0.96549  0.76744  0.27225  1.0000
  H   H5835     1.0  0.98304  0.67076  0.28998  1.0000
  C   C3287     1.0  0.79219  0.78489  0.43155  1.0000
  C   C3288     1.0  0.98786  0.76487  0.35923  1.0000
  H   H5836     1.0  0.98571  0.72726  0.21437  1.0000
  H   H5837     1.0  0.79726  0.66741  0.20458  1.0000
  H   H5838     1.0  0.97899  0.69278  0.35036  1.0000
  H   H5839     1.0  0.79060  0.58048  0.14293  1.0000
  C   C3289     1.0  0.79372  0.54040  0.80344  1.0000
  C   C3290     1.0  0.80627  0.52862  0.95390  1.0000
  H   H5840     1.0  0.84058  0.78215  0.61628  1.0000
  H   H5841     1.0  0.80979  0.50196  0.67636  1.0000
  C   C3291     1.0  0.82944  0.66069  0.95061  1.0000
  H   H5842     1.0  0.91711  0.77688  0.63906  1.0000
  H   H5843     1.0  0.81642  0.74361  0.58592  1.0000
  C   C3292     1.0  0.79842  0.79108  0.56651  1.0000
  H   H5844     1.0  0.81464  0.51216  0.84087  1.0000
  H   H5845     1.0  0.85762  0.74029  0.71762  1.0000
  S   S731      1.0  0.82078  0.82778  0.71590  1.0000
  S   S732      1.0  0.81514  0.86263  0.66450  1.0000
  Fe  Fe364     1.0  0.82289  0.68270  0.62580  1.0000
  S   S733      1.0  0.83742  0.70416  0.60254  1.0000
  C   C3293     1.0  0.80433  0.52301  0.83339  1.0000
  Fe  Fe365     1.0  0.86060  0.65456  0.63038  1.0000
  S   S734      1.0  0.87818  0.67382  0.60712  1.0000
  S   S735      1.0  0.87768  0.62724  0.64611  1.0000
  Fe  Fe366     1.0  0.85914  0.69790  0.62128  1.0000
  S   S736      1.0  0.86831  0.72350  0.62572  1.0000
  Fe  Fe367     1.0  0.85474  0.67816  0.59049  1.0000
  S   S737      1.0  0.86131  0.68084  0.55787  1.0000
  S   S738      1.0  0.84321  0.67845  0.64580  1.0000
  S   S739      1.0  0.83863  0.65698  0.61259  1.0000
  Fe  Fe368     1.0  0.92485  0.76724  0.69561  1.0000
  S   S740      1.0  0.94308  0.74950  0.67384  1.0000
  S   S741      1.0  0.90946  0.79692  0.68235  1.0000
  Fe  Fe369     1.0  0.93634  0.73627  0.72952  1.0000
  S   S742      1.0  0.95559  0.71635  0.71045  1.0000
  S   S743      1.0  0.93360  0.72549  0.76178  1.0000
  Fe  Fe370     1.0  0.96576  0.74275  0.69174  1.0000
  Fe  Fe371     1.0  0.93127  0.72468  0.69444  1.0000
  S   S744      1.0  0.92327  0.70050  0.68602  1.0000
  S   S745      1.0  0.94857  0.76235  0.71214  1.0000
  S   S746      1.0  0.91111  0.74281  0.71489  1.0000
  Fe  Fe372     1.0  0.80733  0.60178  0.95063  1.0000
  S   S747      1.0  0.83430  0.58616  0.93321  1.0000
  H   H5846     1.0  0.79975  0.75315  0.57011  1.0000
  S   S748      1.0  0.82962  0.51835  0.73851  1.0000
  Fe  Fe373     1.0  0.86840  0.53996  0.74923  1.0000
  S   S749      1.0  0.84095  0.55807  0.74038  1.0000
  S   S750      1.0  0.88674  0.55978  0.75185  1.0000
  Fe  Fe374     1.0  0.82624  0.53535  0.76108  1.0000
  H   H5847     1.0  0.81506  0.68909  0.53255  1.0000
  Fe  Fe375     1.0  0.84679  0.53978  0.71846  1.0000
  S   S751      1.0  0.83934  0.55463  0.68913  1.0000
  S   S752      1.0  0.87534  0.52265  0.72570  1.0000
  Fe  Fe376     1.0  0.95948  0.59474  0.84138  1.0000
  S   S753      1.0  0.94378  0.62571  0.83439  1.0000
  Fe  Fe377     1.0  0.92888  0.57928  0.83042  1.0000
  S   S754      1.0  0.91108  0.60898  0.82300  1.0000
  S   S755      1.0  0.91792  0.55377  0.82775  1.0000
  Fe  Fe378     1.0  0.93949  0.61757  0.80831  1.0000
  S   S756      1.0  0.94192  0.63482  0.77767  1.0000
  Fe  Fe379     1.0  0.91678  0.61420  0.84987  1.0000
  S   S757      1.0  0.89260  0.63170  0.86872  1.0000
  S   S758      1.0  0.95722  0.58736  0.81389  1.0000
  S   S759      1.0  0.93260  0.58367  0.85876  1.0000
  H   H5848     1.0  0.83054  0.55107  0.92226  1.0000
  C   C3294     1.0  0.80103  0.94116  0.70741  1.0000
  S   S760      1.0  0.82955  0.63168  0.51684  1.0000
  C   C3295     1.0  0.89582  0.55751  0.77282  1.0000
  C   C3296     1.0  0.89783  0.54019  0.78666  1.0000
  C   C3297     1.0  0.90476  0.53916  0.80338  1.0000
  C   C3298     1.0  0.90995  0.55534  0.80626  1.0000
  C   C3299     1.0  0.90820  0.57256  0.79224  1.0000
  C   C3300     1.0  0.90117  0.57361  0.77562  1.0000
  H   H5849     1.0  0.80747  0.86006  0.74076  1.0000
  H   H5850     1.0  0.90620  0.52575  0.81409  1.0000
  H   H5851     1.0  0.91231  0.58507  0.79418  1.0000
  H   H5852     1.0  0.89977  0.58698  0.76490  1.0000
  C   C3301     1.0  0.85005  0.59919  0.91513  1.0000
  C   C3302     1.0  0.84607  0.61946  0.91052  1.0000
  C   C3303     1.0  0.85927  0.62934  0.89631  1.0000
  C   C3304     1.0  0.87629  0.61899  0.88642  1.0000
  C   C3305     1.0  0.88008  0.59874  0.89086  1.0000
  C   C3306     1.0  0.86705  0.58888  0.90525  1.0000
  H   H5853     1.0  0.83280  0.62751  0.91779  1.0000
  H   H5854     1.0  0.85622  0.64502  0.89285  1.0000
  H   H5855     1.0  0.89314  0.59065  0.88333  1.0000
  H   H5856     1.0  0.87021  0.57320  0.90874  1.0000
  H   H5857     1.0  0.84959  0.49918  0.68514  1.0000
  H   H5858     1.0  0.84968  0.74037  0.68601  1.0000
  C   C3307     1.0  0.80734  0.52672  0.81304  1.0000
  C   C3308     1.0  0.83044  0.78849  0.66268  1.0000
  H   H5859     1.0  0.81996  0.51873  0.80484  1.0000
  C   C3309     1.0  0.93485  0.70041  0.76694  1.0000
  C   C3310     1.0  0.93178  0.69169  0.75329  1.0000
  C   C3311     1.0  0.93421  0.67152  0.75669  1.0000
  C   C3312     1.0  0.93899  0.66000  0.77408  1.0000
  C   C3313     1.0  0.94137  0.66872  0.78810  1.0000
  C   C3314     1.0  0.93941  0.68895  0.78447  1.0000
  H   H5860     1.0  0.92745  0.70045  0.74009  1.0000
  H   H5861     1.0  0.93219  0.66485  0.74586  1.0000
  H   H5862     1.0  0.94520  0.65985  0.80149  1.0000
  H   H5863     1.0  0.94181  0.69566  0.79506  1.0000
  H   H5864     1.0  0.84258  0.75632  0.56187  1.0000
  H   H5865     1.0  0.82033  0.73849  0.54255  1.0000
  C   C3315     1.0  0.85264  0.66675  0.54681  1.0000
  C   C3316     1.0  0.84201  0.65272  0.55782  1.0000
  C   C3317     1.0  0.83529  0.64179  0.54849  1.0000
  C   C3318     1.0  0.83893  0.64501  0.52811  1.0000
  C   C3319     1.0  0.84962  0.65899  0.51713  1.0000
  C   C3320     1.0  0.85650  0.66975  0.52646  1.0000
  H   H5866     1.0  0.83888  0.65042  0.57346  1.0000
  H   H5867     1.0  0.82697  0.63104  0.55705  1.0000
  C   C3321     1.0  0.82084  0.49505  0.68544  1.0000
  H   H5868     1.0  0.86478  0.68053  0.51784  1.0000
  C   C3322     1.0  0.86642  0.60750  0.65825  1.0000
  C   C3323     1.0  0.84784  0.60724  0.65648  1.0000
  C   C3324     1.0  0.83959  0.59094  0.66597  1.0000
  C   C3325     1.0  0.84966  0.57511  0.67765  1.0000
  C   C3326     1.0  0.86813  0.57552  0.67957  1.0000
  C   C3327     1.0  0.87658  0.59152  0.66963  1.0000
  H   H5869     1.0  0.83988  0.61950  0.64775  1.0000
  H   H5870     1.0  0.82527  0.59068  0.66447  1.0000
  H   H5871     1.0  0.87605  0.56332  0.68843  1.0000
  H   H5872     1.0  0.89107  0.59148  0.67077  1.0000
  C   C3328     1.0  0.88270  0.71712  0.64327  1.0000
  C   C3329     1.0  0.88752  0.73165  0.64944  1.0000
  C   C3330     1.0  0.89964  0.72670  0.66295  1.0000
  C   C3331     1.0  0.90704  0.70720  0.67019  1.0000
  C   C3332     1.0  0.90214  0.69270  0.66406  1.0000
  C   C3333     1.0  0.88988  0.69764  0.65072  1.0000
  H   H5873     1.0  0.88204  0.74674  0.64362  1.0000
  H   H5874     1.0  0.90351  0.73795  0.66754  1.0000
  H   H5875     1.0  0.90800  0.67763  0.66948  1.0000
  H   H5876     1.0  0.88630  0.68639  0.64588  1.0000
  C   C3334     1.0  0.84552  0.81945  0.70673  1.0000
  C   C3335     1.0  0.85509  0.82931  0.68926  1.0000
  C   C3336     1.0  0.87475  0.82232  0.68204  1.0000
  C   C3337     1.0  0.88493  0.80533  0.69215  1.0000
  C   C3338     1.0  0.87545  0.79556  0.70976  1.0000
  C   C3339     1.0  0.85579  0.80266  0.71705  1.0000
  H   H5877     1.0  0.84742  0.84236  0.68133  1.0000
  H   H5878     1.0  0.88206  0.83000  0.66848  1.0000
  H   H5879     1.0  0.88331  0.78264  0.71781  1.0000
  H   H5880     1.0  0.84850  0.79506  0.73068  1.0000
  H   H5881     1.0  0.97940  0.69666  0.62916  1.0000
  H   H5882     1.0  0.88403  0.64238  0.94616  1.0000
  H   H5883     1.0  0.89401  0.52762  0.78450  1.0000
  H   H5884     1.0  0.80547  0.69614  0.59369  1.0000
  C   C3340     1.0  0.97521  0.74716  0.76394  1.0000
  H   H5885     1.0  0.81253  0.61357  0.60288  1.0000
  H   H5886     1.0  0.85879  0.56661  0.54973  1.0000
  C   C3341     1.0  0.80855  0.95340  0.66710  1.0000
  C   C3342     1.0  0.80292  0.51822  0.92584  1.0000
  C   C3343     1.0  0.79407  0.55331  0.92770  1.0000
  H   H5887     1.0  0.97190  0.71483  0.59690  1.0000
  S   S761      1.0  0.80929  0.97309  0.71457  1.0000
  H   H5888     1.0  0.84247  0.56519  0.97313  1.0000
  C   C3344     1.0  0.81250  0.70826  0.50515  1.0000
  H   H5889     1.0  0.90067  0.65333  0.57121  1.0000
  H   H5890     1.0  0.93458  0.62449  0.74377  1.0000
  H   H5891     1.0  0.80557  0.79088  0.61475  1.0000
  H   H5892     1.0  0.83285  0.78201  0.57663  1.0000
  H   H5893     1.0  0.84921  0.58966  0.57146  1.0000
  H   H5894     1.0  0.97912  0.67775  0.78205  1.0000
  C   C3345     1.0  0.79959  0.92924  0.69556  1.0000
  H   H5895     1.0  0.87513  0.50526  0.82229  1.0000
  H   H5896     1.0  0.85826  0.55383  0.57458  1.0000
  H   H5897     1.0  0.97695  0.70790  0.76491  1.0000
  H   H5898     1.0  0.84625  0.60034  0.96287  1.0000
  H   H5899     1.0  0.84588  0.73855  0.53641  1.0000
  N   N182      1.0  0.85764  0.88933  0.69716  1.0000
  C   C3346     1.0  0.84104  0.88894  0.71451  1.0000
  C   C3347     1.0  0.86748  0.90548  0.69629  1.0000
  C   C3348     1.0  0.84966  0.89250  0.67912  1.0000
  C   C3349     1.0  0.87228  0.87047  0.69869  1.0000
  C   C3350     1.0  0.88081  0.86371  0.71737  1.0000
  C   C3351     1.0  0.83134  0.87113  0.72003  1.0000
  C   C3352     1.0  0.86444  0.89510  0.65951  1.0000
  C   C3353     1.0  0.85516  0.92634  0.69204  1.0000
  H   H5900     1.0  0.87961  0.94087  0.67996  1.0000
  C   C3354     1.0  0.89321  0.84322  0.71838  1.0000
  H   H5901     1.0  0.82616  0.72809  0.64532  1.0000
  C   C3355     1.0  0.85437  0.90033  0.64229  1.0000
  H   H5902     1.0  0.82933  0.90191  0.71196  1.0000
  H   H5903     1.0  0.84560  0.89005  0.72760  1.0000
  H   H5904     1.0  0.87178  0.90374  0.71037  1.0000
  H   H5905     1.0  0.88134  0.90468  0.68539  1.0000
  H   H5906     1.0  0.83732  0.90514  0.67854  1.0000
  H   H5907     1.0  0.84332  0.88003  0.67952  1.0000
  H   H5908     1.0  0.86600  0.85867  0.69725  1.0000
  H   H5909     1.0  0.88492  0.87137  0.68635  1.0000
  H   H5910     1.0  0.86935  0.86343  0.73073  1.0000
  H   H5911     1.0  0.89016  0.87352  0.71746  1.0000
  H   H5912     1.0  0.82567  0.86990  0.70776  1.0000
  H   H5913     1.0  0.84168  0.85743  0.72415  1.0000
  H   H5914     1.0  0.87525  0.88143  0.65829  1.0000
  H   H5915     1.0  0.87217  0.90683  0.65794  1.0000
  H   H5916     1.0  0.86705  0.52971  0.90388  1.0000
  H   H5917     1.0  0.84188  0.92817  0.70347  1.0000
  H   H5918     1.0  0.88286  0.60289  0.70389  1.0000
  H   H5919     1.0  0.82617  0.93252  0.76977  1.0000
  N   N183      1.0  0.79631  0.48651  0.71785  1.0000
  H   H5920     1.0  0.89970  0.83883  0.73151  1.0000
  H   H5921     1.0  0.88420  0.83269  0.71930  1.0000
  H   H5922     1.0  0.90512  0.84256  0.70536  1.0000
  H   H5923     1.0  0.80328  0.88613  0.73395  1.0000
  C   C3356     1.0  0.81222  0.49733  0.70669  1.0000
  C   C3357     1.0  0.80616  0.95929  0.69917  1.0000
  H   H5924     1.0  0.84466  0.91486  0.64179  1.0000
  H   H5925     1.0  0.86535  0.90078  0.62852  1.0000
  H   H5926     1.0  0.84573  0.88944  0.64331  1.0000
  N   N184      1.0  0.94977  0.72751  0.61900  1.0000
  C   C3358     1.0  0.95659  0.72116  0.63803  1.0000
  C   C3359     1.0  0.93541  0.74658  0.61904  1.0000
  C   C3360     1.0  0.93910  0.71259  0.61810  1.0000
  C   C3361     1.0  0.90543  0.62581  0.92722  1.0000
  H   H5927     1.0  0.80443  0.52116  0.90982  1.0000
  H   H5928     1.0  0.82437  0.49307  0.71463  1.0000
  C   C3362     1.0  0.92808  0.71771  0.60120  1.0000
  C   C3363     1.0  0.80587  0.69207  0.52165  1.0000
  H   H5929     1.0  0.98020  0.74864  0.60974  1.0000
  N   N185      1.0  0.82073  0.77650  0.68104  1.0000
  C   C3364     1.0  0.92190  0.70000  0.59900  1.0000
  H   H5930     1.0  0.94390  0.72216  0.65034  1.0000
  H   H5931     1.0  0.80410  0.71140  0.49355  1.0000
  H   H5932     1.0  0.89635  0.62872  0.91619  1.0000
  H   H5933     1.0  0.92288  0.74472  0.63134  1.0000
  H   H5934     1.0  0.92832  0.70960  0.63183  1.0000
  H   H5935     1.0  0.94931  0.69847  0.61698  1.0000
  H   H5936     1.0  0.80211  0.48765  0.74527  1.0000
  C   C3365     1.0  0.92625  0.78104  0.62448  1.0000
  H   H5937     1.0  0.78980  0.48414  0.93105  1.0000
  H   H5938     1.0  0.81171  0.95813  0.65146  1.0000
  C   C3366     1.0  0.82298  0.56354  0.83659  1.0000
  H   H5939     1.0  0.90748  0.56827  0.60303  1.0000
  H   H5940     1.0  0.82650  0.75869  0.70854  1.0000
  H   H5941     1.0  0.91461  0.72877  0.60418  1.0000
  C   C3367     1.0  0.80972  0.96545  0.67895  1.0000
  C   C3368     1.0  0.81437  0.87281  0.73735  1.0000
  C   C3369     1.0  0.81313  0.76117  0.67623  1.0000
  C   C3370     1.0  0.79075  0.58406  0.84905  1.0000
  H   H5942     1.0  0.79434  0.72150  0.56671  1.0000
  H   H5943     1.0  0.88999  0.59776  0.95650  1.0000
  H   H5944     1.0  0.87327  0.61177  0.94196  1.0000
  C   C3371     1.0  0.81895  0.73328  0.65900  1.0000
  H   H5945     1.0  0.98690  0.68169  0.66185  1.0000
  C   C3372     1.0  0.81818  0.60725  0.61646  1.0000
  H   H5946     1.0  0.91325  0.70433  0.58745  1.0000
  H   H5947     1.0  0.82844  0.76441  0.59813  1.0000
  H   H5948     1.0  0.83694  0.82391  0.63732  1.0000
  H   H5949     1.0  0.81089  0.79771  0.55773  1.0000
  C   C3373     1.0  0.87548  0.61827  0.70378  1.0000
  H   H5950     1.0  0.81412  0.55931  0.82861  1.0000
  H   H5951     1.0  0.81693  0.65975  0.96305  1.0000
  C   C3374     1.0  0.83335  0.57456  0.79203  1.0000
  C   C3375     1.0  0.83540  0.59039  0.77366  1.0000
  N   N186      1.0  0.87356  0.59687  0.59316  1.0000
  H   H5952     1.0  0.84035  0.53843  0.81430  1.0000
  H   H5953     1.0  0.83838  0.56044  0.78738  1.0000
  H   H5954     1.0  0.81770  0.57629  0.79876  1.0000
  H   H5955     1.0  0.85227  0.61913  0.60573  1.0000
  H   H5956     1.0  0.85538  0.55308  0.89177  1.0000
  H   H5957     1.0  0.83037  0.80758  0.61554  1.0000
  C   C3376     1.0  0.92290  0.61783  0.74269  1.0000
  H   H5958     1.0  0.84560  0.79987  0.59406  1.0000
  Fe  Fe380     1.0  0.85746  0.50251  0.74779  1.0000
  C   C3377     1.0  0.82131  0.77806  0.58937  1.0000
  S   S762      1.0  0.85302  0.51846  0.77202  1.0000
  H   H5959     1.0  0.98262  0.74722  0.77550  1.0000
  H   H5960     1.0  0.80428  0.75493  0.62192  1.0000
  C   C3378     1.0  0.86567  0.74697  0.70336  1.0000
  C   C3379     1.0  0.87980  0.61199  0.95419  1.0000
  C   C3380     1.0  0.85907  0.58568  0.83572  1.0000
  H   H5961     1.0  0.86151  0.76071  0.67447  1.0000
  Fe  Fe381     1.0  0.80352  0.85049  0.69568  1.0000
  H   H5962     1.0  0.90863  0.59068  0.63311  1.0000
  C   C3381     1.0  0.85663  0.56470  0.83747  1.0000
  H   H5963     1.0  0.94271  0.59936  0.66267  1.0000
  C   C3382     1.0  0.79152  0.75451  0.61655  1.0000
  H   H5964     1.0  0.85706  0.95622  0.68877  1.0000
  C   C3383     1.0  0.85286  0.60737  0.59837  1.0000
  H   H5965     1.0  0.96073  0.73915  0.58879  1.0000
  H   H5966     1.0  0.98656  0.69598  0.73585  1.0000
  H   H5967     1.0  0.84942  0.63217  0.72275  1.0000
  H   H5968     1.0  0.88121  0.55630  0.55809  1.0000
  C   C3384     1.0  0.86661  0.66148  0.69140  1.0000
  H   H5969     1.0  0.87050  0.93930  0.70586  1.0000
  H   H5970     1.0  0.86269  0.49348  0.84533  1.0000
  H   H5971     1.0  0.95209  0.76938  0.60573  1.0000
  H   H5972     1.0  0.81064  0.72162  0.51066  1.0000
  N   N187      1.0  0.86434  0.61403  0.97224  1.0000
  H   H5973     1.0  0.81499  0.51377  0.95799  1.0000
  C   C3385     1.0  0.87917  0.65039  0.70673  1.0000
  H   H5974     1.0  0.89365  0.62460  0.59641  1.0000
  H   H5975     1.0  0.81819  0.58579  0.85342  1.0000
  H   H5976     1.0  0.89918  0.60250  0.57144  1.0000
  H   H5977     1.0  0.80321  0.97366  0.76054  1.0000
  H   H5978     1.0  0.84400  0.50324  0.66152  1.0000
  H   H5979     1.0  0.91258  0.59217  0.59800  1.0000
  H   H5980     1.0  0.93716  0.72342  0.58717  1.0000
  H   H5981     1.0  0.90708  0.64446  0.72864  1.0000
  C   C3386     1.0  0.81246  0.58341  0.84165  1.0000
  H   H5982     1.0  0.85480  0.65411  0.69219  1.0000
  H   H5983     1.0  0.87064  0.62355  0.68966  1.0000
  C   C3387     1.0  0.83401  0.76745  0.69527  1.0000
  H   H5984     1.0  0.85523  0.64278  0.93790  1.0000
  C   C3388     1.0  0.91365  0.62977  0.72556  1.0000
  C   C3389     1.0  0.90402  0.58192  0.60842  1.0000
  H   H5985     1.0  0.89373  0.64450  0.55359  1.0000
  S   S763      1.0  0.80340  0.92007  0.65974  1.0000
  H   H5986     1.0  0.96117  0.74265  0.77078  1.0000
  Fe  Fe382     1.0  0.79480  0.89062  0.67033  1.0000
  H   H5987     1.0  0.84680  0.68154  0.70874  1.0000
  H   H5988     1.0  0.97223  0.76214  0.75522  1.0000
  H   H5989     1.0  0.85026  0.59333  0.71311  1.0000
  H   H5990     1.0  0.86151  0.60879  0.73412  1.0000
  C   C3390     1.0  0.86587  0.56364  0.56234  1.0000
  H   H5991     1.0  0.81950  0.87312  0.75037  1.0000
  H   H5992     1.0  0.86995  0.65073  0.72146  1.0000
  H   H5993     1.0  0.81382  0.97931  0.67241  1.0000
  H   H5994     1.0  0.81091  0.80837  0.59243  1.0000
  H   H5995     1.0  0.80861  0.80043  0.69611  1.0000
  C   C3391     1.0  0.86474  0.58270  0.56805  1.0000
  C   C3392     1.0  0.79195  0.70633  0.59653  1.0000
  H   H5996     1.0  0.83700  0.67180  0.95140  1.0000
  H   H5997     1.0  0.87069  0.75946  0.70508  1.0000
  H   H5998     1.0  0.85827  0.64503  0.97124  1.0000
  H   H5999     1.0  0.80404  0.56364  0.89645  1.0000
  H   H6000     1.0  0.81102  0.74925  0.68922  1.0000
  H   H6001     1.0  0.81345  0.50442  0.92950  1.0000
  C   C3393     1.0  0.78973  0.78022  0.70836  1.0000
  H   H6002     1.0  0.93206  0.79368  0.62460  1.0000
  H   H6003     1.0  0.85086  0.92971  0.67777  1.0000
  H   H6004     1.0  0.83917  0.51576  0.90318  1.0000
  H   H6005     1.0  0.90275  0.56692  0.63876  1.0000
  H   H6006     1.0  0.83772  0.77886  0.70052  1.0000
  H   H6007     1.0  0.83573  0.72506  0.55958  1.0000
  C   C3394     1.0  0.85715  0.68202  0.69455  1.0000
  C   C3395     1.0  0.96848  0.70014  0.64217  1.0000
  H   H6008     1.0  0.86311  0.53280  0.87975  1.0000
  C   C3396     1.0  0.83851  0.59487  0.61209  1.0000
  H   H6009     1.0  0.80207  0.55668  0.96205  1.0000
  H   H6010     1.0  0.83876  0.52629  0.93206  1.0000
  N   N188      1.0  0.80790  0.53424  0.93210  1.0000
  H   H6011     1.0  0.83317  0.52105  0.67641  1.0000
  H   H6012     1.0  0.91274  0.69379  0.61276  1.0000
  C   C3397     1.0  0.86087  0.50545  0.83251  1.0000
  H   H6013     1.0  0.91473  0.63125  0.56383  1.0000
  H   H6014     1.0  0.81830  0.61912  0.62340  1.0000
  H   H6015     1.0  0.85073  0.58860  0.76573  1.0000
  H   H6016     1.0  0.87716  0.61621  0.56496  1.0000
  H   H6017     1.0  0.87855  0.73598  0.69873  1.0000
  C   C3398     1.0  0.96620  0.72903  0.60148  1.0000
  H   H6018     1.0  0.95164  0.76085  0.63137  1.0000
  H   H6019     1.0  0.93476  0.68871  0.59492  1.0000
  H   H6020     1.0  0.81408  0.59550  0.82892  1.0000
  H   H6021     1.0  0.91713  0.78547  0.61333  1.0000
  C   C3399     1.0  0.89269  0.62739  0.94725  1.0000
  H   H6022     1.0  0.85953  0.80614  0.63745  1.0000
  H   H6023     1.0  0.91201  0.61751  0.75653  1.0000
  H   H6024     1.0  0.85078  0.79824  0.67389  1.0000
  N   N189      1.0  0.88935  0.62991  0.70502  1.0000
  H   H6025     1.0  0.82246  0.76230  0.64491  1.0000
  H   H6026     1.0  0.92544  0.63116  0.71253  1.0000
  N   N190      1.0  0.88243  0.68332  0.82240  1.0000
  C   C3400     1.0  0.86674  0.67463  0.83739  1.0000
  C   C3401     1.0  0.90118  0.67555  0.82956  1.0000
  C   C3402     1.0  0.87678  0.70510  0.81969  1.0000
  C   C3403     1.0  0.88502  0.67797  0.80305  1.0000
  C   C3404     1.0  0.88962  0.65597  0.80327  1.0000
  C   C3405     1.0  0.84714  0.67778  0.83122  1.0000
  C   C3406     1.0  0.89231  0.71650  0.80639  1.0000
  C   C3407     1.0  0.90208  0.68181  0.84810  1.0000
  C   C3408     1.0  0.92174  0.67301  0.85386  1.0000
  C   C3409     1.0  0.88834  0.65217  0.78398  1.0000
  C   C3410     1.0  0.83257  0.66846  0.84782  1.0000
  C   C3411     1.0  0.88536  0.73827  0.80548  1.0000
  H   H6027     1.0  0.86351  0.68053  0.85080  1.0000
  H   H6028     1.0  0.87177  0.65876  0.84226  1.0000
  H   H6029     1.0  0.90440  0.65941  0.83279  1.0000
  H   H6030     1.0  0.91351  0.67962  0.81804  1.0000
  H   H6031     1.0  0.87249  0.70955  0.83398  1.0000
  H   H6032     1.0  0.86365  0.71063  0.81320  1.0000
  H   H6033     1.0  0.87213  0.68507  0.79641  1.0000
  H   H6034     1.0  0.89731  0.68363  0.79249  1.0000
  H   H6035     1.0  0.87961  0.64811  0.81489  1.0000
  H   H6036     1.0  0.90462  0.64968  0.80556  1.0000
  H   H6037     1.0  0.84078  0.69345  0.82728  1.0000
  H   H6038     1.0  0.84890  0.67108  0.81865  1.0000
  H   H6039     1.0  0.89541  0.71426  0.79129  1.0000
  H   H6040     1.0  0.90608  0.71204  0.81169  1.0000
  H   H6041     1.0  0.90003  0.69777  0.84577  1.0000
  H   H6042     1.0  0.89083  0.67685  0.86058  1.0000
  H   H6043     1.0  0.93369  0.67724  0.84177  1.0000
  H   H6044     1.0  0.92230  0.67822  0.86672  1.0000
  H   H6045     1.0  0.92392  0.65695  0.85778  1.0000
  H   H6046     1.0  0.87324  0.65706  0.78163  1.0000
  H   H6047     1.0  0.89805  0.65979  0.77169  1.0000
  H   H6048     1.0  0.89297  0.63637  0.78420  1.0000
  H   H6049     1.0  0.82970  0.67508  0.86070  1.0000
  H   H6050     1.0  0.81868  0.67070  0.84312  1.0000
  H   H6051     1.0  0.83818  0.65261  0.85207  1.0000
  H   H6052     1.0  0.87185  0.74373  0.79965  1.0000
  H   H6053     1.0  0.88274  0.74157  0.82013  1.0000
  H   H6054     1.0  0.89666  0.74598  0.79566  1.0000
  C   C3412     1.0  0.81180  0.75633  0.57467  1.0000
  C   C3413     1.0  0.82920  0.75649  0.55713  1.0000
  H   H6055     1.0  0.83556  0.63057  0.94922  1.0000
  H   H6056     1.0  0.80304  0.73573  0.66038  1.0000
  H   H6057     1.0  0.86087  0.57425  0.79847  1.0000
  C   C3414     1.0  0.83441  0.79594  0.60712  1.0000
  H   H6058     1.0  0.82662  0.76945  0.54543  1.0000
  H   H6059     1.0  0.98080  0.64279  0.78685  1.0000
  H   H6060     1.0  0.87173  0.55652  0.83327  1.0000
  C   C3415     1.0  0.79774  0.96591  0.77556  1.0000
  H   H6061     1.0  0.91481  0.61113  0.92754  1.0000
  C   C3416     1.0  0.88457  0.61043  0.57752  1.0000
  C   C3417     1.0  0.83295  0.73855  0.54844  1.0000
  H   H6062     1.0  0.84696  0.61480  0.58507  1.0000
  H   H6063     1.0  0.84307  0.58814  0.62614  1.0000
  C   C3418     1.0  0.85729  0.61756  0.72036  1.0000
  H   H6064     1.0  0.88996  0.65932  0.70536  1.0000
  H   H6065     1.0  0.82714  0.54500  0.95629  1.0000
  H   H6066     1.0  0.96527  0.73100  0.63939  1.0000
  H   H6067     1.0  0.85263  0.66151  0.50143  1.0000
  C   C3419     1.0  0.83793  0.50526  0.67666  1.0000
  H   H6068     1.0  0.79475  0.79899  0.67980  1.0000
  H   H6069     1.0  0.83774  0.61686  0.70237  1.0000
  H   H6070     1.0  0.87888  0.60284  0.61881  1.0000
  H   H6071     1.0  0.85168  0.55845  0.85310  1.0000
  H   H6072     1.0  0.86857  0.59037  0.82152  1.0000
  S   S764      1.0  0.79575  0.63328  0.95153  1.0000
  H   H6073     1.0  0.85918  0.58327  0.86624  1.0000
  C   C3420     1.0  0.81639  0.79412  0.60121  1.0000
  H   H6074     1.0  0.96822  0.69978  0.67231  1.0000
  N   N191      1.0  0.80472  0.77460  0.58273  1.0000
  H   H6075     1.0  0.92301  0.61615  0.65280  1.0000
  H   H6076     1.0  0.92652  0.57050  0.62544  1.0000
  C   C3421     1.0  0.84825  0.81598  0.64586  1.0000
  H   H6077     1.0  0.80869  0.67898  0.51550  1.0000
  C   C3422     1.0  0.84309  0.60811  0.71562  1.0000
  C   C3423     1.0  0.87473  0.57916  0.58552  1.0000
  H   H6078     1.0  0.80826  0.59811  0.62663  1.0000
  C   C3424     1.0  0.83918  0.80465  0.66541  1.0000
  H   H6079     1.0  0.85514  0.82683  0.64832  1.0000
  C   C3425     1.0  0.85684  0.53716  0.89396  1.0000
  H   H6080     1.0  0.82801  0.81529  0.67286  1.0000
  C   C3426     1.0  0.94301  0.76421  0.62001  1.0000
  S   S765      1.0  0.79642  0.54476  0.77819  1.0000
  H   H6081     1.0  0.84254  0.77936  0.65429  1.0000
  C   C3427     1.0  0.91083  0.57722  0.62764  1.0000
  C   C3428     1.0  0.88696  0.62851  0.58347  1.0000
  H   H6082     1.0  0.88290  0.57669  0.85133  1.0000
  H   H6083     1.0  0.82631  0.58929  0.76401  1.0000
  C   C3429     1.0  0.93207  0.61318  0.66385  1.0000
  H   H6084     1.0  0.84084  0.74839  0.65803  1.0000
  C   C3430     1.0  0.81234  0.54248  0.96325  1.0000
  H   H6085     1.0  0.86874  0.56782  0.59734  1.0000
  C   C3431     1.0  0.88196  0.59058  0.61127  1.0000
  H   H6086     1.0  0.87473  0.57938  0.62202  1.0000
  C   C3432     1.0  0.82863  0.53622  0.92287  1.0000
  C   C3433     1.0  0.81373  0.93506  0.76261  1.0000
  H   H6087     1.0  0.81728  0.94354  0.74761  1.0000
  S   S766      1.0  0.79056  0.68972  0.63497  1.0000
  H   H6088     1.0  0.98069  0.73516  0.73858  1.0000
  H   H6089     1.0  0.94012  0.62502  0.66079  1.0000
  H   H6090     1.0  0.87194  0.59212  0.55512  1.0000
  C   C3434     1.0  0.85297  0.75362  0.68815  1.0000
  H   H6091     1.0  0.84911  0.68996  0.68283  1.0000
  H   H6092     1.0  0.81992  0.79540  0.65289  1.0000
  H   H6093     1.0  0.84513  0.59623  0.83660  1.0000
  H   H6094     1.0  0.87268  0.63828  0.58671  1.0000
  C   C3435     1.0  0.89806  0.62027  0.72271  1.0000
  H   H6095     1.0  0.86452  0.54090  0.81070  1.0000
  H   H6096     1.0  0.86826  0.69014  0.69420  1.0000
  C   C3436     1.0  0.86638  0.94152  0.69164  1.0000
  H   H6097     1.0  0.90238  0.62514  0.95755  1.0000
  C   C3437     1.0  0.89984  0.64002  0.56698  1.0000
  C   C3438     1.0  0.82504  0.75195  0.65863  1.0000
  H   H6098     1.0  0.84123  0.59128  0.80805  1.0000
  H   H6099     1.0  0.87559  0.66261  0.67650  1.0000
  H   H6100     1.0  0.95862  0.68970  0.64654  1.0000
  H   H6101     1.0  0.92941  0.60275  0.74070  1.0000
  H   H6102     1.0  0.82211  0.55294  0.85068  1.0000
  Fe  Fe383     1.0  0.83094  0.64099  0.48426  1.0000
  H   H6103     1.0  0.85040  0.50285  0.82520  1.0000
  C   C3439     1.0  0.86860  0.58683  0.85173  1.0000
  C   C3440     1.0  0.85058  0.54179  0.82134  1.0000
  H   H6104     1.0  0.87091  0.60177  0.84964  1.0000
  C   C3441     1.0  0.80356  0.93520  0.67531  1.0000
  C   C3442     1.0  0.80362  0.79000  0.69065  1.0000
  H   H6105     1.0  0.91320  0.64188  0.68511  1.0000
  H   H6106     1.0  0.88659  0.62029  0.73615  1.0000
  C   C3443     1.0  0.84539  0.57607  0.80618  1.0000
  N   N192      1.0  0.84366  0.56197  0.82552  1.0000
  H   H6107     1.0  0.92912  0.60746  0.69480  1.0000
  H   H6108     1.0  0.79828  0.93625  0.72302  1.0000
  C   C3444     1.0  0.91940  0.61141  0.68426  1.0000
  H   H6109     1.0  0.79737  0.77235  0.72036  1.0000
  H   H6110     1.0  0.92929  0.75129  0.60566  1.0000
  H   H6111     1.0  0.81151  0.92083  0.76172  1.0000
  H   H6112     1.0  0.83741  0.58317  0.60551  1.0000
  H   H6113     1.0  0.83051  0.60500  0.77727  1.0000
  C   C3445     1.0  0.85357  0.52484  0.83903  1.0000
  H   H6114     1.0  0.79924  0.56502  0.93085  1.0000
  H   H6115     1.0  0.79416  0.98127  0.80755  1.0000
  H   H6116     1.0  0.83048  0.60695  0.72790  1.0000
  H   H6117     1.0  0.79105  0.52806  0.96152  1.0000
  C   C3446     1.0  0.83707  0.53158  0.90232  1.0000
  H   H6118     1.0  0.82749  0.53924  0.89193  1.0000
  C   C3447     1.0  0.90472  0.63069  0.68660  1.0000
  H   H6119     1.0  0.89781  0.63550  0.67368  1.0000
  H   H6120     1.0  0.91203  0.59924  0.68665  1.0000
  H   H6121     1.0  0.83985  0.52401  0.84984  1.0000
  H   H6122     1.0  0.86451  0.52642  0.84636  1.0000
  H   H6123     1.0  0.89014  0.57234  0.58057  1.0000
  H   H6124     1.0  0.90431  0.60462  0.72269  1.0000
  H   H6125     1.0  0.82809  0.70360  0.49880  1.0000
  H   H6126     1.0  0.81307  0.49772  0.78479  1.0000
  H   H6127     1.0  0.81000  0.96257  0.78326  1.0000
  H   H6128     1.0  0.82333  0.72176  0.67134  1.0000
  H   H6129     1.0  0.91488  0.63662  0.92268  1.0000
  H   H6130     1.0  0.79404  0.74042  0.61223  1.0000
  C   C3448     1.0  0.98418  0.73539  0.60371  1.0000
  H   H6131     1.0  0.87449  0.57377  0.96770  1.0000
  C   C3449     1.0  0.98800  0.73357  0.75074  1.0000
  H   H6132     1.0  0.79244  0.65663  0.53513  1.0000
  H   H6133     1.0  0.80706  0.51319  0.70564  1.0000
  H   H6134     1.0  0.80107  0.66903  0.55755  1.0000
  H   H6135     1.0  0.79849  0.76737  0.67263  1.0000
  S   S767      1.0  0.79273  0.83315  0.63995  1.0000
  C   C3450     1.0  0.79059  0.56047  0.90669  1.0000
  C   C3451     1.0  0.84335  0.64102  0.95082  1.0000
  H   H6136     1.0  0.82383  0.66536  0.93694  1.0000
  H   H6137     1.0  0.79266  0.93644  0.78892  1.0000
  C   C3452     1.0  0.85237  0.59889  0.97583  1.0000
  S   S768      1.0  0.98689  0.58530  0.85391  1.0000
  C   C3453     1.0  0.97888  0.69695  0.65889  1.0000
  H   H6138     1.0  0.79344  0.78549  0.55608  1.0000
  H   H6139     1.0  0.98370  0.67035  0.75917  1.0000
  H   H6140     1.0  0.80397  0.65108  0.59132  1.0000
  H   H6141     1.0  0.79570  0.91533  0.70208  1.0000
  C   C3454     1.0  0.79535  0.94575  0.77418  1.0000
  C   C3455     1.0  0.85109  0.63380  0.96994  1.0000
  H   H6142     1.0  0.79052  0.52296  0.73127  1.0000
  H   H6143     1.0  0.98936  0.70668  0.65521  1.0000
  Fe  Fe384     1.0  0.78960  0.85488  0.65843  1.0000
  C   C3456     1.0  0.78968  0.49171  0.73768  1.0000
  H   H6144     1.0  0.79116  0.83070  0.54869  1.0000
