data_image0
_chemical_formula_structural       HCHFeCH4FeCHSHC2H3CNH3C3H2SH3C2HC4H2CHCH2C2H2SCHC2H2SH3CHSC2FeCSHCH5C2FeH6CFeHSCHCHSCH2CH4SH7CH5CHCH2CH2C2H6SNC2H3CSCH5FeHCHCH5CHCH2CH2SCHCHCHNC2HC3H8FeC2HCHCH5NH6C5SH4SFeH2C2NSHC2H3C2H2CSHCH2CH3C4H2CHCH5CH3SH5CSHC2H2CH2CSC2H7C2FeCHCH4C2HCH2C2FeCHC2HCHC2H2CFeCHC3HSH2SC2H3SHFeH2SNCSH3CHCSHCHCFeHFeCHCHSCH2FeH3C4HSH2SH2CSH3C2H4SC3H2C2H4FeH4CSC5HC2HCSCHCSHCHCHFeHCH7C4H4CNHC2H2SCNH2C2H10CH4CHFeH2CSH4CHSH2SHSC3H2C2HC3H2CH2FeHSHCH2CHCH3C2H3NHCH3CHNCHSH2CHCH2CH3FeCFeH2CHCHSHCH2C2H6C2HCH2Fe2HCFeSHC5HFeCH6SH2CHS2C2H4SHCH4CH2C2FeHSCHSHSCFeHSH3CSHC3H6SHSCNHFeCHFeHC2H5SH4C2HCSH3CHCHCHCFeH2CHCH3FeCHC2H2FeHFeHC2H3SH2NCHSCSCHCHC5H3CHC2H2SCH4SCH2CH3CH3C3HNH5CHCH2CSHCH2SHCH7C2NFeH2C2HC3H3C2H2CH3C2HCSCHC4H2SNH7C3H8C2H2CH3CH3CHC3H4CH3SHNC2HFeHCS2H8CHCHCH2C2HSC3H2FeC3H3CHCH2SCH2C2HSC2H5C2H3FeH3C2H8CH2SHCHCHC2HFeHCHFeC2HCH2SCH3CSCH5CH3FeHC2H6SCHC2HC3HSCH6SH4C2H2CHNHC4SH4SCHNH2FeCH3C2H14CH3CH3CSH3SCH2FeH2SH3CH2NCH3CHCHCS2CH6CHCHC2HSCH3CHCHCH2C3HFeHC2H3C2SCFeHCHCHC2H3CH2FeS2HSH2SH5CH5SH6SNHCFeHCHFeSCNCNC2FeH2SCH2C2HCH2FeHC4HC2HC2H7CH3CHC2HCHCS2CHCHCSH2SHCH2CHFeCH2C2H2SCH2CHCHC4H2CHFeSH5FeH2C2HCHC3H2CH4CH2C2HCH2SNCH4C2HC2HC3H2CSCH2CH3SH2CHCHCHFeH3FeH4CH2CH3SCH2C2H3SCH7CH6C2HFeHCFeCHSH2CH2C2H2CHCH2CSCHC6H2NH6C2HC2H3SH2NH5CSH5CHCH4CHCHCH2CH4SCSHC2H4CFeC2H4CHCHCHSCH4SCFeHC2H7NHCH2C2HC3SHSH3CH2CH3CHC2H3CHSH2C4H2CHC2H5CSHCH2SHFeNH2C2H3SH4NFeH2C2SH2C4H5CHCH4CFeSH3C2H3CHC4H5CHCNH3FeH2CNHC3SCHCHCFeH2CH2C3H4CH4SCFeH3CH2CHC3H4C2H2CH12SC2H2CH3SCH5CH2C2SHCHC3HCH6C2H8C2HCHC3HFeH4C2HCH5CSC2H4NH3CH2FeC2HFeHSCHCHCSCHCHNCHCH2C2H5SCSCFeNHC2H2C4SC2HC3H4C2H3CHC2H3CH2CH4SC3H7C2SHC3H2S2C2SH2C2H3CSH3SH5SHCHFeHC2H3CHC4SCH2NH7CH2CH4C6HC2H3CFeHCH2CH3FeCHCH2CH3CHSH3C3H2NCH2SHCH3NCHC4H2FeH3CHC2H2CSHSC5H3CSC2H3CHFeHC2H6SCH4CH2FeHCH4CH3CHSHFeHNHSHFeHCHCHFeH2CHC2H6CHCHFeCH3S2HC2HCHCH4SC2SH2FeNHC2HCSH3SCHSCH6SC2H2CHCHCH11CHSHNCHCH5CH2FeHSCH2CHCH3CH2CH2CHCH2CHC2HCH4SC2H5C2H5CH4CHCH3NCH2CH4SH
_chemical_formula_sum              "H1280 C720 Fe80 S160 N40"
_cell_length_a       23.1803
_cell_length_b       47.2134
_cell_length_c       27.5064
_cell_angle_alpha    95.887
_cell_angle_beta     85.8567
_cell_angle_gamma    89.527

_space_group_name_H-M_alt    "P 1"
_space_group_IT_number       1

loop_
  _space_group_symop_operation_xyz
  'x, y, z'

loop_
  _atom_site_type_symbol
  _atom_site_label
  _atom_site_symmetry_multiplicity
  _atom_site_fract_x
  _atom_site_fract_y
  _atom_site_fract_z
  _atom_site_occupancy
  H   H1        1.0  0.70737  0.17136  0.67776  1.0000
  C   C1        1.0  0.63197  0.23683  0.55241  1.0000
  H   H2        1.0  0.37768  0.18013  0.70519  1.0000
  Fe  Fe1       1.0  0.22063  0.22944  0.67271  1.0000
  C   C2        1.0  0.88332  0.35214  0.59300  1.0000
  H   H3        1.0  0.44913  0.23744  0.60841  1.0000
  H   H4        1.0  0.00218  0.17414  0.56302  1.0000
  H   H5        1.0  0.92600  0.26947  0.66826  1.0000
  H   H6        1.0  0.45385  0.37570  0.64184  1.0000
  Fe  Fe2       1.0  0.02340  0.36613  0.57009  1.0000
  C   C3        1.0  0.06167  0.23596  0.51894  1.0000
  H   H7        1.0  0.21989  0.17592  0.50597  1.0000
  S   S1        1.0  0.26481  0.18824  0.68055  1.0000
  H   H8        1.0  0.68862  0.27252  0.55637  1.0000
  C   C4        1.0  0.20593  0.34824  0.66346  1.0000
  C   C5        1.0  0.51273  0.20678  0.71135  1.0000
  H   H9        1.0  0.77936  0.29029  0.48431  1.0000
  H   H10       1.0  0.71432  0.30752  0.51095  1.0000
  H   H11       1.0  0.79581  0.22729  0.56994  1.0000
  C   C6        1.0  0.98481  0.30418  0.67450  1.0000
  N   N1        1.0  0.97778  0.23354  0.58677  1.0000
  H   H12       1.0  0.90893  0.37096  0.59875  1.0000
  H   H13       1.0  0.95939  0.31759  0.65269  1.0000
  H   H14       1.0  0.02209  0.14001  0.62440  1.0000
  C   C7        1.0  0.87247  0.30363  0.55765  1.0000
  C   C8        1.0  0.17544  0.32676  0.68503  1.0000
  C   C9        1.0  0.38340  0.35140  0.67319  1.0000
  H   H15       1.0  0.89080  0.25179  0.59314  1.0000
  H   H16       1.0  0.62294  0.27800  0.52732  1.0000
  S   S2        1.0  0.97789  0.32780  0.53791  1.0000
  H   H17       1.0  0.76746  0.35333  0.51760  1.0000
  H   H18       1.0  0.83157  0.33656  0.48516  1.0000
  H   H19       1.0  0.14414  0.18194  0.52322  1.0000
  C   C10       1.0  0.78946  0.34696  0.48082  1.0000
  C   C11       1.0  0.71936  0.15257  0.65171  1.0000
  H   H20       1.0  0.73303  0.24315  0.48687  1.0000
  C   C12       1.0  0.40184  0.23786  0.61869  1.0000
  C   C13       1.0  0.00773  0.21275  0.61481  1.0000
  C   C14       1.0  0.69166  0.25371  0.47972  1.0000
  C   C15       1.0  0.16679  0.30212  0.52086  1.0000
  H   H21       1.0  0.09162  0.22683  0.54289  1.0000
  H   H22       1.0  0.33371  0.13923  0.66300  1.0000
  C   C16       1.0  0.91270  0.23083  0.59378  1.0000
  H   H23       1.0  0.94927  0.17658  0.61512  1.0000
  C   C17       1.0  0.88333  0.21031  0.55540  1.0000
  H   H24       1.0  0.16448  0.28157  0.68570  1.0000
  H   H25       1.0  0.76737  0.15158  0.64706  1.0000
  C   C18       1.0  0.79343  0.32758  0.60924  1.0000
  C   C19       1.0  0.26166  0.31257  0.60971  1.0000
  H   H26       1.0  0.59827  0.22722  0.52939  1.0000
  H   H27       1.0  0.37868  0.24712  0.58991  1.0000
  S   S3        1.0  0.72216  0.32813  0.63598  1.0000
  C   C20       1.0  0.69731  0.15797  0.60242  1.0000
  H   H28       1.0  0.38739  0.21559  0.62036  1.0000
  C   C21       1.0  0.18100  0.16701  0.52456  1.0000
  C   C22       1.0  0.24876  0.34120  0.62562  1.0000
  H   H29       1.0  0.64926  0.15764  0.60405  1.0000
  H   H30       1.0  0.98852  0.20789  0.51653  1.0000
  S   S4        1.0  0.11615  0.37770  0.55477  1.0000
  H   H31       1.0  0.03161  0.30859  0.66793  1.0000
  H   H32       1.0  0.97665  0.27885  0.58379  1.0000
  H   H33       1.0  0.12365  0.30112  0.54096  1.0000
  C   C23       1.0  0.99734  0.22970  0.53292  1.0000
  H   H34       1.0  0.61110  0.24368  0.58940  1.0000
  S   S5        1.0  0.13171  0.21265  0.68453  1.0000
  C   C24       1.0  0.65850  0.26256  0.53022  1.0000
  C   C25       1.0  0.81937  0.20677  0.57020  1.0000
  Fe  Fe3       1.0  0.17608  0.17248  0.70010  1.0000
  C   C26       1.0  0.42060  0.33439  0.70529  1.0000
  S   S6        1.0  0.71987  0.24724  0.65581  1.0000
  H   H35       1.0  0.44724  0.28783  0.64815  1.0000
  C   C27       1.0  0.99387  0.26321  0.60667  1.0000
  H   H36       1.0  0.80891  0.37127  0.63525  1.0000
  H   H37       1.0  0.99693  0.26074  0.68587  1.0000
  H   H38       1.0  0.86742  0.15248  0.70180  1.0000
  H   H39       1.0  0.34001  0.35647  0.69209  1.0000
  H   H40       1.0  0.18678  0.32276  0.53244  1.0000
  C   C28       1.0  0.97303  0.27271  0.66090  1.0000
  C   C29       1.0  0.81671  0.30313  0.58136  1.0000
  Fe  Fe4       1.0  0.70858  0.29305  0.68442  1.0000
  H   H41       1.0  0.19448  0.28466  0.53098  1.0000
  H   H42       1.0  0.71565  0.14182  0.57313  1.0000
  H   H43       1.0  0.02979  0.16932  0.66986  1.0000
  H   H44       1.0  0.79119  0.28411  0.57689  1.0000
  H   H45       1.0  0.34190  0.25233  0.67933  1.0000
  H   H46       1.0  0.27120  0.35786  0.60807  1.0000
  C   C30       1.0  0.99473  0.18092  0.60271  1.0000
  Fe  Fe5       1.0  0.63988  0.24071  0.70343  1.0000
  H   H47       1.0  0.06796  0.25934  0.52149  1.0000
  S   S7        1.0  0.02491  0.37547  0.65135  1.0000
  C   C31       1.0  0.40290  0.28685  0.66656  1.0000
  H   H48       1.0  0.81358  0.19922  0.60717  1.0000
  C   C32       1.0  0.90637  0.32795  0.56430  1.0000
  H   H49       1.0  0.88950  0.28518  0.53428  1.0000
  S   S8        1.0  0.24851  0.25541  0.61220  1.0000
  C   C33       1.0  0.23166  0.29106  0.63166  1.0000
  H   H50       1.0  0.30798  0.31286  0.70751  1.0000
  H   H51       1.0  0.99543  0.21721  0.65446  1.0000
  C   C34       1.0  0.82656  0.35219  0.61430  1.0000
  H   H52       1.0  0.41386  0.24534  0.69521  1.0000
  H   H53       1.0  0.97154  0.24423  0.51315  1.0000
  H   H54       1.0  0.29444  0.30705  0.58014  1.0000
  H   H55       1.0  0.80067  0.19077  0.54359  1.0000
  S   S9        1.0  0.57606  0.20943  0.67356  1.0000
  H   H56       1.0  0.71092  0.17932  0.59306  1.0000
  H   H57       1.0  0.37271  0.29461  0.64112  1.0000
  H   H58       1.0  0.88596  0.21897  0.51926  1.0000
  H   H59       1.0  0.62882  0.17975  0.48265  1.0000
  H   H60       1.0  0.05509  0.21563  0.61130  1.0000
  H   H61       1.0  0.07865  0.32021  0.47432  1.0000
  H   H62       1.0  0.37789  0.33954  0.63702  1.0000
  C   C35       1.0  0.18862  0.29813  0.66937  1.0000
  H   H63       1.0  0.90396  0.18892  0.55042  1.0000
  H   H64       1.0  0.90021  0.22440  0.63080  1.0000
  H   H65       1.0  0.07960  0.16493  0.61612  1.0000
  H   H66       1.0  0.18955  0.16541  0.56344  1.0000
  H   H67       1.0  0.04169  0.26575  0.60423  1.0000
  C   C36       1.0  0.38842  0.25495  0.66860  1.0000
  H   H68       1.0  0.66575  0.22051  0.55594  1.0000
  C   C37       1.0  0.46614  0.19188  0.69236  1.0000
  H   H69       1.0  0.97184  0.31002  0.71392  1.0000
  H   H70       1.0  0.32249  0.14421  0.57462  1.0000
  C   C38       1.0  0.03384  0.16272  0.62986  1.0000
  H   H71       1.0  0.46994  0.18199  0.65494  1.0000
  H   H72       1.0  0.46557  0.33243  0.68774  1.0000
  C   C39       1.0  0.73766  0.29975  0.47528  1.0000
  C   C40       1.0  0.16811  0.13777  0.49866  1.0000
  H   H73       1.0  0.43009  0.13069  0.67750  1.0000
  H   H74       1.0  0.73677  0.37502  0.70860  1.0000
  H   H75       1.0  0.07846  0.14015  0.52503  1.0000
  H   H76       1.0  0.64611  0.13003  0.50744  1.0000
  H   H77       1.0  0.63612  0.37815  0.65054  1.0000
  H   H78       1.0  0.14130  0.33223  0.71349  1.0000
  S   S10       1.0  0.83932  0.21190  0.71833  1.0000
  N   N2        1.0  0.39897  0.30525  0.71514  1.0000
  C   C41       1.0  0.41159  0.37961  0.66336  1.0000
  C   C42       1.0  0.00520  0.24216  0.78405  1.0000
  H   H79       1.0  0.85451  0.19057  0.92910  1.0000
  H   H80       1.0  0.48832  0.14357  0.91781  1.0000
  H   H81       1.0  0.86403  0.26358  0.88370  1.0000
  C   C43       1.0  0.47938  0.15987  0.89301  1.0000
  S   S11       1.0  0.17834  0.18542  0.78070  1.0000
  C   C44       1.0  0.13281  0.26884  0.93685  1.0000
  H   H82       1.0  0.60038  0.16068  0.83944  1.0000
  H   H83       1.0  0.41301  0.27496  0.76760  1.0000
  H   H84       1.0  0.34574  0.22104  0.90880  1.0000
  H   H85       1.0  0.54402  0.23085  0.77457  1.0000
  H   H86       1.0  0.69320  0.36105  0.90237  1.0000
  Fe  Fe6       1.0  0.26426  0.20428  0.75993  1.0000
  H   H87       1.0  0.49797  0.32490  0.77219  1.0000
  C   C45       1.0  0.25730  0.32977  0.79466  1.0000
  H   H88       1.0  0.91874  0.33610  0.84568  1.0000
  C   C46       1.0  0.50774  0.21964  0.75964  1.0000
  H   H89       1.0  0.23448  0.30915  0.79379  1.0000
  H   H90       1.0  0.75733  0.19137  0.85784  1.0000
  H   H91       1.0  0.16259  0.35237  0.90706  1.0000
  H   H92       1.0  0.24009  0.34269  0.76726  1.0000
  H   H93       1.0  0.59344  0.33998  0.79572  1.0000
  C   C47       1.0  0.64563  0.24364  0.89174  1.0000
  H   H94       1.0  0.35797  0.14007  0.74809  1.0000
  C   C48       1.0  0.97502  0.19976  0.91540  1.0000
  H   H95       1.0  0.97907  0.33903  0.91843  1.0000
  H   H96       1.0  0.05325  0.17518  0.89272  1.0000
  C   C49       1.0  0.01398  0.35133  0.90095  1.0000
  H   H97       1.0  0.49316  0.15128  0.85492  1.0000
  H   H98       1.0  0.86837  0.26572  0.77193  1.0000
  S   S12       1.0  0.68754  0.23311  0.76852  1.0000
  C   C50       1.0  0.46430  0.31179  0.78949  1.0000
  H   H99       1.0  0.45201  0.22756  0.82612  1.0000
  C   C51       1.0  0.86380  0.26237  0.92385  1.0000
  H   H100      1.0  0.04071  0.35886  0.82465  1.0000
  C   C52       1.0  0.03265  0.19543  0.88510  1.0000
  H   H101      1.0  0.18307  0.16020  0.90019  1.0000
  N   N3        1.0  0.33698  0.18977  0.96176  1.0000
  C   C53       1.0  0.18458  0.18338  0.91164  1.0000
  C   C54       1.0  0.01090  0.34506  0.84465  1.0000
  H   H102      1.0  0.17170  0.26141  0.95350  1.0000
  C   C55       1.0  0.29203  0.34440  0.93026  1.0000
  C   C56       1.0  0.89938  0.13142  0.93767  1.0000
  C   C57       1.0  0.84590  0.20600  0.85845  1.0000
  H   H103      1.0  0.80241  0.18070  0.80294  1.0000
  H   H104      1.0  0.03815  0.20014  0.75788  1.0000
  H   H105      1.0  0.94701  0.18204  0.90276  1.0000
  H   H106      1.0  0.93766  0.29078  0.92004  1.0000
  H   H107      1.0  0.43182  0.32631  0.81066  1.0000
  H   H108      1.0  0.95968  0.28181  0.80702  1.0000
  H   H109      1.0  0.55384  0.37179  0.82247  1.0000
  H   H110      1.0  0.64551  0.17542  0.73776  1.0000
  Fe  Fe7       1.0  0.67813  0.28010  0.78827  1.0000
  C   C58       1.0  0.59542  0.35977  0.82099  1.0000
  C   C59       1.0  0.40827  0.20387  0.76887  1.0000
  H   H111      1.0  0.40249  0.26307  0.90828  1.0000
  C   C60       1.0  0.90186  0.22388  0.74524  1.0000
  H   H112      1.0  0.17223  0.30810  0.92230  1.0000
  C   C61       1.0  0.41510  0.16780  0.89670  1.0000
  H   H113      1.0  0.31378  0.23479  0.96622  1.0000
  H   H114      1.0  0.81177  0.16324  0.85707  1.0000
  H   H115      1.0  0.94977  0.34738  0.78907  1.0000
  H   H116      1.0  0.62436  0.23924  0.85833  1.0000
  H   H117      1.0  0.08243  0.30343  0.87843  1.0000
  N   N4        1.0  0.88676  0.23380  0.93442  1.0000
  H   H118      1.0  0.64059  0.36824  0.72713  1.0000
  H   H119      1.0  0.94731  0.23213  0.87069  1.0000
  H   H120      1.0  0.41094  0.18762  0.87908  1.0000
  H   H121      1.0  0.50545  0.17891  0.90321  1.0000
  H   H122      1.0  0.80059  0.21690  0.92893  1.0000
  H   H123      1.0  0.02253  0.32255  0.83200  1.0000
  C   C62       1.0  0.94689  0.22914  0.91012  1.0000
  C   C63       1.0  0.22793  0.18987  0.94991  1.0000
  C   C64       1.0  0.45580  0.21771  0.78873  1.0000
  C   C65       1.0  0.94946  0.20534  0.74227  1.0000
  C   C66       1.0  0.60003  0.17259  0.80676  1.0000
  S   S13       1.0  0.76223  0.29018  0.74845  1.0000
  H   H124      1.0  0.32218  0.28461  0.74209  1.0000
  H   H125      1.0  0.12589  0.34491  0.85329  1.0000
  H   H126      1.0  0.52870  0.28103  0.80676  1.0000
  H   H127      1.0  0.45905  0.26941  0.94929  1.0000
  S   S14       1.0  0.22703  0.24700  0.75063  1.0000
  Fe  Fe8       1.0  0.14114  0.22704  0.76375  1.0000
  H   H128      1.0  0.38033  0.14881  0.95947  1.0000
  H   H129      1.0  0.02569  0.19371  0.84555  1.0000
  C   C67       1.0  0.65454  0.22175  0.92146  1.0000
  C   C68       1.0  0.34832  0.21974  0.94873  1.0000
  N   N5        1.0  0.07119  0.34460  0.92051  1.0000
  S   S15       1.0  0.07030  0.25322  0.80748  1.0000
  H   H130      1.0  0.24810  0.34147  0.83149  1.0000
  C   C69       1.0  0.80143  0.18389  0.84343  1.0000
  C   C70       1.0  0.86097  0.31598  0.94445  1.0000
  H   H131      1.0  0.88860  0.19791  0.84167  1.0000
  H   H132      1.0  0.73191  0.37347  0.95496  1.0000
  H   H133      1.0  0.13544  0.25992  0.89778  1.0000
  C   C71       1.0  0.32255  0.32500  0.78422  1.0000
  C   C72       1.0  0.43718  0.29173  0.74922  1.0000
  H   H134      1.0  0.28726  0.15393  0.93245  1.0000
  H   H135      1.0  0.33835  0.31405  0.81468  1.0000
  C   C73       1.0  0.68638  0.27762  0.95104  1.0000
  S   S16       1.0  0.62341  0.28723  0.72631  1.0000
  H   H136      1.0  0.60141  0.35365  0.85821  1.0000
  C   C74       1.0  0.65161  0.16409  0.77018  1.0000
  H   H137      1.0  0.93643  0.37319  0.84184  1.0000
  H   H138      1.0  0.19626  0.19515  0.87964  1.0000
  C   C75       1.0  0.38990  0.17085  0.95075  1.0000
  H   H139      1.0  0.68571  0.36429  0.80240  1.0000
  H   H140      1.0  0.51278  0.30986  0.85391  1.0000
  H   H141      1.0  0.03904  0.30277  0.93361  1.0000
  C   C76       1.0  0.49353  0.29498  0.82579  1.0000
  C   C77       1.0  0.12099  0.35632  0.89090  1.0000
  C   C78       1.0  0.89746  0.28876  0.94386  1.0000
  C   C79       1.0  0.66329  0.27137  0.90568  1.0000
  H   H142      1.0  0.84910  0.31909  0.90695  1.0000
  H   H143      1.0  0.14113  0.19072  0.92755  1.0000
  C   C80       1.0  0.07833  0.31264  0.91740  1.0000
  H   H144      1.0  0.31301  0.32833  0.90388  1.0000
  C   C81       1.0  0.95010  0.35082  0.82962  1.0000
  H   H145      1.0  0.00081  0.37401  0.91160  1.0000
  H   H146      1.0  0.45299  0.13621  0.77363  1.0000
  H   H147      1.0  0.09362  0.26072  0.95624  1.0000
  H   H148      1.0  0.25472  0.13093  0.74531  1.0000
  H   H149      1.0  0.39147  0.15097  0.87527  1.0000
  C   C82       1.0  0.33665  0.30627  0.73522  1.0000
  H   H150      1.0  0.34241  0.34622  0.78438  1.0000
  H   H151      1.0  0.28931  0.15014  0.82458  1.0000
  H   H152      1.0  0.46156  0.28170  0.84459  1.0000
  S   S17       1.0  0.69664  0.13983  0.88812  1.0000
  H   H153      1.0  0.42378  0.34848  0.73971  1.0000
  H   H154      1.0  0.60142  0.19561  0.81905  1.0000
  H   H155      1.0  0.83455  0.22569  0.84239  1.0000
  H   H156      1.0  0.97662  0.24559  0.92547  1.0000
  H   H157      1.0  0.98345  0.19800  0.95421  1.0000
  C   C83       1.0  0.90524  0.25142  0.76901  1.0000
  S   S18       1.0  0.65723  0.29823  0.86648  1.0000
  H   H158      1.0  0.64195  0.20025  0.90999  1.0000
  C   C84       1.0  0.40692  0.23273  0.96284  1.0000
  C   C85       1.0  0.13149  0.30138  0.94112  1.0000
  H   H159      1.0  0.55893  0.16861  0.78926  1.0000
  H   H160      1.0  0.81740  0.26506  0.93745  1.0000
  C   C86       1.0  0.95690  0.26052  0.78884  1.0000
  H   H161      1.0  0.69120  0.17145  0.78762  1.0000
  H   H162      1.0  0.51197  0.13884  0.72802  1.0000
  C   C87       1.0  0.28894  0.17751  0.93253  1.0000
  S   S19       1.0  0.34210  0.20340  0.80411  1.0000
  C   C88       1.0  0.00135  0.21460  0.76082  1.0000
  C   C89       1.0  0.84594  0.21130  0.91502  1.0000
  H   H163      1.0  0.51315  0.34700  0.96682  1.0000
  H   H164      1.0  0.47490  0.28036  0.72797  1.0000
  H   H165      1.0  0.06205  0.21338  0.89393  1.0000
  H   H166      1.0  0.82500  0.35836  0.74435  1.0000
  H   H167      1.0  0.76353  0.15388  0.73493  1.0000
  H   H168      1.0  0.29774  0.18098  0.89337  1.0000
  H   H169      1.0  0.44395  0.21989  0.94442  1.0000
  C   C90       1.0  0.29125  0.37295  0.92058  1.0000
  C   C91       1.0  0.41362  0.26263  0.94678  1.0000
  Fe  Fe9       1.0  0.76641  0.24347  0.72320  1.0000
  C   C92       1.0  0.69592  0.37848  0.93246  1.0000
  H   H170      1.0  0.94661  0.18390  0.72475  1.0000
  C   C93       1.0  0.41378  0.19083  0.72080  1.0000
  H   H171      1.0  0.61473  0.33815  0.95409  1.0000
  H   H172      1.0  0.85895  0.14266  0.94687  1.0000
  H   H173      1.0  0.22874  0.21334  0.95825  1.0000
  H   H174      1.0  0.87316  0.13971  0.76134  1.0000
  C   C94       1.0  0.75997  0.13081  0.73923  1.0000
  C   C95       1.0  0.64610  0.37784  0.80437  1.0000
  H   H175      1.0  0.31120  0.37892  0.88644  1.0000
  C   C96       1.0  0.67930  0.22788  0.96611  1.0000
  H   H176      1.0  0.69961  0.29903  0.96236  1.0000
  H   H177      1.0  0.88544  0.33470  0.95902  1.0000
  C   C97       1.0  0.65353  0.13161  0.75592  1.0000
  C   C98       1.0  0.94590  0.13717  0.96688  1.0000
  Fe  Fe10      1.0  0.68789  0.15585  0.96798  1.0000
  C   C99       1.0  0.86936  0.13326  0.72168  1.0000
  H   H178      1.0  0.82071  0.31484  0.96865  1.0000
  C   C100      1.0  0.30605  0.16270  0.03656  1.0000
  C   C101      1.0  0.49548  0.33371  0.17727  1.0000
  H   H179      1.0  0.43634  0.16207  0.09045  1.0000
  C   C102      1.0  0.26729  0.33674  0.97479  1.0000
  H   H180      1.0  0.53937  0.32791  0.07836  1.0000
  C   C103      1.0  0.43487  0.15420  0.21169  1.0000
  C   C104      1.0  0.43035  0.16757  0.12959  1.0000
  H   H181      1.0  0.38521  0.27798  0.97078  1.0000
  H   H182      1.0  0.55313  0.26765  0.14373  1.0000
  C   C105      1.0  0.83527  0.24300  0.02109  1.0000
  Fe  Fe11      1.0  0.87726  0.31066  0.11790  1.0000
  C   C106      1.0  0.32029  0.19138  0.01581  1.0000
  H   H183      1.0  0.13154  0.18424  0.10567  1.0000
  C   C107      1.0  0.41254  0.19512  0.14854  1.0000
  C   C108      1.0  0.59947  0.33323  0.18432  1.0000
  C   C109      1.0  0.04753  0.29925  0.19590  1.0000
  H   H184      1.0  0.59252  0.27011  0.04551  1.0000
  S   S20       1.0  0.27296  0.33233  0.12895  1.0000
  H   H185      1.0  0.22059  0.35153  0.04337  1.0000
  H   H186      1.0  0.00652  0.15867  0.16000  1.0000
  S   S21       1.0  0.27121  0.30129  0.98733  1.0000
  C   C110      1.0  0.65559  0.13773  0.15818  1.0000
  C   C111      1.0  0.40805  0.36444  0.00479  1.0000
  H   H187      1.0  0.60283  0.22001  0.07647  1.0000
  H   H188      1.0  0.92747  0.24385  0.00276  1.0000
  H   H189      1.0  0.98059  0.20485  0.13213  1.0000
  S   S22       1.0  0.79625  0.32250  0.08451  1.0000
  H   H190      1.0  0.50116  0.30534  0.00159  1.0000
  Fe  Fe12      1.0  0.80769  0.36527  0.12569  1.0000
  H   H191      1.0  0.90979  0.28736  0.98158  1.0000
  H   H192      1.0  0.89244  0.23009  0.18024  1.0000
  S   S23       1.0  0.33499  0.28765  0.19586  1.0000
  N   N6        1.0  0.57241  0.35506  0.02393  1.0000
  C   C112      1.0  0.09862  0.21020  0.20003  1.0000
  S   S24       1.0  0.43038  0.35289  0.17566  1.0000
  H   H193      1.0  0.06184  0.18417  0.08363  1.0000
  H   H194      1.0  0.79955  0.24594  0.09553  1.0000
  H   H195      1.0  0.45938  0.29288  0.15542  1.0000
  C   C113      1.0  0.56642  0.20578  0.08471  1.0000
  H   H196      1.0  0.51507  0.27215  0.06014  1.0000
  C   C114      1.0  0.60250  0.30428  0.16704  1.0000
  S   S25       1.0  0.95533  0.28929  0.07649  1.0000
  H   H197      1.0  0.07864  0.29176  0.05485  1.0000
  C   C115      1.0  0.56741  0.20874  0.19213  1.0000
  H   H198      1.0  0.00036  0.35291  0.08762  1.0000
  C   C116      1.0  0.54605  0.34796  0.18921  1.0000
  Fe  Fe13      1.0  0.29191  0.29925  0.06514  1.0000
  H   H199      1.0  0.42418  0.17794  0.97552  1.0000
  Fe  Fe14      1.0  0.24714  0.29467  0.16858  1.0000
  C   C117      1.0  0.54996  0.27332  0.03058  1.0000
  H   H200      1.0  0.94051  0.15232  0.99912  1.0000
  C   C118      1.0  0.91511  0.23141  0.21461  1.0000
  H   H201      1.0  0.53250  0.21892  0.10692  1.0000
  S   S26       1.0  0.66901  0.28563  0.15534  1.0000
  C   C119      1.0  0.02581  0.34712  0.00976  1.0000
  H   H202      1.0  0.83439  0.21214  0.07460  1.0000
  H   H203      1.0  0.41056  0.23401  0.00298  1.0000
  Fe  Fe15      1.0  0.36231  0.32245  0.14990  1.0000
  H   H204      1.0  0.98136  0.35240  0.00062  1.0000
  H   H205      1.0  0.57095  0.15163  0.19100  1.0000
  H   H206      1.0  0.54422  0.25589  0.00120  1.0000
  C   C120      1.0  0.10474  0.29849  0.17564  1.0000
  C   C121      1.0  0.96390  0.20915  0.21082  1.0000
  C   C122      1.0  0.13646  0.22428  0.04517  1.0000
  C   C123      1.0  0.62299  0.35365  0.98594  1.0000
  H   H207      1.0  0.09608  0.23379  0.19977  1.0000
  S   S27       1.0  0.38383  0.29376  0.08118  1.0000
  H   H208      1.0  0.61112  0.31995  0.05563  1.0000
  H   H209      1.0  0.64584  0.35644  0.10389  1.0000
  S   S28       1.0  0.40995  0.22113  0.10832  1.0000
  H   H210      1.0  0.57593  0.18729  0.00829  1.0000
  H   H211      1.0  0.94397  0.18783  0.20928  1.0000
  C   C124      1.0  0.89723  0.15247  0.10642  1.0000
  S   S29       1.0  0.83019  0.29485  0.18351  1.0000
  H   H212      1.0  0.79629  0.23323  0.00661  1.0000
  H   H213      1.0  0.11502  0.35635  0.98652  1.0000
  H   H214      1.0  0.08493  0.13812  0.10725  1.0000
  C   C125      1.0  0.01271  0.29405  0.11448  1.0000
  C   C126      1.0  0.00160  0.29737  0.16539  1.0000
  H   H215      1.0  0.95764  0.29790  0.18141  1.0000
  H   H216      1.0  0.66229  0.34517  0.00090  1.0000
  H   H217      1.0  0.87733  0.24331  0.08970  1.0000
  H   H218      1.0  0.75706  0.24107  0.17062  1.0000
  S   S30       1.0  0.75561  0.35548  0.19381  1.0000
  C   C127      1.0  0.08946  0.19583  0.11042  1.0000
  C   C128      1.0  0.24038  0.35747  0.00916  1.0000
  C   C129      1.0  0.03362  0.36089  0.06161  1.0000
  H   H219      1.0  0.15952  0.29709  0.10868  1.0000
  H   H220      1.0  0.86705  0.16066  0.08132  1.0000
  C   C130      1.0  0.16358  0.20185  0.19659  1.0000
  C   C131      1.0  0.55146  0.28986  0.15752  1.0000
  H   H221      1.0  0.13729  0.14629  0.15129  1.0000
  H   H222      1.0  0.40550  0.34510  0.97841  1.0000
  H   H223      1.0  0.54617  0.37603  0.09578  1.0000
  H   H224      1.0  0.02955  0.32379  0.01017  1.0000
  Fe  Fe16      1.0  0.74999  0.31171  0.15463  1.0000
  H   H225      1.0  0.51682  0.21233  0.02244  1.0000
  H   H226      1.0  0.83069  0.26646  0.02229  1.0000
  H   H227      1.0  0.04641  0.16356  0.21262  1.0000
  H   H228      1.0  0.63818  0.34447  0.19302  1.0000
  C   C132      1.0  0.54114  0.19496  0.03635  1.0000
  S   S31       1.0  0.16211  0.29762  0.21382  1.0000
  C   C133      1.0  0.69341  0.25602  0.98155  1.0000
  C   C134      1.0  0.63909  0.37702  0.08897  1.0000
  C   C135      1.0  0.54686  0.30173  0.00898  1.0000
  C   C136      1.0  0.56828  0.32655  0.04421  1.0000
  C   C137      1.0  0.46132  0.36278  0.03405  1.0000
  H   H229      1.0  0.69969  0.14597  0.15094  1.0000
  C   C138      1.0  0.07135  0.35816  0.97255  1.0000
  C   C139      1.0  0.04957  0.16517  0.17239  1.0000
  H   H230      1.0  0.45691  0.34369  0.05417  1.0000
  C   C140      1.0  0.49812  0.30440  0.16324  1.0000
  S   S32       1.0  0.89203  0.35430  0.15415  1.0000
  C   C141      1.0  0.51812  0.36201  0.00017  1.0000
  H   H231      1.0  0.07696  0.35547  0.07319  1.0000
  C   C142      1.0  0.76104  0.22045  0.18610  1.0000
  S   S33       1.0  0.26145  0.26197  0.10332  1.0000
  H   H232      1.0  0.13099  0.30914  0.98058  1.0000
  C   C143      1.0  0.06976  0.29414  0.09415  1.0000
  H   H233      1.0  0.28410  0.20687  0.02662  1.0000
  C   C144      1.0  0.11567  0.29691  0.12472  1.0000
  H   H234      1.0  0.36840  0.36562  0.03023  1.0000
  Fe  Fe17      1.0  0.35213  0.25938  0.12579  1.0000
  H   H235      1.0  0.71054  0.26112  0.01692  1.0000
  C   C145      1.0  0.09130  0.14131  0.14714  1.0000
  H   H236      1.0  0.66182  0.22256  0.13689  1.0000
  H   H237      1.0  0.89731  0.20963  0.99597  1.0000
  H   H238      1.0  0.11522  0.21109  0.01599  1.0000
  H   H239      1.0  0.05780  0.23591  0.08789  1.0000
  H   H240      1.0  0.12251  0.23932  0.12105  1.0000
  H   H241      1.0  0.57646  0.23095  0.18430  1.0000
  H   H242      1.0  0.01299  0.23489  0.16274  1.0000
  C   C146      1.0  0.61463  0.16110  0.18552  1.0000
  C   C147      1.0  0.70101  0.20937  0.19926  1.0000
  C   C148      1.0  0.00525  0.21173  0.16455  1.0000
  C   C149      1.0  0.27515  0.16739  0.08773  1.0000
  H   H243      1.0  0.26620  0.14648  0.10151  1.0000
  H   H244      1.0  0.52262  0.20455  0.18182  1.0000
  H   H245      1.0  0.69581  0.18895  0.12517  1.0000
  H   H246      1.0  0.94195  0.15185  0.08877  1.0000
  C   C150      1.0  0.66740  0.20217  0.15319  1.0000
  N   N7        1.0  0.06209  0.19548  0.16183  1.0000
  H   H247      1.0  0.54909  0.16612  0.11563  1.0000
  C   C151      1.0  0.83723  0.23552  0.07350  1.0000
  C   C152      1.0  0.09975  0.22573  0.09359  1.0000
  H   H248      1.0  0.61948  0.16844  0.08648  1.0000
  H   H249      1.0  0.17992  0.21538  0.04953  1.0000
  S   S34       1.0  0.69500  0.20073  0.00249  1.0000
  C   C153      1.0  0.88969  0.23208  0.98868  1.0000
  N   N8        1.0  0.60967  0.18829  0.16156  1.0000
  H   H250      1.0  0.51069  0.17737  0.04124  1.0000
  H   H251      1.0  0.57303  0.29954  0.97353  1.0000
  C   C154      1.0  0.40359  0.20202  0.19903  1.0000
  C   C155      1.0  0.58644  0.18058  0.11199  1.0000
  H   H252      1.0  0.14211  0.24611  0.03418  1.0000
  H   H253      1.0  0.27804  0.14928  0.01302  1.0000
  H   H254      1.0  0.78606  0.20487  0.15956  1.0000
  H   H255      1.0  0.30231  0.17996  0.11343  1.0000
  H   H256      1.0  0.89555  0.16737  0.14040  1.0000
  H   H257      1.0  0.18525  0.20617  0.16092  1.0000
  H   H258      1.0  0.35626  0.20024  0.03569  1.0000
  H   H259      1.0  0.54390  0.37046  0.20145  1.0000
  H   H260      1.0  0.21154  0.18038  0.98340  1.0000
  H   H261      1.0  0.23348  0.17881  0.08642  1.0000
  C   C156      1.0  0.44224  0.14726  0.16112  1.0000
  H   H262      1.0  0.34677  0.15060  0.03949  1.0000
  H   H263      1.0  0.16918  0.17915  0.20202  1.0000
  H   H264      1.0  0.67578  0.37984  0.06190  1.0000
  H   H265      1.0  0.39046  0.22343  0.21374  1.0000
  C   C157      1.0  0.58032  0.37773  0.06558  1.0000
  H   H266      1.0  0.29328  0.16883  0.21777  1.0000
  Fe  Fe18      1.0  0.83916  0.33951  0.21811  1.0000
  H   H267      1.0  0.58101  0.33542  0.40844  1.0000
  H   H268      1.0  0.78705  0.23008  0.31957  1.0000
  C   C158      1.0  0.07874  0.37206  0.40664  1.0000
  S   S35       1.0  0.39432  0.18215  0.36552  1.0000
  H   H269      1.0  0.61075  0.15989  0.30407  1.0000
  H   H270      1.0  0.71472  0.16533  0.42711  1.0000
  H   H271      1.0  0.32187  0.15481  0.27013  1.0000
  H   H272      1.0  0.55231  0.25389  0.26816  1.0000
  C   C159      1.0  0.89741  0.32916  0.37756  1.0000
  H   H273      1.0  0.52489  0.23217  0.31476  1.0000
  S   S36       1.0  0.88952  0.18750  0.32229  1.0000
  H   H274      1.0  0.20613  0.30200  0.44841  1.0000
  H   H275      1.0  0.00858  0.29692  0.33630  1.0000
  S   S37       1.0  0.91781  0.25202  0.42575  1.0000
  H   H276      1.0  0.05263  0.23360  0.44031  1.0000
  S   S38       1.0  0.22881  0.18804  0.39695  1.0000
  C   C160      1.0  0.90215  0.27882  0.38869  1.0000
  C   C161      1.0  0.04192  0.25449  0.31747  1.0000
  C   C162      1.0  0.25369  0.30212  0.32098  1.0000
  H   H277      1.0  0.60610  0.20794  0.26396  1.0000
  H   H278      1.0  0.90308  0.35110  0.39174  1.0000
  C   C163      1.0  0.12510  0.18851  0.35649  1.0000
  C   C164      1.0  0.87852  0.32269  0.33055  1.0000
  H   H279      1.0  0.66681  0.23983  0.37400  1.0000
  C   C165      1.0  0.11920  0.32081  0.45019  1.0000
  C   C166      1.0  0.74018  0.26488  0.40265  1.0000
  C   C167      1.0  0.07810  0.17597  0.33383  1.0000
  H   H280      1.0  0.64944  0.28441  0.35376  1.0000
  H   H281      1.0  0.98666  0.21202  0.24489  1.0000
  C   C168      1.0  0.28234  0.15762  0.25072  1.0000
  H   H282      1.0  0.17251  0.28115  0.31681  1.0000
  H   H283      1.0  0.67786  0.22657  0.22374  1.0000
  Fe  Fe19      1.0  0.41213  0.13849  0.32718  1.0000
  H   H284      1.0  0.10630  0.27156  0.38793  1.0000
  S   S39       1.0  0.86395  0.35083  0.29549  1.0000
  H   H285      1.0  0.01355  0.24435  0.34477  1.0000
  C   C169      1.0  0.19507  0.29451  0.34484  1.0000
  H   H286      1.0  0.24224  0.21473  0.23094  1.0000
  H   H287      1.0  0.03842  0.30123  0.23511  1.0000
  C   C170      1.0  0.71460  0.23843  0.37403  1.0000
  H   H288      1.0  0.12446  0.21114  0.36768  1.0000
  C   C171      1.0  0.19499  0.21912  0.23648  1.0000
  H   H289      1.0  0.67984  0.31689  0.37818  1.0000
  H   H290      1.0  0.48539  0.23493  0.26131  1.0000
  H   H291      1.0  0.04976  0.34021  0.35291  1.0000
  C   C172      1.0  0.07921  0.14680  0.31864  1.0000
  C   C173      1.0  0.56328  0.20811  0.24872  1.0000
  H   H292      1.0  0.03992  0.28683  0.41358  1.0000
  H   H293      1.0  0.17939  0.21356  0.27336  1.0000
  H   H294      1.0  0.73067  0.25280  0.30142  1.0000
  N   N9        1.0  0.70328  0.27735  0.44726  1.0000
  H   H295      1.0  0.21467  0.13318  0.22015  1.0000
  C   C174      1.0  0.12765  0.13023  0.32562  1.0000
  H   H296      1.0  0.61208  0.27275  0.43464  1.0000
  H   H297      1.0  0.41077  0.18735  0.26942  1.0000
  H   H298      1.0  0.12211  0.37656  0.38961  1.0000
  C   C175      1.0  0.73975  0.23401  0.32105  1.0000
  H   H299      1.0  0.87894  0.25029  0.32772  1.0000
  N   N10       1.0  0.10497  0.31787  0.39726  1.0000
  C   C176      1.0  0.06091  0.34094  0.39170  1.0000
  H   H300      1.0  0.78340  0.25821  0.41333  1.0000
  S   S40       1.0  0.82027  0.18681  0.43097  1.0000
  H   H301      1.0  0.77514  0.32186  0.41355  1.0000
  H   H302      1.0  0.62981  0.16527  0.22269  1.0000
  C   C177      1.0  0.64470  0.30167  0.38435  1.0000
  H   H303      1.0  0.18734  0.33758  0.38179  1.0000
  C   C178      1.0  0.88358  0.27224  0.34173  1.0000
  H   H304      1.0  0.75018  0.28110  0.37695  1.0000
  H   H305      1.0  0.02101  0.25330  0.28237  1.0000
  C   C179      1.0  0.87147  0.29413  0.31280  1.0000
  H   H306      1.0  0.55057  0.30210  0.38420  1.0000
  H   H307      1.0  0.01972  0.33726  0.41361  1.0000
  H   H308      1.0  0.85667  0.28881  0.27694  1.0000
  Fe  Fe20      1.0  0.81477  0.16421  0.35578  1.0000
  C   C180      1.0  0.05106  0.28570  0.33471  1.0000
  Fe  Fe21      1.0  0.89959  0.20663  0.39933  1.0000
  H   H309      1.0  0.27992  0.31395  0.34835  1.0000
  H   H310      1.0  0.27767  0.28232  0.30588  1.0000
  C   C181      1.0  0.57088  0.17801  0.42481  1.0000
  H   H311      1.0  0.08411  0.24294  0.31130  1.0000
  C   C182      1.0  0.07626  0.28966  0.38562  1.0000
  H   H312      1.0  0.62993  0.30629  0.46379  1.0000
  S   S41       1.0  0.73109  0.15529  0.32068  1.0000
  H   H313      1.0  0.04069  0.18886  0.32857  1.0000
  C   C183      1.0  0.64606  0.28936  0.43467  1.0000
  H   H314      1.0  0.20317  0.28095  0.37413  1.0000
  H   H315      1.0  0.08124  0.20635  0.23747  1.0000
  C   C184      1.0  0.15834  0.32172  0.36365  1.0000
  C   C185      1.0  0.17366  0.14265  0.35014  1.0000
  H   H316      1.0  0.71963  0.21512  0.30227  1.0000
  H   H317      1.0  0.92355  0.31250  0.44286  1.0000
  H   H318      1.0  0.25127  0.17093  0.27609  1.0000
  H   H319      1.0  0.58686  0.32484  0.34339  1.0000
  H   H320      1.0  0.14663  0.33115  0.33004  1.0000
  H   H321      1.0  0.07996  0.29475  0.30666  1.0000
  C   C186      1.0  0.90902  0.30731  0.40653  1.0000
  C   C187      1.0  0.58718  0.31693  0.38007  1.0000
  H   H322      1.0  0.24791  0.31533  0.29044  1.0000
  C   C188      1.0  0.52934  0.23390  0.27469  1.0000
  H   H323      1.0  0.88323  0.22781  0.24525  1.0000
  H   H324      1.0  0.07416  0.20038  0.46182  1.0000
  Fe  Fe22      1.0  0.43477  0.16526  0.42817  1.0000
  Fe  Fe23      1.0  0.94344  0.15175  0.34329  1.0000
  H   H325      1.0  0.72511  0.21916  0.39176  1.0000
  C   C189      1.0  0.61512  0.16463  0.34279  1.0000
  Fe  Fe24      1.0  0.31236  0.16313  0.39526  1.0000
  S   S42       1.0  0.95897  0.17229  0.41837  1.0000
  H   H326      1.0  0.54027  0.18865  0.25843  1.0000
  C   C190      1.0  0.41546  0.18157  0.23061  1.0000
  C   C191      1.0  0.62506  0.17608  0.44354  1.0000
  C   C192      1.0  0.67407  0.16834  0.41192  1.0000
  C   C193      1.0  0.17258  0.17185  0.36544  1.0000
  C   C194      1.0  0.66954  0.16327  0.36131  1.0000
  H   H327      1.0  0.14880  0.27666  0.45526  1.0000
  Fe  Fe25      1.0  0.87824  0.15040  0.44236  1.0000
  C   C195      1.0  0.56598  0.17215  0.37436  1.0000
  H   H328      1.0  0.12565  0.22828  0.45733  1.0000
  H   H329      1.0  0.52429  0.17360  0.35949  1.0000
  H   H330      1.0  0.16066  0.14063  0.46010  1.0000
  H   H331      1.0  0.18824  0.24225  0.23506  1.0000
  H   H332      1.0  0.93260  0.25315  0.22183  1.0000
  H   H333      1.0  0.70704  0.19048  0.21926  1.0000
  S   S43       1.0  0.01752  0.13083  0.29574  1.0000
  H   H334      1.0  0.07939  0.37615  0.44707  1.0000
  H   H335      1.0  0.66582  0.23673  0.46079  1.0000
  C   C196      1.0  0.75169  0.32694  0.44999  1.0000
  H   H336      1.0  0.71125  0.33893  0.44601  1.0000
  S   S44       1.0  0.50904  0.18605  0.46461  1.0000
  S   S45       1.0  0.35093  0.15068  0.46285  1.0000
  C   C197      1.0  0.16217  0.29873  0.46547  1.0000
  C   C198      1.0  0.07936  0.22385  0.46633  1.0000
  H   H337      1.0  0.13896  0.34177  0.46003  1.0000
  H   H338      1.0  0.79810  0.36644  0.46233  1.0000
  H   H339      1.0  0.78482  0.22415  0.21965  1.0000
  H   H340      1.0  0.41478  0.52087  0.48732  1.0000
  S   S46       1.0  0.70448  0.57351  0.63387  1.0000
  H   H341      1.0  0.83639  0.50248  0.52998  1.0000
  C   C199      1.0  0.45885  0.54857  0.70592  1.0000
  H   H342      1.0  0.91103  0.50304  0.71658  1.0000
  H   H343      1.0  0.66498  0.42828  0.59023  1.0000
  H   H344      1.0  0.98581  0.48228  0.55998  1.0000
  H   H345      1.0  0.26111  0.44180  0.61884  1.0000
  C   C200      1.0  0.17518  0.53494  0.52168  1.0000
  H   H346      1.0  0.61041  0.42612  0.69543  1.0000
  H   H347      1.0  0.70725  0.39065  0.63360  1.0000
  C   C201      1.0  0.33519  0.51203  0.52654  1.0000
  C   C202      1.0  0.76431  0.46964  0.63228  1.0000
  Fe  Fe26      1.0  0.71081  0.53020  0.65936  1.0000
  H   H348      1.0  0.99154  0.44662  0.48418  1.0000
  S   S47       1.0  0.98836  0.40863  0.55728  1.0000
  C   C203      1.0  0.91156  0.60754  0.68943  1.0000
  H   H349      1.0  0.98917  0.56734  0.63085  1.0000
  S   S48       1.0  0.08469  0.43637  0.62888  1.0000
  H   H350      1.0  0.59292  0.41625  0.60696  1.0000
  S   S49       1.0  0.18712  0.38386  0.68084  1.0000
  C   C204      1.0  0.77182  0.47393  0.68229  1.0000
  Fe  Fe27      1.0  0.64989  0.58424  0.70388  1.0000
  H   H351      1.0  0.85691  0.38797  0.71590  1.0000
  S   S50       1.0  0.29449  0.59433  0.63679  1.0000
  H   H352      1.0  0.89638  0.61664  0.54638  1.0000
  H   H353      1.0  0.32974  0.49130  0.50446  1.0000
  H   H354      1.0  0.35631  0.50811  0.56027  1.0000
  C   C205      1.0  0.99855  0.56827  0.59108  1.0000
  S   S51       1.0  0.79043  0.54019  0.69919  1.0000
  H   H355      1.0  0.07275  0.58070  0.54555  1.0000
  C   C206      1.0  0.97202  0.50942  0.65450  1.0000
  C   C207      1.0  0.80344  0.45234  0.60124  1.0000
  C   C208      1.0  0.50878  0.59360  0.70637  1.0000
  H   H356      1.0  0.33481  0.56955  0.53894  1.0000
  H   H357      1.0  0.91005  0.54278  0.64330  1.0000
  H   H358      1.0  0.01353  0.52064  0.64990  1.0000
  H   H359      1.0  0.08974  0.56932  0.60385  1.0000
  H   H360      1.0  0.52244  0.61174  0.49318  1.0000
  H   H361      1.0  0.90646  0.54407  0.51245  1.0000
  S   S52       1.0  0.19974  0.56964  0.53560  1.0000
  H   H362      1.0  0.88605  0.50772  0.63022  1.0000
  S   S53       1.0  0.11276  0.44448  0.48467  1.0000
  C   C209      1.0  0.13411  0.49143  0.54771  1.0000
  N   N11       1.0  0.94022  0.52286  0.57114  1.0000
  H   H363      1.0  0.49228  0.60409  0.57157  1.0000
  Fe  Fe28      1.0  0.77812  0.58423  0.68032  1.0000
  C   C210      1.0  0.13654  0.47927  0.49919  1.0000
  H   H364      1.0  0.91027  0.47964  0.55776  1.0000
  Fe  Fe29      1.0  0.99542  0.41887  0.63789  1.0000
  H   H365      1.0  0.78640  0.56351  0.54159  1.0000
  C   C211      1.0  0.83338  0.52425  0.54942  1.0000
  C   C212      1.0  0.95404  0.51249  0.70934  1.0000
  H   H366      1.0  0.15213  0.52800  0.59657  1.0000
  H   H367      1.0  0.38295  0.39173  0.64192  1.0000
  H   H368      1.0  0.70696  0.59156  0.48727  1.0000
  H   H369      1.0  0.30397  0.47019  0.68941  1.0000
  H   H370      1.0  0.45980  0.52556  0.69998  1.0000
  S   S54       1.0  0.85449  0.60718  0.65123  1.0000
  H   H371      1.0  0.79735  0.44868  0.56249  1.0000
  H   H372      1.0  0.68018  0.43880  0.67962  1.0000
  H   H373      1.0  0.74766  0.53128  0.52576  1.0000
  H   H374      1.0  0.05657  0.60348  0.60114  1.0000
  C   C213      1.0  0.20890  0.46742  0.70760  1.0000
  C   C214      1.0  0.05821  0.58109  0.58474  1.0000
  H   H375      1.0  0.49181  0.56316  0.52051  1.0000
  C   C215      1.0  0.85263  0.44127  0.62011  1.0000
  S   S55       1.0  0.18821  0.55662  0.68049  1.0000
  H   H376      1.0  0.22146  0.47336  0.60750  1.0000
  H   H377      1.0  0.80581  0.54184  0.48447  1.0000
  H   H378      1.0  0.88334  0.42851  0.59604  1.0000
  C   C216      1.0  0.26084  0.46548  0.62283  1.0000
  H   H379      1.0  0.42883  0.62798  0.51308  1.0000
  C   C217      1.0  0.37213  0.53164  0.49665  1.0000
  H   H380      1.0  0.29167  0.52164  0.53713  1.0000
  C   C218      1.0  0.96313  0.62029  0.67488  1.0000
  H   H381      1.0  0.17243  0.48043  0.69683  1.0000
  C   C219      1.0  0.63906  0.40963  0.59956  1.0000
  Fe  Fe30      1.0  0.11369  0.39183  0.63526  1.0000
  H   H382      1.0  0.96711  0.58302  0.57786  1.0000
  H   H383      1.0  0.81494  0.52288  0.58741  1.0000
  C   C220      1.0  0.47407  0.57139  0.48800  1.0000
  H   H384      1.0  0.03340  0.52541  0.57157  1.0000
  C   C221      1.0  0.66167  0.39731  0.64393  1.0000
  H   H385      1.0  0.26275  0.50068  0.67868  1.0000
  H   H386      1.0  0.05190  0.62700  0.68931  1.0000
  H   H387      1.0  0.99877  0.49863  0.47802  1.0000
  Fe  Fe31      1.0  0.08093  0.42149  0.54905  1.0000
  C   C222      1.0  0.86251  0.44773  0.66964  1.0000
  H   H388      1.0  0.76194  0.40894  0.69496  1.0000
  C   C223      1.0  0.99608  0.53832  0.56270  1.0000
  C   C224      1.0  0.15405  0.51903  0.55898  1.0000
  H   H389      1.0  0.41837  0.39277  0.69822  1.0000
  H   H390      1.0  0.59486  0.57233  0.49007  1.0000
  Fe  Fe32      1.0  0.27321  0.57275  0.70408  1.0000
  H   H391      1.0  0.00463  0.54120  0.52317  1.0000
  Fe  Fe33      1.0  0.20632  0.58186  0.61622  1.0000
  H   H392      1.0  0.19943  0.44497  0.69437  1.0000
  C   C225      1.0  0.50981  0.56385  0.69859  1.0000
  C   C226      1.0  0.65679  0.41958  0.68979  1.0000
  H   H393      1.0  0.91427  0.44871  0.48043  1.0000
  H   H394      1.0  0.97987  0.48648  0.64248  1.0000
  H   H395      1.0  0.64285  0.39322  0.56748  1.0000
  S   S56       1.0  0.16378  0.62187  0.65314  1.0000
  H   H396      1.0  0.42720  0.59489  0.60520  1.0000
  H   H397      1.0  0.54952  0.55259  0.68600  1.0000
  N   N12       1.0  0.41320  0.58271  0.50037  1.0000
  C   C227      1.0  0.41231  0.61023  0.53366  1.0000
  H   H398      1.0  0.88481  0.55999  0.57171  1.0000
  S   S57       1.0  0.57272  0.61299  0.70123  1.0000
  C   C228      1.0  0.37888  0.56103  0.52638  1.0000
  S   S58       1.0  0.92763  0.43872  0.69319  1.0000
  C   C229      1.0  0.94760  0.49284  0.54677  1.0000
  H   H399      1.0  0.02747  0.61554  0.48985  1.0000
  C   C230      1.0  0.26252  0.47705  0.67666  1.0000
  H   H400      1.0  0.11696  0.47969  0.57670  1.0000
  C   C231      1.0  0.01191  0.61784  0.70127  1.0000
  C   C232      1.0  0.82088  0.46319  0.70093  1.0000
  C   C233      1.0  0.44612  0.61006  0.58043  1.0000
  C   C234      1.0  0.89290  0.53888  0.55016  1.0000
  C   C235      1.0  0.79081  0.54134  0.52365  1.0000
  H   H401      1.0  0.92172  0.50065  0.47314  1.0000
  H   H402      1.0  0.13573  0.61669  0.49940  1.0000
  H   H403      1.0  0.39913  0.55673  0.56039  1.0000
  C   C236      1.0  0.95649  0.48974  0.49003  1.0000
  H   H404      1.0  0.36711  0.61665  0.54679  1.0000
  C   C237      1.0  0.17701  0.52300  0.47286  1.0000
  C   C238      1.0  0.92436  0.52147  0.62505  1.0000
  H   H405      1.0  0.29937  0.47267  0.60146  1.0000
  H   H406      1.0  0.74062  0.48662  0.70658  1.0000
  S   S59       1.0  0.71075  0.48956  0.60929  1.0000
  C   C239      1.0  0.95620  0.45842  0.46985  1.0000
  H   H407      1.0  0.30872  0.61134  0.48790  1.0000
  H   H408      1.0  0.78288  0.59736  0.47172  1.0000
  H   H409      1.0  0.86723  0.58481  0.74477  1.0000
  H   H410      1.0  0.58562  0.48808  0.83570  1.0000
  S   S60       1.0  0.74879  0.53585  0.83427  1.0000
  C   C240      1.0  0.00930  0.60295  0.74249  1.0000
  H   H411      1.0  0.49329  0.55345  0.88518  1.0000
  H   H412      1.0  0.87469  0.48237  0.90199  1.0000
  C   C241      1.0  0.68530  0.60516  0.92003  1.0000
  H   H413      1.0  0.65888  0.49261  0.81171  1.0000
  H   H414      1.0  0.67796  0.58686  0.84577  1.0000
  H   H415      1.0  0.02783  0.47329  0.79506  1.0000
  C   C242      1.0  0.16133  0.39762  0.84791  1.0000
  H   H416      1.0  0.36461  0.60426  0.73521  1.0000
  H   H417      1.0  0.91738  0.55348  0.85241  1.0000
  H   H418      1.0  0.49913  0.60778  0.96723  1.0000
  C   C243      1.0  0.73884  0.39767  0.72414  1.0000
  C   C244      1.0  0.05094  0.54075  0.86297  1.0000
  C   C245      1.0  0.14942  0.47311  0.78537  1.0000
  H   H419      1.0  0.10056  0.57794  0.88678  1.0000
  N   N13       1.0  0.95299  0.53106  0.90901  1.0000
  H   H420      1.0  0.79421  0.42156  0.77453  1.0000
  H   H421      1.0  0.15746  0.42097  0.84777  1.0000
  H   H422      1.0  0.86633  0.38441  0.77928  1.0000
  H   H423      1.0  0.05510  0.44803  0.83372  1.0000
  H   H424      1.0  0.29988  0.39433  0.78265  1.0000
  C   C246      1.0  0.73021  0.56044  0.88496  1.0000
  H   H425      1.0  0.69726  0.43093  0.80760  1.0000
  C   C247      1.0  0.04874  0.45213  0.79538  1.0000
  H   H426      1.0  0.49588  0.51000  0.92702  1.0000
  H   H427      1.0  0.64400  0.46965  0.85978  1.0000
  C   C248      1.0  0.45597  0.61077  0.87711  1.0000
  S   S61       1.0  0.07256  0.59664  0.77119  1.0000
  H   H428      1.0  0.60452  0.46086  0.75505  1.0000
  C   C249      1.0  0.11817  0.38887  0.88765  1.0000
  H   H429      1.0  0.33794  0.61314  0.96070  1.0000
  H   H430      1.0  0.20015  0.50722  0.85409  1.0000
  S   S62       1.0  0.13740  0.47875  0.93730  1.0000
  H   H431      1.0  0.15174  0.38719  0.81134  1.0000
  C   C250      1.0  0.69591  0.58434  0.88022  1.0000
  H   H432      1.0  0.13402  0.61789  0.94326  1.0000
  H   H433      1.0  0.60475  0.38812  0.94100  1.0000
  H   H434      1.0  0.39154  0.56406  0.89229  1.0000
  H   H435      1.0  0.37134  0.40916  0.77770  1.0000
  H   H436      1.0  0.03815  0.52048  0.92970  1.0000
  H   H437      1.0  0.12331  0.42866  0.76247  1.0000
  H   H438      1.0  0.82752  0.46804  0.73928  1.0000
  C   C251      1.0  0.52301  0.61265  0.87690  1.0000
  C   C252      1.0  0.62124  0.45195  0.78718  1.0000
  N   N14       1.0  0.67842  0.41006  0.73625  1.0000
  Fe  Fe34      1.0  0.72875  0.55283  0.76404  1.0000
  H   H439      1.0  0.95204  0.53525  0.72390  1.0000
  H   H440      1.0  0.01932  0.43574  0.77958  1.0000
  C   C253      1.0  0.24176  0.49746  0.77942  1.0000
  C   C254      1.0  0.47016  0.55385  0.92205  1.0000
  H   H441      1.0  0.90581  0.47502  0.79128  1.0000
  C   C255      1.0  0.75155  0.55661  0.93015  1.0000
  C   C256      1.0  0.89070  0.46741  0.82680  1.0000
  C   C257      1.0  0.36455  0.61835  0.92764  1.0000
  H   H442      1.0  0.13081  0.49449  0.78106  1.0000
  H   H443      1.0  0.85347  0.60587  0.92326  1.0000
  H   H444      1.0  0.54273  0.59438  0.89219  1.0000
  C   C258      1.0  0.24414  0.50439  0.83565  1.0000
  C   C259      1.0  0.67983  0.43606  0.77302  1.0000
  H   H445      1.0  0.42625  0.51394  0.90288  1.0000
  H   H446      1.0  0.07493  0.39641  0.87941  1.0000
  C   C260      1.0  0.63749  0.38785  0.75348  1.0000
  H   H447      1.0  0.95413  0.58095  0.79174  1.0000
  H   H448      1.0  0.24376  0.62225  0.85919  1.0000
  H   H449      1.0  0.28711  0.49700  0.76373  1.0000
  C   C261      1.0  0.90741  0.59424  0.73271  1.0000
  C   C262      1.0  0.41477  0.57250  0.92453  1.0000
  H   H450      1.0  0.06093  0.51932  0.84347  1.0000
  C   C263      1.0  0.94937  0.50541  0.87171  1.0000
  S   S63       1.0  0.26201  0.42913  0.94165  1.0000
  C   C264      1.0  0.10834  0.55566  0.87024  1.0000
  H   H451      1.0  0.13462  0.54418  0.89431  1.0000
  C   C265      1.0  0.91844  0.55534  0.89301  1.0000
  C   C266      1.0  0.55076  0.61364  0.82522  1.0000
  C   C267      1.0  0.45554  0.52313  0.93043  1.0000
  C   C268      1.0  0.88902  0.49178  0.86789  1.0000
  H   H452      1.0  0.92008  0.45002  0.83474  1.0000
  H   H453      1.0  0.87218  0.55395  0.90627  1.0000
  S   S64       1.0  0.98475  0.44381  0.93837  1.0000
  N   N15       1.0  0.21099  0.47053  0.76273  1.0000
  H   H454      1.0  0.27550  0.53689  0.88838  1.0000
  H   H455      1.0  0.84667  0.45868  0.82377  1.0000
  H   H456      1.0  0.71074  0.45168  0.75888  1.0000
  H   H457      1.0  0.23427  0.44604  0.82074  1.0000
  H   H458      1.0  0.96310  0.51102  0.83431  1.0000
  H   H459      1.0  0.54634  0.59275  0.80338  1.0000
  H   H460      1.0  0.86512  0.43184  0.92872  1.0000
  C   C269      1.0  0.78071  0.39920  0.76584  1.0000
  C   C270      1.0  0.92785  0.52271  0.95758  1.0000
  C   C271      1.0  0.23830  0.44460  0.78004  1.0000
  H   H461      1.0  0.94854  0.58941  0.94690  1.0000
  H   H462      1.0  0.44524  0.59510  0.84601  1.0000
  H   H463      1.0  0.97926  0.59050  0.88580  1.0000
  H   H464      1.0  0.02588  0.55283  0.83888  1.0000
  H   H465      1.0  0.31220  0.58794  0.88445  1.0000
  H   H466      1.0  0.85645  0.50787  0.86058  1.0000
  H   H467      1.0  0.77685  0.53775  0.93414  1.0000
  H   H468      1.0  0.59751  0.61831  0.82658  1.0000
  C   C272      1.0  0.01630  0.53766  0.91258  1.0000
  C   C273      1.0  0.93908  0.58603  0.90803  1.0000
  H   H469      1.0  0.26710  0.48725  0.85167  1.0000
  H   H470      1.0  0.70597  0.39860  0.91619  1.0000
  C   C274      1.0  0.10627  0.45074  0.76446  1.0000
  H   H471      1.0  0.14834  0.47151  0.82548  1.0000
  H   H472      1.0  0.64894  0.39589  0.83307  1.0000
  H   H473      1.0  0.32275  0.42025  0.83031  1.0000
  C   C275      1.0  0.89362  0.60816  0.89942  1.0000
  H   H474      1.0  0.33016  0.45661  0.77045  1.0000
  H   H475      1.0  0.13316  0.55618  0.83427  1.0000
  H   H476      1.0  0.22109  0.51605  0.76513  1.0000
  C   C276      1.0  0.62802  0.47703  0.82603  1.0000
  H   H477      1.0  0.58857  0.43752  0.80223  1.0000
  C   C277      1.0  0.32540  0.41391  0.79014  1.0000
  C   C278      1.0  0.30236  0.43791  0.76313  1.0000
  C   C279      1.0  0.95640  0.59215  0.75945  1.0000
  H   H478      1.0  0.88319  0.60547  0.86049  1.0000
  H   H479      1.0  0.25480  0.55006  0.83274  1.0000
  H   H480      1.0  0.02253  0.55717  0.93759  1.0000
  H   H481      1.0  0.32183  0.53007  0.83271  1.0000
  C   C280      1.0  0.70946  0.60214  0.96437  1.0000
  H   H482      1.0  0.97999  0.48840  0.87929  1.0000
  H   H483      1.0  0.24707  0.62648  0.92470  1.0000
  H   H484      1.0  0.76085  0.39173  0.79986  1.0000
  S   S65       1.0  0.72344  0.59860  0.74894  1.0000
  H   H485      1.0  0.98618  0.50138  0.72900  1.0000
  N   N16       1.0  0.42354  0.60409  0.92436  1.0000
  C   C281      1.0  0.32643  0.61027  0.88433  1.0000
  C   C282      1.0  0.27610  0.53207  0.84794  1.0000
  H   H486      1.0  0.21482  0.42513  0.76750  1.0000
  Fe  Fe35      1.0  0.15275  0.59788  0.71975  1.0000
  H   H487      1.0  0.20619  0.39213  0.85558  1.0000
  C   C283      1.0  0.45456  0.61650  0.96796  1.0000
  S   S66       1.0  0.23712  0.61199  0.74888  1.0000
  S   S67       1.0  0.34219  0.54439  0.72586  1.0000
  H   H488      1.0  0.30631  0.43034  0.72344  1.0000
  H   H489      1.0  0.12910  0.40044  0.92289  1.0000
  H   H490      1.0  0.09654  0.45502  0.72713  1.0000
  H   H491      1.0  0.59191  0.39545  0.75353  1.0000
  H   H492      1.0  0.49951  0.56176  0.95006  1.0000
  H   H493      1.0  0.88082  0.51853  0.95628  1.0000
  H   H494      1.0  0.34950  0.61259  0.84834  1.0000
  H   H495      1.0  0.38599  0.56802  0.95698  1.0000
  C   C284      1.0  0.26414  0.39370  0.95485  1.0000
  H   H496      1.0  0.91051  0.62994  0.90792  1.0000
  C   C285      1.0  0.83547  0.38133  0.75027  1.0000
  H   H497      1.0  0.43437  0.52223  0.96780  1.0000
  C   C286      1.0  0.40510  0.59291  0.72548  1.0000
  H   H498      1.0  0.65905  0.62361  0.91614  1.0000
  H   H499      1.0  0.78515  0.62308  0.85237  1.0000
  C   C287      1.0  0.87535  0.42744  0.96497  1.0000
  C   C288      1.0  0.63889  0.38189  0.96431  1.0000
  H   H500      1.0  0.94843  0.50240  0.96543  1.0000
  S   S68       1.0  0.64974  0.53958  0.72600  1.0000
  C   C289      1.0  0.27171  0.62889  0.88930  1.0000
  C   C290      1.0  0.45635  0.60806  0.71966  1.0000
  C   C291      1.0  0.40647  0.56314  0.71927  1.0000
  H   H501      1.0  0.64504  0.54420  0.16423  1.0000
  H   H502      1.0  0.14816  0.58656  0.21396  1.0000
  Fe  Fe36      1.0  0.18748  0.45297  0.98420  1.0000
  C   C292      1.0  0.93161  0.43131  0.97939  1.0000
  C   C293      1.0  0.02268  0.49265  0.17223  1.0000
  C   C294      1.0  0.63669  0.61706  0.17395  1.0000
  H   H503      1.0  0.84721  0.58577  0.14429  1.0000
  H   H504      1.0  0.97616  0.47264  0.11317  1.0000
  H   H505      1.0  0.68138  0.39835  0.14997  1.0000
  C   C295      1.0  0.00725  0.57764  0.14577  1.0000
  H   H506      1.0  0.20174  0.44319  0.12841  1.0000
  C   C296      1.0  0.83177  0.41870  0.99795  1.0000
  H   H507      1.0  0.75855  0.42384  0.19256  1.0000
  H   H508      1.0  0.00751  0.55419  0.13633  1.0000
  S   S69       1.0  0.38339  0.56591  0.11076  1.0000
  C   C297      1.0  0.28302  0.58897  0.08138  1.0000
  H   H509      1.0  0.86054  0.52809  0.04701  1.0000
  H   H510      1.0  0.97973  0.58717  0.07673  1.0000
  C   C298      1.0  0.90134  0.41573  0.05884  1.0000
  C   C299      1.0  0.31624  0.54378  0.03907  1.0000
  H   H511      1.0  0.81436  0.58721  0.08721  1.0000
  S   S70       1.0  0.19259  0.48794  0.04524  1.0000
  C   C300      1.0  0.25072  0.45977  0.18984  1.0000
  C   C301      1.0  0.01934  0.51247  0.21365  1.0000
  H   H512      1.0  0.29416  0.45529  0.20205  1.0000
  H   H513      1.0  0.96476  0.58422  0.16514  1.0000
  H   H514      1.0  0.40903  0.38369  0.98469  1.0000
  H   H515      1.0  0.50475  0.56121  0.06116  1.0000
  H   H516      1.0  0.06592  0.62765  0.12695  1.0000
  C   C302      1.0  0.90752  0.53203  0.04908  1.0000
  C   C303      1.0  0.32360  0.56652  0.07476  1.0000
  H   H517      1.0  0.64423  0.39960  0.99325  1.0000
  H   H518      1.0  0.97788  0.55010  0.00845  1.0000
  H   H519      1.0  0.70677  0.55988  0.10531  1.0000
  Fe  Fe37      1.0  0.38058  0.59738  0.17811  1.0000
  H   H520      1.0  0.55471  0.59257  0.12400  1.0000
  H   H521      1.0  0.55846  0.57209  0.01573  1.0000
  H   H522      1.0  0.21834  0.40197  0.02597  1.0000
  C   C304      1.0  0.01694  0.59221  0.09883  1.0000
  C   C305      1.0  0.70145  0.58260  0.12048  1.0000
  H   H523      1.0  0.05672  0.58268  0.07837  1.0000
  H   H524      1.0  0.66528  0.61872  0.20494  1.0000
  H   H525      1.0  0.75980  0.57505  0.00420  1.0000
  H   H526      1.0  0.58299  0.53913  0.10280  1.0000
  H   H527      1.0  0.06251  0.38142  0.97398  1.0000
  H   H528      1.0  0.38185  0.62122  0.02558  1.0000
  H   H529      1.0  0.34776  0.52652  0.03316  1.0000
  H   H530      1.0  0.91381  0.54700  0.08200  1.0000
  C   C306      1.0  0.93232  0.54448  0.00298  1.0000
  H   H531      1.0  0.88508  0.50003  0.13874  1.0000
  H   H532      1.0  0.28143  0.49791  0.15915  1.0000
  S   S71       1.0  0.10991  0.43327  0.02011  1.0000
  H   H533      1.0  0.20535  0.49341  0.16136  1.0000
  C   C307      1.0  0.76395  0.44728  0.19697  1.0000
  H   H534      1.0  0.75652  0.61290  0.16122  1.0000
  C   C308      1.0  0.18804  0.54739  0.17793  1.0000
  H   H535      1.0  0.81023  0.55524  0.11842  1.0000
  C   C309      1.0  0.23846  0.38595  0.99904  1.0000
  C   C310      1.0  0.23320  0.58769  0.05504  1.0000
  H   H536      1.0  0.21321  0.59171  0.17552  1.0000
  Fe  Fe38      1.0  0.10857  0.47156  0.07552  1.0000
  H   H537      1.0  0.60390  0.40069  0.15748  1.0000
  C   C311      1.0  0.92023  0.52415  0.20028  1.0000
  H   H538      1.0  0.63572  0.54974  0.05713  1.0000
  Fe  Fe39      1.0  0.06006  0.46154  0.97742  1.0000
  C   C312      1.0  0.59851  0.58559  0.10761  1.0000
  C   C313      1.0  0.94449  0.42564  0.02648  1.0000
  H   H539      1.0  0.00610  0.39161  0.17453  1.0000
  C   C314      1.0  0.17327  0.57904  0.17906  1.0000
  H   H540      1.0  0.02870  0.38439  0.06364  1.0000
  H   H541      1.0  0.70710  0.59477  0.08810  1.0000
  S   S72       1.0  0.05328  0.49868  0.03518  1.0000
  C   C315      1.0  0.75324  0.58957  0.15193  1.0000
  H   H542      1.0  0.60946  0.60053  0.07966  1.0000
  H   H543      1.0  0.52127  0.38337  0.98657  1.0000
  H   H544      1.0  0.14749  0.53589  0.18604  1.0000
  C   C316      1.0  0.92284  0.50383  0.15929  1.0000
  S   S73       1.0  0.08702  0.47300  0.15630  1.0000
  C   C317      1.0  0.84474  0.41260  0.04473  1.0000
  H   H545      1.0  0.14673  0.58251  0.14812  1.0000
  H   H546      1.0  0.04193  0.58297  0.17083  1.0000
  H   H547      1.0  0.92947  0.51156  0.05346  1.0000
  H   H548      1.0  0.90640  0.56391  0.99964  1.0000
  H   H549      1.0  0.20073  0.60447  0.06202  1.0000
  C   C318      1.0  0.80966  0.57887  0.12355  1.0000
  H   H550      1.0  0.91135  0.41149  0.09524  1.0000
  H   H551      1.0  0.26069  0.52451  0.98593  1.0000
  H   H552      1.0  0.54595  0.53479  0.02076  1.0000
  Fe  Fe40      1.0  0.13712  0.51262  0.00058  1.0000
  H   H553      1.0  0.42477  0.58898  0.02347  1.0000
  C   C319      1.0  0.97437  0.48839  0.14476  1.0000
  C   C320      1.0  0.56898  0.56403  0.20471  1.0000
  H   H554      1.0  0.57394  0.39936  0.05394  1.0000
  H   H555      1.0  0.53747  0.55960  0.17656  1.0000
  H   H556      1.0  0.57531  0.51927  0.21754  1.0000
  H   H557      1.0  0.64335  0.42198  0.11560  1.0000
  H   H558      1.0  0.20482  0.53969  0.13989  1.0000
  H   H559      1.0  0.25323  0.41842  0.14685  1.0000
  S   S74       1.0  0.15665  0.55895  0.99701  1.0000
  C   C321      1.0  0.59420  0.55586  0.07841  1.0000
  H   H560      1.0  0.78792  0.41665  0.98723  1.0000
  C   C322      1.0  0.22399  0.56390  0.02195  1.0000
  C   C323      1.0  0.24567  0.44112  0.14146  1.0000
  H   H561      1.0  0.85638  0.44585  0.18677  1.0000
  C   C324      1.0  0.46081  0.62628  0.06003  1.0000
  C   C325      1.0  0.54787  0.55609  0.04179  1.0000
  C   C326      1.0  0.24359  0.49187  0.18318  1.0000
  H   H562      1.0  0.28927  0.60711  0.10731  1.0000
  S   S75       1.0  0.78861  0.40318  0.08597  1.0000
  C   C327      1.0  0.64177  0.40100  0.13053  1.0000
  H   H563      1.0  0.27693  0.54701  0.19516  1.0000
  H   H564      1.0  0.27826  0.44721  0.11288  1.0000
  H   H565      1.0  0.59218  0.62078  0.19147  1.0000
  H   H566      1.0  0.44175  0.62088  0.09598  1.0000
  H   H567      1.0  0.98751  0.42900  0.03820  1.0000
  H   H568      1.0  0.46031  0.38174  0.06161  1.0000
  S   S76       1.0  0.45849  0.62122  0.20251  1.0000
  H   H569      1.0  0.74925  0.57934  0.18652  1.0000
  H   H570      1.0  0.90604  0.62422  0.10410  1.0000
  H   H571      1.0  0.76042  0.45537  0.16074  1.0000
  H   H572      1.0  0.98923  0.42703  0.16063  1.0000
  C   C328      1.0  0.26673  0.54256  0.01254  1.0000
  C   C329      1.0  0.63176  0.56582  0.18169  1.0000
  H   H573      1.0  0.06380  0.60968  0.01576  1.0000
  H   H574      1.0  0.96182  0.61747  0.02280  1.0000
  C   C330      1.0  0.99861  0.41401  0.19062  1.0000
  H   H575      1.0  0.50666  0.61895  0.05556  1.0000
  N   N17       1.0  0.64199  0.58782  0.14599  1.0000
  H   H576      1.0  0.65969  0.56995  0.21286  1.0000
  C   C331      1.0  0.23461  0.54199  0.21404  1.0000
  C   C332      1.0  0.82307  0.45467  0.21548  1.0000
  C   C333      1.0  0.42619  0.61203  0.01929  1.0000
  C   C334      1.0  0.02378  0.62478  0.11034  1.0000
  S   S77       1.0  0.85590  0.54341  0.21836  1.0000
  H   H577      1.0  0.21727  0.45296  0.21698  1.0000
  H   H578      1.0  0.85159  0.62197  0.02764  1.0000
  H   H579      1.0  0.90925  0.40774  0.21101  1.0000
  H   H580      1.0  0.03873  0.42171  0.20706  1.0000
  S   S78       1.0  0.70119  0.62897  0.01315  1.0000
  C   C335      1.0  0.74165  0.57760  0.96975  1.0000
  H   H581      1.0  0.83840  0.48584  0.33296  1.0000
  N   N18       1.0  0.88474  0.45063  0.28995  1.0000
  H   H582      1.0  0.99159  0.38996  0.40865  1.0000
  H   H583      1.0  0.87948  0.52318  0.39143  1.0000
  Fe  Fe41      1.0  0.86884  0.58498  0.26385  1.0000
  C   C336      1.0  0.55523  0.61224  0.32182  1.0000
  H   H584      1.0  0.61033  0.58015  0.34517  1.0000
  H   H585      1.0  0.12787  0.54400  0.27078  1.0000
  H   H586      1.0  0.08068  0.53691  0.34990  1.0000
  C   C337      1.0  0.94777  0.41553  0.22941  1.0000
  C   C338      1.0  0.84615  0.43781  0.37575  1.0000
  H   H587      1.0  0.25395  0.60859  0.41449  1.0000
  H   H588      1.0  0.59239  0.54422  0.26893  1.0000
  H   H589      1.0  0.87523  0.49507  0.27885  1.0000
  H   H590      1.0  0.14962  0.49572  0.23548  1.0000
  H   H591      1.0  0.10502  0.62007  0.35089  1.0000
  H   H592      1.0  0.83077  0.39375  0.38913  1.0000
  H   H593      1.0  0.81799  0.41924  0.44239  1.0000
  H   H594      1.0  0.96900  0.49592  0.31182  1.0000
  H   H595      1.0  0.18081  0.54374  0.31413  1.0000
  H   H596      1.0  0.29683  0.57517  0.46420  1.0000
  H   H597      1.0  0.95382  0.53310  0.38039  1.0000
  H   H598      1.0  0.35645  0.50028  0.33547  1.0000
  H   H599      1.0  0.39605  0.57017  0.42455  1.0000
  H   H600      1.0  0.85641  0.45788  0.39794  1.0000
  C   C339      1.0  0.28952  0.50904  0.25758  1.0000
  H   H601      1.0  0.07696  0.50363  0.31183  1.0000
  H   H602      1.0  0.80149  0.43975  0.36451  1.0000
  H   H603      1.0  0.35118  0.53372  0.46220  1.0000
  C   C340      1.0  0.30151  0.60485  0.41054  1.0000
  H   H604      1.0  0.55597  0.58425  0.22684  1.0000
  H   H605      1.0  0.04100  0.62782  0.43024  1.0000
  H   H606      1.0  0.94214  0.48073  0.36591  1.0000
  C   C341      1.0  0.56376  0.54021  0.23835  1.0000
  S   S79       1.0  0.85314  0.62586  0.23143  1.0000
  H   H607      1.0  0.96347  0.45618  0.42944  1.0000
  H   H608      1.0  0.09007  0.57255  0.46283  1.0000
  H   H609      1.0  0.04866  0.41532  0.40224  1.0000
  S   S80       1.0  0.49290  0.59194  0.32709  1.0000
  C   C342      1.0  0.83057  0.44228  0.26489  1.0000
  H   H610      1.0  0.96669  0.54340  0.25966  1.0000
  H   H611      1.0  0.95765  0.40069  0.25661  1.0000
  Fe  Fe42      1.0  0.30556  0.62009  0.26864  1.0000
  H   H612      1.0  0.19213  0.48780  0.28275  1.0000
  H   H613      1.0  0.51844  0.53935  0.25423  1.0000
  S   S81       1.0  0.36055  0.58087  0.25060  1.0000
  H   H614      1.0  0.90273  0.53838  0.33566  1.0000
  H   H615      1.0  0.10533  0.58527  0.40402  1.0000
  H   H616      1.0  0.16063  0.48553  0.42417  1.0000
  C   C343      1.0  0.38729  0.58834  0.45339  1.0000
  H   H617      1.0  0.32904  0.51456  0.23508  1.0000
  H   H618      1.0  0.32276  0.62511  0.40310  1.0000
  N   N19       1.0  0.23655  0.51225  0.22956  1.0000
  C   C344      1.0  0.28927  0.52611  0.30881  1.0000
  H   H619      1.0  0.73819  0.58106  0.42607  1.0000
  H   H620      1.0  0.93482  0.43350  0.34438  1.0000
  H   H621      1.0  0.38300  0.53135  0.30797  1.0000
  C   C345      1.0  0.93774  0.44627  0.25474  1.0000
  H   H622      1.0  0.88682  0.40930  0.31672  1.0000
  C   C346      1.0  0.65855  0.61685  0.32669  1.0000
  H   H623      1.0  0.19360  0.53518  0.44381  1.0000
  C   C347      1.0  0.60813  0.60113  0.33282  1.0000
  S   S82       1.0  0.81228  0.59694  0.33222  1.0000
  S   S83       1.0  0.90758  0.60988  0.44163  1.0000
  C   C348      1.0  0.89071  0.43207  0.33086  1.0000
  H   H624      1.0  0.05634  0.51594  0.23463  1.0000
  H   H625      1.0  0.68197  0.62528  0.42669  1.0000
  H   H626      1.0  0.97753  0.45167  0.27379  1.0000
  H   H627      1.0  0.29571  0.48658  0.26489  1.0000
  H   H628      1.0  0.03326  0.39073  0.35044  1.0000
  H   H629      1.0  0.31183  0.58861  0.37887  1.0000
  C   C349      1.0  0.72438  0.62667  0.44265  1.0000
  H   H630      1.0  0.28073  0.54909  0.30728  1.0000
  C   C350      1.0  0.51777  0.59256  0.46710  1.0000
  H   H631      1.0  0.82741  0.41866  0.25815  1.0000
  C   C351      1.0  0.93036  0.49417  0.33752  1.0000
  C   C352      1.0  0.07294  0.58573  0.43584  1.0000
  H   H632      1.0  0.40867  0.60679  0.43784  1.0000
  S   S84       1.0  0.94953  0.59958  0.29805  1.0000
  C   C353      1.0  0.15100  0.52998  0.29317  1.0000
  H   H633      1.0  0.89109  0.40956  0.41931  1.0000
  H   H634      1.0  0.12910  0.50793  0.35749  1.0000
  H   H635      1.0  0.47427  0.55271  0.45981  1.0000
  C   C354      1.0  0.03525  0.39325  0.39089  1.0000
  H   H636      1.0  0.72873  0.45719  0.22283  1.0000
  C   C355      1.0  0.87923  0.48169  0.30931  1.0000
  H   H637      1.0  0.60749  0.59382  0.43995  1.0000
  C   C356      1.0  0.18245  0.50505  0.25964  1.0000
  H   H638      1.0  0.03245  0.57602  0.42317  1.0000
  H   H639      1.0  0.34544  0.53522  0.36797  1.0000
  C   C357      1.0  0.06017  0.61633  0.45857  1.0000
  C   C358      1.0  0.96856  0.52835  0.22744  1.0000
  C   C359      1.0  0.84675  0.41362  0.40863  1.0000
  H   H640      1.0  0.50385  0.59959  0.43252  1.0000
  Fe  Fe43      1.0  0.43188  0.60823  0.27691  1.0000
  H   H641      1.0  0.93672  0.46117  0.22612  1.0000
  C   C360      1.0  0.34719  0.52298  0.33122  1.0000
  C   C361      1.0  0.32123  0.59467  0.45761  1.0000
  H   H642      1.0  0.69887  0.60804  0.33519  1.0000
  H   H643      1.0  0.22912  0.55827  0.24614  1.0000
  H   H644      1.0  0.25574  0.51777  0.33429  1.0000
  C   C362      1.0  0.91552  0.52401  0.36273  1.0000
  C   C363      1.0  0.10668  0.51885  0.33024  1.0000
  S   S85       1.0  0.22164  0.61529  0.31231  1.0000
  C   C364      1.0  0.73893  0.59741  0.45806  1.0000
  Fe  Fe44      1.0  0.89119  0.61617  0.36368  1.0000
  H   H645      1.0  0.79151  0.44902  0.28931  1.0000
  C   C365      1.0  0.15812  0.49507  0.46171  1.0000
  H   H646      1.0  0.57552  0.55947  0.42901  1.0000
  C   C366      1.0  0.57753  0.57857  0.45601  1.0000
  H   H647      1.0  0.82611  0.47816  0.21916  1.0000
  C   C367      1.0  0.90623  0.64063  0.48392  1.0000
  C   C368      1.0  0.60558  0.85148  0.52428  1.0000
  H   H648      1.0  0.94798  0.87185  0.63682  1.0000
  H   H649      1.0  0.77570  0.72093  0.62623  1.0000
  H   H650      1.0  0.29812  0.66213  0.55649  1.0000
  C   C369      1.0  0.58313  0.87382  0.56712  1.0000
  H   H651      1.0  0.66423  0.85596  0.61165  1.0000
  H   H652      1.0  0.22342  0.85704  0.57085  1.0000
  Fe  Fe45      1.0  0.92954  0.81043  0.52002  1.0000
  S   S86       1.0  0.00514  0.82615  0.47557  1.0000
  S   S87       1.0  0.34442  0.86823  0.57953  1.0000
  H   H653      1.0  0.01568  0.77341  0.51902  1.0000
  S   S88       1.0  0.21924  0.74590  0.49385  1.0000
  H   H654      1.0  0.40593  0.83220  0.64557  1.0000
  H   H655      1.0  0.18823  0.79521  0.58910  1.0000
  S   S89       1.0  0.90444  0.71846  0.59822  1.0000
  H   H656      1.0  0.71821  0.73937  0.60130  1.0000
  H   H657      1.0  0.14374  0.77917  0.69076  1.0000
  H   H658      1.0  0.78773  0.71554  0.53572  1.0000
  H   H659      1.0  0.52749  0.81530  0.67083  1.0000
  H   H660      1.0  0.48355  0.85391  0.59715  1.0000
  C   C370      1.0  0.20923  0.65926  0.53677  1.0000
  H   H661      1.0  0.16708  0.73042  0.65830  1.0000
  H   H662      1.0  0.59706  0.70764  0.60133  1.0000
  H   H663      1.0  0.21933  0.86133  0.65510  1.0000
  H   H664      1.0  0.00014  0.67570  0.63273  1.0000
  H   H665      1.0  0.26422  0.69599  0.55106  1.0000
  S   S90       1.0  0.31466  0.81194  0.46985  1.0000
  H   H666      1.0  0.60088  0.76336  0.61235  1.0000
  H   H667      1.0  0.96897  0.87121  0.57246  1.0000
  H   H668      1.0  0.30993  0.85628  0.70474  1.0000
  H   H669      1.0  0.64690  0.84153  0.53208  1.0000
  H   H670      1.0  0.44401  0.79923  0.62430  1.0000
  H   H671      1.0  0.04459  0.80245  0.66489  1.0000
  S   S91       1.0  0.88233  0.77089  0.49579  1.0000
  N   N20       1.0  0.15393  0.82913  0.64274  1.0000
  H   H672      1.0  0.59633  0.84004  0.70509  1.0000
  C   C371      1.0  0.75452  0.70272  0.55412  1.0000
  Fe  Fe46      1.0  0.42197  0.76852  0.53560  1.0000
  H   H673      1.0  0.65100  0.86615  0.69831  1.0000
  C   C372      1.0  0.15982  0.86944  0.52455  1.0000
  H   H674      1.0  0.09605  0.83968  0.58828  1.0000
  Fe  Fe47      1.0  0.80224  0.79629  0.52331  1.0000
  S   S92       1.0  0.44511  0.81009  0.50802  1.0000
  C   C373      1.0  0.26830  0.67343  0.53492  1.0000
  N   N21       1.0  0.57117  0.86272  0.61652  1.0000
  C   C374      1.0  0.16955  0.77606  0.65510  1.0000
  N   N22       1.0  0.10838  0.66076  0.50169  1.0000
  C   C375      1.0  0.15760  0.74610  0.63236  1.0000
  C   C376      1.0  0.07156  0.67930  0.47442  1.0000
  Fe  Fe48      1.0  0.85489  0.82267  0.61449  1.0000
  H   H675      1.0  0.10074  0.64273  0.57098  1.0000
  H   H676      1.0  0.11354  0.79304  0.60440  1.0000
  S   S93       1.0  0.84077  0.85070  0.68552  1.0000
  C   C377      1.0  0.91135  0.69205  0.50329  1.0000
  H   H677      1.0  0.12737  0.86973  0.62072  1.0000
  H   H678      1.0  0.42408  0.80766  0.68849  1.0000
  C   C378      1.0  0.49671  0.83153  0.66093  1.0000
  C   C379      1.0  0.07461  0.68712  0.58651  1.0000
  H   H679      1.0  0.77598  0.87122  0.60906  1.0000
  C   C380      1.0  0.74181  0.66019  0.67305  1.0000
  H   H680      1.0  0.18849  0.82795  0.53857  1.0000
  H   H681      1.0  0.03359  0.65125  0.54880  1.0000
  Fe  Fe49      1.0  0.35670  0.82453  0.53925  1.0000
  H   H682      1.0  0.53081  0.82421  0.58665  1.0000
  C   C381      1.0  0.26107  0.70178  0.70633  1.0000
  C   C382      1.0  0.56407  0.76386  0.49506  1.0000
  C   C383      1.0  0.51992  0.84330  0.61300  1.0000
  C   C384      1.0  0.21334  0.83808  0.65755  1.0000
  H   H683      1.0  0.96628  0.63056  0.64152  1.0000
  C   C385      1.0  0.07863  0.65887  0.55190  1.0000
  C   C386      1.0  0.28198  0.72932  0.70383  1.0000
  H   H684      1.0  0.48921  0.84850  0.69166  1.0000
  C   C387      1.0  0.65626  0.77685  0.55298  1.0000
  C   C388      1.0  0.15515  0.79854  0.62060  1.0000
  H   H685      1.0  0.16330  0.69668  0.51886  1.0000
  H   H686      1.0  0.11832  0.69515  0.59288  1.0000
  H   H687      1.0  0.52825  0.75915  0.47253  1.0000
  H   H688      1.0  0.84696  0.66045  0.70362  1.0000
  H   H689      1.0  0.11654  0.86315  0.51265  1.0000
  H   H690      1.0  0.04931  0.70372  0.57139  1.0000
  H   H691      1.0  0.69252  0.64313  0.51628  1.0000
  C   C389      1.0  0.43912  0.81678  0.65432  1.0000
  H   H692      1.0  0.39988  0.64463  0.62594  1.0000
  H   H693      1.0  0.21620  0.63644  0.52348  1.0000
  H   H694      1.0  0.72213  0.82677  0.66560  1.0000
  C   C390      1.0  0.56619  0.69535  0.62306  1.0000
  H   H695      1.0  0.76673  0.64865  0.50137  1.0000
  C   C391      1.0  0.90017  0.66164  0.56862  1.0000
  C   C392      1.0  0.22847  0.83352  0.71038  1.0000
  H   H696      1.0  0.57363  0.83446  0.51747  1.0000
  C   C393      1.0  0.68196  0.82280  0.68817  1.0000
  H   H697      1.0  0.07000  0.66815  0.65529  1.0000
  C   C394      1.0  0.10959  0.83435  0.68594  1.0000
  S   S94       1.0  0.49321  0.74850  0.57183  1.0000
  S   S95       1.0  0.29175  0.67390  0.66597  1.0000
  C   C395      1.0  0.63553  0.84518  0.68261  1.0000
  H   H698      1.0  0.62377  0.82438  0.60999  1.0000
  C   C396      1.0  0.66183  0.78095  0.50335  1.0000
  H   H699      1.0  0.24747  0.82736  0.63115  1.0000
  C   C397      1.0  0.62435  0.84651  0.62785  1.0000
  S   S96       1.0  0.93923  0.79927  0.59627  1.0000
  H   H700      1.0  0.02962  0.83745  0.64752  1.0000
  H   H701      1.0  0.66653  0.80110  0.67658  1.0000
  S   S97       1.0  0.84938  0.83705  0.53981  1.0000
  H   H702      1.0  0.31639  0.81788  0.69223  1.0000
  C   C398      1.0  0.55124  0.71239  0.67255  1.0000
  H   H703      1.0  0.58730  0.68267  0.50936  1.0000
  H   H704      1.0  0.19232  0.66086  0.57569  1.0000
  C   C399      1.0  0.72330  0.64980  0.48676  1.0000
  H   H705      1.0  0.10065  0.74312  0.52830  1.0000
  Fe  Fe50      1.0  0.88589  0.76144  0.57369  1.0000
  C   C400      1.0  0.90077  0.63761  0.53407  1.0000
  H   H706      1.0  0.91688  0.71290  0.49112  1.0000
  H   H707      1.0  0.10893  0.85733  0.70019  1.0000
  C   C401      1.0  0.61557  0.77445  0.47436  1.0000
  C   C402      1.0  0.04672  0.82564  0.67627  1.0000
  H   H708      1.0  0.28745  0.67263  0.49659  1.0000
  H   H709      1.0  0.51856  0.67507  0.70511  1.0000
  S   S98       1.0  0.80207  0.78381  0.59982  1.0000
  C   C403      1.0  0.73709  0.71819  0.60469  1.0000
  H   H710      1.0  0.47443  0.64011  0.63858  1.0000
  H   H711      1.0  0.77499  0.68220  0.55990  1.0000
  C   C404      1.0  0.18117  0.84913  0.55945  1.0000
  H   H712      1.0  0.58602  0.67439  0.62788  1.0000
  C   C405      1.0  0.13664  0.84748  0.60404  1.0000
  H   H713      1.0  0.06495  0.70075  0.49432  1.0000
  C   C406      1.0  0.15954  0.76733  0.48562  1.0000
  C   C407      1.0  0.60517  0.76593  0.57366  1.0000
  C   C408      1.0  0.55880  0.75964  0.54480  1.0000
  C   C409      1.0  0.10529  0.76102  0.50693  1.0000
  H   H714      1.0  0.11137  0.74435  0.62456  1.0000
  H   H715      1.0  0.69047  0.78307  0.57592  1.0000
  C   C410      1.0  0.05738  0.77855  0.50247  1.0000
  H   H716      1.0  0.18543  0.74081  0.59801  1.0000
  Fe  Fe51      1.0  0.30170  0.77003  0.50006  1.0000
  S   S99       1.0  0.33637  0.78411  0.57275  1.0000
  H   H717      1.0  0.31574  0.73329  0.67619  1.0000
  H   H718      1.0  0.21628  0.77694  0.66120  1.0000
  H   H719      1.0  0.59188  0.71469  0.69139  1.0000
  H   H720      1.0  0.19064  0.86883  0.49158  1.0000
  H   H721      1.0  0.53598  0.73387  0.66584  1.0000
  Fe  Fe52      1.0  0.25091  0.63235  0.67874  1.0000
  H   H722      1.0  0.68335  0.71959  0.51799  1.0000
  H   H723      1.0  0.04240  0.70401  0.65966  1.0000
  C   C411      1.0  0.79058  0.87875  0.68568  1.0000
  C   C412      1.0  0.70094  0.69829  0.52372  1.0000
  H   H724      1.0  0.66763  0.68875  0.54771  1.0000
  C   C413      1.0  0.50395  0.69741  0.70277  1.0000
  H   H725      1.0  0.70436  0.70601  0.62492  1.0000
  C   C414      1.0  0.29344  0.83564  0.71563  1.0000
  C   C415      1.0  0.04489  0.68325  0.63656  1.0000
  C   C416      1.0  0.44420  0.63958  0.60907  1.0000
  H   H726      1.0  0.84038  0.69402  0.68276  1.0000
  H   H727      1.0  0.45732  0.65615  0.58481  1.0000
  C   C417      1.0  0.90536  0.68892  0.55346  1.0000
  H   H728      1.0  0.89500  0.65906  0.60728  1.0000
  H   H729      1.0  0.46594  0.69535  0.68013  1.0000
  H   H730      1.0  0.76517  0.66594  0.63898  1.0000
  H   H731      1.0  0.52700  0.69200  0.60243  1.0000
  C   C418      1.0  0.16731  0.67377  0.50508  1.0000
  H   H732      1.0  0.12102  0.82292  0.71724  1.0000
  H   H733      1.0  0.69446  0.66292  0.67077  1.0000
  C   C419      1.0  0.61695  0.86518  0.47661  1.0000
  C   C420      1.0  0.11593  0.63107  0.47543  1.0000
  H   H734      1.0  0.96149  0.82547  0.71446  1.0000
  C   C421      1.0  0.06378  0.80269  0.47717  1.0000
  H   H735      1.0  0.39883  0.86011  0.48192  1.0000
  H   H736      1.0  0.60686  0.64709  0.48300  1.0000
  S   S100      1.0  0.72531  0.79514  0.47743  1.0000
  N   N23       1.0  0.70988  0.67976  0.47584  1.0000
  C   C422      1.0  0.60023  0.66929  0.47466  1.0000
  H   H737      1.0  0.76024  0.73549  0.46986  1.0000
  H   H738      1.0  0.02736  0.67065  0.47267  1.0000
  H   H739      1.0  0.75042  0.63735  0.67563  1.0000
  H   H740      1.0  0.78657  0.73834  0.71673  1.0000
  C   C423      1.0  0.82834  0.68207  0.71479  1.0000
  C   C424      1.0  0.76142  0.67813  0.71823  1.0000
  H   H741      1.0  0.37342  0.79335  0.81968  1.0000
  C   C425      1.0  0.00605  0.83204  0.72245  1.0000
  C   C426      1.0  0.95691  0.69698  0.79607  1.0000
  H   H742      1.0  0.54948  0.83168  0.93448  1.0000
  C   C427      1.0  0.82603  0.68725  0.80671  1.0000
  C   C428      1.0  0.39964  0.78399  0.78638  1.0000
  C   C429      1.0  0.91201  0.72010  0.93527  1.0000
  H   H743      1.0  0.55175  0.79370  0.93595  1.0000
  H   H744      1.0  0.38085  0.64618  0.79656  1.0000
  C   C430      1.0  0.86332  0.70348  0.94298  1.0000
  S   S101      1.0  0.73243  0.75295  0.91068  1.0000
  C   C431      1.0  0.80210  0.74048  0.91845  1.0000
  H   H745      1.0  0.28127  0.84852  0.91673  1.0000
  H   H746      1.0  0.43921  0.70151  0.81874  1.0000
  C   C432      1.0  0.21717  0.69665  0.74181  1.0000
  H   H747      1.0  0.73917  0.65215  0.84140  1.0000
  H   H748      1.0  0.68255  0.84721  0.89166  1.0000
  H   H749      1.0  0.21479  0.81262  0.72143  1.0000
  S   S102      1.0  0.18929  0.77491  0.81490  1.0000
  H   H750      1.0  0.53493  0.63248  0.89910  1.0000
  H   H751      1.0  0.31593  0.65868  0.77273  1.0000
  C   C433      1.0  0.35556  0.66539  0.79074  1.0000
  H   H752      1.0  0.18533  0.82981  0.94117  1.0000
  C   C434      1.0  0.41446  0.69910  0.94012  1.0000
  H   H753      1.0  0.01999  0.82005  0.75241  1.0000
  C   C435      1.0  0.79850  0.74259  0.75512  1.0000
  H   H754      1.0  0.14463  0.86904  0.81538  1.0000
  Fe  Fe53      1.0  0.55710  0.69770  0.95565  1.0000
  H   H755      1.0  0.65079  0.81087  0.92891  1.0000
  H   H756      1.0  0.93949  0.69040  0.71934  1.0000
  H   H757      1.0  0.56156  0.68045  0.81259  1.0000
  Fe  Fe54      1.0  0.05559  0.73514  0.94498  1.0000
  H   H758      1.0  0.45099  0.75736  0.82517  1.0000
  H   H759      1.0  0.74879  0.82819  0.89971  1.0000
  H   H760      1.0  0.96225  0.72031  0.79608  1.0000
  H   H761      1.0  0.17875  0.84920  0.85877  1.0000
  C   C436      1.0  0.39119  0.68408  0.75832  1.0000
  H   H762      1.0  0.74616  0.66686  0.74999  1.0000
  H   H763      1.0  0.93847  0.69249  0.83274  1.0000
  C   C437      1.0  0.26427  0.85201  0.95459  1.0000
  H   H764      1.0  0.04461  0.69301  0.81760  1.0000
  H   H765      1.0  0.78023  0.69463  0.81084  1.0000
  H   H766      1.0  0.39890  0.67209  0.72159  1.0000
  S   S103      1.0  0.20402  0.77088  0.95118  1.0000
  C   C438      1.0  0.58093  0.69481  0.78654  1.0000
  H   H767      1.0  0.53014  0.63055  0.80690  1.0000
  H   H768      1.0  0.69240  0.82379  0.72708  1.0000
  C   C439      1.0  0.80854  0.71374  0.93497  1.0000
  C   C440      1.0  0.21621  0.74658  0.77326  1.0000
  H   H769      1.0  0.75736  0.85364  0.82607  1.0000
  H   H770      1.0  0.27601  0.77289  0.73568  1.0000
  H   H771      1.0  0.43621  0.79834  0.77890  1.0000
  S   S104      1.0  0.13626  0.71533  0.90532  1.0000
  C   C441      1.0  0.25962  0.75167  0.73740  1.0000
  H   H772      1.0  0.45550  0.63095  0.72543  1.0000
  H   H773      1.0  0.52430  0.72828  0.81979  1.0000
  H   H774      1.0  0.38446  0.74205  0.80684  1.0000
  H   H775      1.0  0.94383  0.75958  0.91164  1.0000
  H   H776      1.0  0.37429  0.77015  0.93620  1.0000
  H   H777      1.0  0.62793  0.71940  0.84203  1.0000
  H   H778      1.0  0.76109  0.78519  0.76011  1.0000
  C   C442      1.0  0.01739  0.68337  0.78881  1.0000
  H   H779      1.0  0.16023  0.71518  0.80216  1.0000
  H   H780      1.0  0.37397  0.71590  0.88084  1.0000
  H   H781      1.0  0.30254  0.83388  0.75433  1.0000
  H   H782      1.0  0.11861  0.87681  0.92717  1.0000
  H   H783      1.0  0.12737  0.65086  0.91620  1.0000
  H   H784      1.0  0.88778  0.73391  0.73127  1.0000
  C   C443      1.0  0.42221  0.75451  0.79467  1.0000
  C   C444      1.0  0.36762  0.70890  0.91685  1.0000
  H   H785      1.0  0.86792  0.68261  0.95533  1.0000
  Fe  Fe55      1.0  0.67300  0.72578  0.95403  1.0000
  H   H786      1.0  0.48382  0.75497  0.73175  1.0000
  C   C445      1.0  0.37195  0.79355  0.94606  1.0000
  Fe  Fe56      1.0  0.15369  0.75972  0.88571  1.0000
  C   C446      1.0  0.80300  0.77491  0.76573  1.0000
  H   H787      1.0  0.82343  0.64171  0.77795  1.0000
  S   S105      1.0  0.48257  0.69496  0.90803  1.0000
  H   H788      1.0  0.40709  0.80351  0.92440  1.0000
  H   H789      1.0  0.84602  0.77769  0.89647  1.0000
  C   C447      1.0  0.31203  0.71013  0.94041  1.0000
  H   H790      1.0  0.66604  0.68822  0.81180  1.0000
  H   H791      1.0  0.56254  0.73722  0.76588  1.0000
  C   C448      1.0  0.75964  0.86571  0.86275  1.0000
  C   C449      1.0  0.72789  0.84952  0.90174  1.0000
  H   H792      1.0  0.34217  0.67733  0.82662  1.0000
  H   H793      1.0  0.32980  0.80171  0.93619  1.0000
  C   C450      1.0  0.90607  0.74683  0.91807  1.0000
  H   H794      1.0  0.10234  0.84626  0.85239  1.0000
  C   C451      1.0  0.85090  0.75699  0.90935  1.0000
  H   H795      1.0  0.36913  0.64192  0.93149  1.0000
  H   H796      1.0  0.47302  0.67207  0.78332  1.0000
  C   C452      1.0  0.82917  0.65497  0.81287  1.0000
  S   S106      1.0  0.06949  0.77870  0.92002  1.0000
  C   C453      1.0  0.13911  0.86121  0.85211  1.0000
  H   H797      1.0  0.81318  0.78072  0.80432  1.0000
  C   C454      1.0  0.91821  0.68516  0.75498  1.0000
  C   C455      1.0  0.85662  0.72749  0.76091  1.0000
  C   C456      1.0  0.53816  0.71965  0.78155  1.0000
  C   C457      1.0  0.12816  0.64132  0.95140  1.0000
  C   C458      1.0  0.45381  0.73933  0.74711  1.0000
  C   C459      1.0  0.19469  0.71911  0.77530  1.0000
  H   H798      1.0  0.87233  0.73706  0.79617  1.0000
  H   H799      1.0  0.76365  0.73551  0.78065  1.0000
  N   N24       1.0  0.48627  0.71214  0.75295  1.0000
  H   H800      1.0  0.80595  0.86819  0.87001  1.0000
  H   H801      1.0  0.83703  0.78325  0.74061  1.0000
  H   H802      1.0  0.27603  0.71753  0.92195  1.0000
  H   H803      1.0  0.65954  0.71956  0.78012  1.0000
  H   H804      1.0  0.20066  0.67539  0.74359  1.0000
  H   H805      1.0  0.79079  0.65692  0.88796  1.0000
  C   C460      1.0  0.72897  0.86601  0.95336  1.0000
  C   C461      1.0  0.63702  0.70627  0.80636  1.0000
  H   H806      1.0  0.84455  0.69881  0.83892  1.0000
  C   C462      1.0  0.56173  0.81437  0.95641  1.0000
  C   C463      1.0  0.44907  0.69227  0.78047  1.0000
  H   H807      1.0  0.36452  0.70312  0.75461  1.0000
  H   H808      1.0  0.77138  0.70058  0.94070  1.0000
  H   H809      1.0  0.92077  0.66152  0.75274  1.0000
  S   S107      1.0  0.64463  0.68319  0.92187  1.0000
  H   H810      1.0  0.59270  0.68187  0.75125  1.0000
  H   H811      1.0  0.20634  0.85018  0.73690  1.0000
  N   N25       1.0  0.85579  0.69546  0.75987  1.0000
  H   H812      1.0  0.03845  0.68686  0.75240  1.0000
  H   H813      1.0  0.37181  0.78249  0.75510  1.0000
  H   H814      1.0  0.42104  0.73550  0.71952  1.0000
  H   H815      1.0  0.01508  0.66016  0.79212  1.0000
  H   H816      1.0  0.44187  0.63194  0.86705  1.0000
  C   C464      1.0  0.78318  0.64647  0.85106  1.0000
  S   S108      1.0  0.97919  0.70634  0.94721  1.0000
  H   H817      1.0  0.87235  0.64957  0.82474  1.0000
  H   H818      1.0  0.00496  0.85520  0.73477  1.0000
  H   H819      1.0  0.03544  0.64242  0.95995  1.0000
  H   H820      1.0  0.46020  0.63969  0.96608  1.0000
  H   H821      1.0  0.28260  0.65166  0.88777  1.0000
  C   C465      1.0  0.62627  0.81541  0.96488  1.0000
  H   H822      1.0  0.77440  0.87252  0.95884  1.0000
  C   C466      1.0  0.21021  0.84116  0.96848  1.0000
  H   H823      1.0  0.73632  0.80822  0.96742  1.0000
  H   H824      1.0  0.73801  0.69873  0.72125  1.0000
  H   H825      1.0  0.79717  0.73728  0.18894  1.0000
  H   H826      1.0  0.35724  0.79782  0.18209  1.0000
  C   C467      1.0  0.55343  0.78855  0.18737  1.0000
  H   H827      1.0  0.43124  0.76038  0.19842  1.0000
  C   C468      1.0  0.29688  0.86668  0.98956  1.0000
  H   H828      1.0  0.33067  0.74280  0.07976  1.0000
  C   C469      1.0  0.64192  0.84443  0.99220  1.0000
  H   H829      1.0  0.23569  0.71543  0.14713  1.0000
  H   H830      1.0  0.62059  0.86157  0.97458  1.0000
  C   C470      1.0  0.16985  0.77938  0.12644  1.0000
  H   H831      1.0  0.25903  0.81519  0.11367  1.0000
  H   H832      1.0  0.11994  0.66830  0.19927  1.0000
  H   H833      1.0  0.68513  0.80798  0.05711  1.0000
  H   H834      1.0  0.53998  0.83593  0.08182  1.0000
  S   S109      1.0  0.12381  0.82840  0.03536  1.0000
  C   C471      1.0  0.56492  0.77676  0.13898  1.0000
  S   S110      1.0  0.69447  0.71017  0.02511  1.0000
  H   H835      1.0  0.66816  0.80860  0.15078  1.0000
  C   C472      1.0  0.73197  0.80984  0.04656  1.0000
  C   C473      1.0  0.27426  0.87135  0.03834  1.0000
  H   H836      1.0  0.75366  0.77086  0.07715  1.0000
  H   H837      1.0  0.23734  0.75074  0.09337  1.0000
  H   H838      1.0  0.69270  0.86052  0.07488  1.0000
  H   H839      1.0  0.44965  0.77126  0.07701  1.0000
  C   C474      1.0  0.37915  0.80061  0.00075  1.0000
  Fe  Fe57      1.0  0.11904  0.78728  0.98700  1.0000
  C   C475      1.0  0.08656  0.71051  0.13189  1.0000
  C   C476      1.0  0.74205  0.82444  0.99870  1.0000
  H   H840      1.0  0.27650  0.78912  0.15275  1.0000
  H   H841      1.0  0.55557  0.77532  0.21700  1.0000
  H   H842      1.0  0.85228  0.66046  0.03167  1.0000
  H   H843      1.0  0.11442  0.68621  0.06374  1.0000
  C   C477      1.0  0.25776  0.70084  0.16911  1.0000
  H   H844      1.0  0.65653  0.68838  0.15283  1.0000
  C   C478      1.0  0.41998  0.75325  0.07090  1.0000
  H   H845      1.0  0.06442  0.70741  0.16810  1.0000
  C   C479      1.0  0.08837  0.68272  0.09804  1.0000
  H   H846      1.0  0.29995  0.73410  0.21032  1.0000
  S   S111      1.0  0.41572  0.70084  0.20215  1.0000
  C   C480      1.0  0.40569  0.69121  0.98763  1.0000
  H   H847      1.0  0.56783  0.78470  0.06316  1.0000
  H   H848      1.0  0.41773  0.74764  0.03090  1.0000
  H   H849      1.0  0.06991  0.67202  0.99175  1.0000
  H   H850      1.0  0.41238  0.81420  0.08600  1.0000
  S   S112      1.0  0.09547  0.74604  0.01606  1.0000
  C   C481      1.0  0.37858  0.84157  0.19054  1.0000
  Fe  Fe58      1.0  0.60325  0.72203  0.05080  1.0000
  H   H851      1.0  0.75225  0.82257  0.07675  1.0000
  C   C482      1.0  0.69175  0.82222  0.17777  1.0000
  C   C483      1.0  0.32665  0.79042  0.03250  1.0000
  H   H852      1.0  0.75841  0.87369  0.04852  1.0000
  H   H853      1.0  0.67826  0.67077  0.20387  1.0000
  H   H854      1.0  0.68693  0.76628  0.19245  1.0000
  H   H855      1.0  0.13134  0.71751  0.13754  1.0000
  H   H856      1.0  0.38286  0.82403  0.00836  1.0000
  H   H857      1.0  0.48634  0.72082  0.06758  1.0000
  H   H858      1.0  0.29862  0.69313  0.14810  1.0000
  N   N26       1.0  0.33378  0.78887  0.08648  1.0000
  H   H859      1.0  0.73901  0.76613  0.01365  1.0000
  C   C484      1.0  0.07194  0.64862  0.98268  1.0000
  H   H860      1.0  0.95929  0.65432  0.01739  1.0000
  H   H861      1.0  0.34873  0.83379  0.10227  1.0000
  C   C485      1.0  0.54441  0.82276  0.11113  1.0000
  C   C486      1.0  0.18867  0.84466  0.01752  1.0000
  H   H862      1.0  0.42087  0.79122  0.00832  1.0000
  C   C487      1.0  0.30299  0.70126  0.98718  1.0000
  C   C488      1.0  0.71178  0.87038  0.04243  1.0000
  C   C489      1.0  0.44733  0.72796  0.09124  1.0000
  S   S113      1.0  0.52497  0.87135  0.17481  1.0000
  H   H863      1.0  0.29090  0.80556  0.02752  1.0000
  S   S114      1.0  0.58451  0.74146  0.98260  1.0000
  H   H864      1.0  0.06316  0.72738  0.11557  1.0000
  H   H865      1.0  0.11177  0.66658  0.11583  1.0000
  H   H866      1.0  0.75667  0.77958  0.20467  1.0000
  C   C490      1.0  0.55957  0.79376  0.10062  1.0000
  H   H867      1.0  0.44186  0.68430  0.00617  1.0000
  H   H868      1.0  0.22979  0.68227  0.17413  1.0000
  C   C491      1.0  0.34971  0.69165  0.01079  1.0000
  H   H869      1.0  0.63614  0.79787  0.98700  1.0000
  H   H870      1.0  0.61912  0.84494  0.02928  1.0000
  H   H871      1.0  0.21696  0.77783  0.05639  1.0000
  C   C492      1.0  0.54025  0.81753  0.19782  1.0000
  H   H872      1.0  0.78889  0.82967  0.99505  1.0000
  C   C493      1.0  0.22016  0.86032  0.05234  1.0000
  C   C494      1.0  0.38437  0.81229  0.16147  1.0000
  H   H873      1.0  0.42950  0.80439  0.16206  1.0000
  H   H874      1.0  0.60218  0.67461  0.19384  1.0000
  H   H875      1.0  0.45878  0.64978  0.06043  1.0000
  C   C495      1.0  0.53668  0.83477  0.15985  1.0000
  H   H876      1.0  0.15663  0.80215  0.12798  1.0000
  S   S115      1.0  0.23361  0.70296  0.01653  1.0000
  H   H877      1.0  0.99111  0.63259  0.14048  1.0000
  H   H878      1.0  0.61665  0.64380  0.11584  1.0000
  C   C496      1.0  0.22594  0.77356  0.09398  1.0000
  C   C497      1.0  0.35839  0.76020  0.09474  1.0000
  C   C498      1.0  0.27469  0.79276  0.11368  1.0000
  C   C499      1.0  0.27146  0.71623  0.21852  1.0000
  H   H879      1.0  0.20324  0.86344  0.09023  1.0000
  H   H880      1.0  0.73738  0.82404  0.16335  1.0000
  C   C500      1.0  0.75980  0.78020  0.04171  1.0000
  H   H881      1.0  0.79714  0.68657  0.20702  1.0000
  C   C501      1.0  0.06866  0.63252  0.02920  1.0000
  C   C502      1.0  0.37002  0.81306  0.10705  1.0000
  H   H882      1.0  0.80687  0.78108  0.03106  1.0000
  H   H883      1.0  0.17516  0.77379  0.16408  1.0000
  H   H884      1.0  0.13470  0.76643  0.11094  1.0000
  H   H885      1.0  0.35798  0.75754  0.13443  1.0000
  H   H886      1.0  0.31306  0.76933  0.01522  1.0000
  C   C503      1.0  0.02655  0.67315  0.08616  1.0000
  S   S116      1.0  0.58982  0.74143  0.12865  1.0000
  H   H887      1.0  0.01145  0.68742  0.05962  1.0000
  C   C504      1.0  0.64920  0.64244  0.14321  1.0000
  H   H888      1.0  0.46150  0.73432  0.12822  1.0000
  H   H889      1.0  0.41711  0.70994  0.09300  1.0000
  S   S117      1.0  0.56758  0.67922  0.02654  1.0000
  H   H890      1.0  0.34266  0.68481  0.04710  1.0000
  Fe  Fe59      1.0  0.65788  0.66884  0.99553  1.0000
  N   N27       1.0  0.70540  0.85078  0.99606  1.0000
  H   H891      1.0  0.90911  0.66233  0.10467  1.0000
  H   H892      1.0  0.67120  0.84377  0.18254  1.0000
  C   C505      1.0  0.96360  0.63857  0.04456  1.0000
  C   C506      1.0  0.64635  0.67073  0.17567  1.0000
  H   H893      1.0  0.40621  0.85698  0.17248  1.0000
  H   H894      1.0  0.99739  0.67840  0.11995  1.0000
  H   H895      1.0  0.11139  0.63348  0.04532  1.0000
  S   S118      1.0  0.31997  0.63479  0.19400  1.0000
  H   H896      1.0  0.86833  0.70181  0.20631  1.0000
  H   H897      1.0  0.16541  0.65010  0.97098  1.0000
  H   H898      1.0  0.69271  0.64049  0.12357  1.0000
  H   H899      1.0  0.53520  0.81651  0.99192  1.0000
  N   N28       1.0  0.02072  0.64217  0.06743  1.0000
  Fe  Fe60      1.0  0.17687  0.72898  0.97512  1.0000
  H   H900      1.0  0.33284  0.84910  0.19337  1.0000
  H   H901      1.0  0.81507  0.64291  0.07948  1.0000
  C   C507      1.0  0.90876  0.64200  0.08061  1.0000
  C   C508      1.0  0.85377  0.64177  0.05301  1.0000
  S   S119      1.0  0.36622  0.87810  0.97117  1.0000
  H   H902      1.0  0.61909  0.77803  0.43611  1.0000
  H   H903      1.0  0.26110  0.83099  0.29578  1.0000
  C   C509      1.0  0.05014  0.69866  0.39498  1.0000
  C   C510      1.0  0.09597  0.68479  0.42250  1.0000
  C   C511      1.0  0.42273  0.72331  0.29785  1.0000
  C   C512      1.0  0.75441  0.82318  0.36534  1.0000
  H   H904      1.0  0.18986  0.67327  0.46795  1.0000
  H   H905      1.0  0.68059  0.81535  0.32378  1.0000
  H   H906      1.0  0.49255  0.86694  0.28641  1.0000
  H   H907      1.0  0.56767  0.72885  0.37801  1.0000
  H   H908      1.0  0.14445  0.79319  0.30373  1.0000
  C   C513      1.0  0.43188  0.77397  0.32185  1.0000
  H   H909      1.0  0.03889  0.79009  0.31386  1.0000
  C   C514      1.0  0.55266  0.63915  0.30496  1.0000
  H   H910      1.0  0.42745  0.74183  0.37191  1.0000
  H   H911      1.0  0.33246  0.81553  0.29841  1.0000
  H   H912      1.0  0.06949  0.78139  0.36888  1.0000
  H   H913      1.0  0.43929  0.80040  0.26266  1.0000
  C   C515      1.0  0.11769  0.80848  0.45437  1.0000
  Fe  Fe61      1.0  0.39597  0.65750  0.22460  1.0000
  S   S120      1.0  0.71894  0.66419  0.30443  1.0000
  H   H914      1.0  0.12262  0.82685  0.43403  1.0000
  H   H915      1.0  0.41978  0.70185  0.30777  1.0000
  H   H916      1.0  0.25356  0.69948  0.41519  1.0000
  C   C516      1.0  0.42352  0.72846  0.24872  1.0000
  C   C517      1.0  0.81019  0.72865  0.40106  1.0000
  H   H917      1.0  0.68672  0.79289  0.37099  1.0000
  H   H918      1.0  0.60058  0.67598  0.28721  1.0000
  H   H919      1.0  0.29591  0.70122  0.23803  1.0000
  C   C518      1.0  0.71176  0.80261  0.34129  1.0000
  H   H920      1.0  0.16884  0.75831  0.36334  1.0000
  C   C519      1.0  0.43413  0.77898  0.27265  1.0000
  C   C520      1.0  0.75841  0.72162  0.43509  1.0000
  C   C521      1.0  0.16632  0.64628  0.24950  1.0000
  C   C522      1.0  0.65621  0.64393  0.31058  1.0000
  H   H921      1.0  0.57634  0.87434  0.46542  1.0000
  H   H922      1.0  0.18845  0.70793  0.25524  1.0000
  H   H923      1.0  0.73069  0.83846  0.39333  1.0000
  H   H924      1.0  0.77732  0.83537  0.33757  1.0000
  H   H925      1.0  0.22066  0.79842  0.35439  1.0000
  C   C523      1.0  0.25487  0.77110  0.28809  1.0000
  H   H926      1.0  0.29159  0.78350  0.35868  1.0000
  C   C524      1.0  0.06310  0.65628  0.25877  1.0000
  N   N29       1.0  0.70955  0.76334  0.26673  1.0000
  H   H927      1.0  0.11127  0.66485  0.40091  1.0000
  H   H928      1.0  0.80679  0.71761  0.36373  1.0000
  H   H929      1.0  0.76189  0.76393  0.32917  1.0000
  Fe  Fe62      1.0  0.92953  0.64167  0.27078  1.0000
  H   H930      1.0  0.71764  0.82326  0.25043  1.0000
  H   H931      1.0  0.78667  0.81138  0.38387  1.0000
  C   C525      1.0  0.73601  0.73394  0.25302  1.0000
  N   N30       1.0  0.22372  0.74407  0.29779  1.0000
  H   H932      1.0  0.66447  0.74728  0.35743  1.0000
  C   C526      1.0  0.65549  0.68111  0.44901  1.0000
  C   C527      1.0  0.16188  0.63204  0.29170  1.0000
  C   C528      1.0  0.23941  0.69722  0.33746  1.0000
  S   S121      1.0  0.43604  0.80292  0.36667  1.0000
  C   C529      1.0  0.06583  0.77423  0.32952  1.0000
  H   H933      1.0  0.29674  0.83462  0.35228  1.0000
  C   C530      1.0  0.54930  0.66956  0.44243  1.0000
  H   H934      1.0  0.29957  0.76611  0.27179  1.0000
  C   C531      1.0  0.74400  0.77902  0.30538  1.0000
  Fe  Fe63      1.0  0.40130  0.79352  0.44141  1.0000
  H   H935      1.0  0.82956  0.69702  0.26390  1.0000
  H   H936      1.0  0.80137  0.68549  0.45979  1.0000
  C   C532      1.0  0.16489  0.75038  0.32419  1.0000
  H   H937      1.0  0.64437  0.81166  0.24320  1.0000
  H   H938      1.0  0.62431  0.78007  0.29454  1.0000
  C   C533      1.0  0.75976  0.68976  0.44408  1.0000
  C   C534      1.0  0.26784  0.68635  0.38057  1.0000
  C   C535      1.0  0.26251  0.79260  0.33369  1.0000
  H   H939      1.0  0.04354  0.75344  0.32633  1.0000
  H   H940      1.0  0.71876  0.72722  0.41783  1.0000
  H   H941      1.0  0.13300  0.69954  0.42502  1.0000
  H   H942      1.0  0.30530  0.72628  0.31508  1.0000
  C   C536      1.0  0.12558  0.77164  0.30181  1.0000
  H   H943      1.0  0.58770  0.87123  0.35924  1.0000
  H   H944      1.0  0.63375  0.84873  0.44709  1.0000
  H   H945      1.0  0.31567  0.68730  0.37517  1.0000
  H   H946      1.0  0.57441  0.84142  0.31519  1.0000
  S   S122      1.0  0.99927  0.66709  0.23530  1.0000
  C   C537      1.0  0.28980  0.82009  0.31887  1.0000
  Fe  Fe64      1.0  0.80196  0.63899  0.30244  1.0000
  H   H947      1.0  0.13996  0.73047  0.32535  1.0000
  H   H948      1.0  0.20691  0.79525  0.44098  1.0000
  H   H949      1.0  0.64722  0.71816  0.31448  1.0000
  C   C538      1.0  0.16551  0.79075  0.45857  1.0000
  H   H950      1.0  0.54578  0.73391  0.31793  1.0000
  H   H951      1.0  0.23324  0.78216  0.26035  1.0000
  C   C539      1.0  0.21550  0.72684  0.24950  1.0000
  H   H952      1.0  0.03685  0.71986  0.41404  1.0000
  C   C540      1.0  0.57374  0.74219  0.34714  1.0000
  C   C541      1.0  0.63695  0.74079  0.32713  1.0000
  C   C542      1.0  0.25932  0.72785  0.32977  1.0000
  H   H953      1.0  0.78280  0.78855  0.28753  1.0000
  H   H954      1.0  0.85136  0.72210  0.41533  1.0000
  H   H955      1.0  0.01157  0.68497  0.39214  1.0000
  H   H956      1.0  0.56015  0.76441  0.36064  1.0000
  C   C543      1.0  0.42952  0.75631  0.23627  1.0000
  C   C544      1.0  0.64711  0.75939  0.28401  1.0000
  H   H957      1.0  0.11900  0.76456  0.26296  1.0000
  H   H958      1.0  0.26005  0.73978  0.36683  1.0000
  C   C545      1.0  0.42647  0.74609  0.33440  1.0000
  H   H959      1.0  0.55874  0.65544  0.40792  1.0000
  H   H960      1.0  0.06780  0.70141  0.35724  1.0000
  H   H961      1.0  0.01923  0.64370  0.32449  1.0000
  H   H962      1.0  0.81118  0.75198  0.39874  1.0000
  H   H963      1.0  0.62335  0.74898  0.25327  1.0000
  H   H964      1.0  0.25160  0.68241  0.30427  1.0000
  H   H965      1.0  0.73823  0.72258  0.28633  1.0000
  H   H966      1.0  0.50998  0.66174  0.46202  1.0000
  H   H967      1.0  0.76233  0.67741  0.40728  1.0000
  H   H968      1.0  0.64463  0.70354  0.44381  1.0000
  H   H969      1.0  0.19207  0.69600  0.34517  1.0000
  H   H970      1.0  0.39274  0.84045  0.22801  1.0000
  S   S123      1.0  0.87691  0.65917  0.33871  1.0000
  C   C546      1.0  0.68948  0.80979  0.22699  1.0000
  C   C547      1.0  0.11678  0.65828  0.23279  1.0000
  H   H971      1.0  0.91780  0.67052  0.43021  1.0000
  H   H972      1.0  0.53294  0.82647  0.23549  1.0000
  C   C548      1.0  0.60302  0.65513  0.29995  1.0000
  H   H973      1.0  0.66229  0.67015  0.41119  1.0000
  H   H974      1.0  0.20736  0.64730  0.22903  1.0000
  H   H975      1.0  0.25521  0.66399  0.38406  1.0000
  S   S124      1.0  0.37566  0.64637  0.30115  1.0000
  C   C549      1.0  0.05970  0.64366  0.30253  1.0000
  H   H976      1.0  0.51179  0.64787  0.29633  1.0000
  H   H977      1.0  0.54011  0.69151  0.43361  1.0000
  H   H978      1.0  0.75758  0.63152  0.41387  1.0000
  H   H979      1.0  0.82702  0.74772  0.24692  1.0000
  H   H980      1.0  0.14715  0.63086  0.44263  1.0000
  C   C550      1.0  0.55383  0.85979  0.33875  1.0000
  H   H981      1.0  0.79542  0.87702  0.44867  1.0000
  H   H982      1.0  0.52154  0.85140  0.36527  1.0000
  C   C551      1.0  0.71158  0.77851  0.22088  1.0000
  C   C552      1.0  0.91172  0.66794  0.46862  1.0000
  S   S125      1.0  0.38530  0.75032  0.46633  1.0000
  H   H983      1.0  0.19108  0.73949  0.22576  1.0000
  C   C553      1.0  0.79814  0.73247  0.22757  1.0000
  H   H984      1.0  0.70805  0.72080  0.22846  1.0000
  C   C554      1.0  0.82476  0.70263  0.22615  1.0000
  C   C555      1.0  0.52454  0.87964  0.30705  1.0000
  C   C556      1.0  0.10857  0.63085  0.31814  1.0000
  H   H985      1.0  0.97068  0.93956  0.57827  1.0000
  C   C557      1.0  0.41562  0.06506  0.48801  1.0000
  H   H986      1.0  0.18396  0.06971  0.65001  1.0000
  H   H987      1.0  0.31535  0.01984  0.64305  1.0000
  H   H988      1.0  0.43833  0.09682  0.64644  1.0000
  H   H989      1.0  0.50005  0.10887  0.55775  1.0000
  H   H990      1.0  0.53421  0.94376  0.69354  1.0000
  H   H991      1.0  0.43226  0.11010  0.49299  1.0000
  C   C558      1.0  0.42870  0.03928  0.50585  1.0000
  C   C559      1.0  0.46933  0.03834  0.54102  1.0000
  H   H992      1.0  0.12348  0.12411  0.56376  1.0000
  H   H993      1.0  0.38776  0.00534  0.63080  1.0000
  H   H994      1.0  0.77926  0.96403  0.61124  1.0000
  H   H995      1.0  0.55282  0.88179  0.69168  1.0000
  H   H996      1.0  0.61547  0.89116  0.56974  1.0000
  H   H997      1.0  0.30267  0.11294  0.53644  1.0000
  H   H998      1.0  0.59817  0.90193  0.65485  1.0000
  H   H999      1.0  0.90857  0.12066  0.70697  1.0000
  C   C560      1.0  0.83857  0.09484  0.50219  1.0000
  C   C561      1.0  0.38386  0.05002  0.65871  1.0000
  H   H1000     1.0  0.85767  0.99058  0.57721  1.0000
  C   C562      1.0  0.72588  0.90724  0.64397  1.0000
  H   H1001     1.0  0.15718  0.89159  0.54268  1.0000
  C   C563      1.0  0.44696  0.93274  0.54274  1.0000
  C   C564      1.0  0.32460  0.11610  0.66087  1.0000
  C   C565      1.0  0.91410  0.96247  0.50752  1.0000
  H   H1002     1.0  0.20745  0.12431  0.49907  1.0000
  Fe  Fe65      1.0  0.59191  0.02057  0.58512  1.0000
  H   H1003     1.0  0.46697  0.89461  0.64329  1.0000
  H   H1004     1.0  0.94515  0.06506  0.57761  1.0000
  H   H1005     1.0  0.70655  0.91151  0.61092  1.0000
  H   H1006     1.0  0.25143  0.04635  0.56324  1.0000
  C   C566      1.0  0.80026  0.03840  0.48907  1.0000
  C   C567      1.0  0.23234  0.05107  0.52903  1.0000
  H   H1007     1.0  0.13385  0.05370  0.47965  1.0000
  C   C568      1.0  0.05233  0.08407  0.53819  1.0000
  H   H1008     1.0  0.74737  0.04937  0.55604  1.0000
  H   H1009     1.0  0.80300  0.94846  0.52331  1.0000
  H   H1010     1.0  0.45932  0.95335  0.55904  1.0000
  H   H1011     1.0  0.38575  0.05655  0.62124  1.0000
  H   H1012     1.0  0.19206  0.09023  0.56110  1.0000
  C   C569      1.0  0.14780  0.07506  0.49483  1.0000
  S   S126      1.0  0.61245  0.00634  0.50598  1.0000
  C   C570      1.0  0.40420  0.91729  0.56699  1.0000
  C   C571      1.0  0.81547  0.11551  0.71388  1.0000
  H   H1013     1.0  0.19165  0.03252  0.70664  1.0000
  H   H1014     1.0  0.85448  0.98795  0.69311  1.0000
  H   H1015     1.0  0.91136  0.09983  0.58891  1.0000
  H   H1016     1.0  0.64148  0.07202  0.67340  1.0000
  N   N31       1.0  0.09691  0.09553  0.50278  1.0000
  H   H1017     1.0  0.90975  0.97632  0.61303  1.0000
  H   H1018     1.0  0.81203  0.11075  0.67383  1.0000
  H   H1019     1.0  0.82624  0.94356  0.64362  1.0000
  C   C572      1.0  0.42361  0.10780  0.68273  1.0000
  H   H1020     1.0  0.90757  0.92006  0.63972  1.0000
  H   H1021     1.0  0.97435  0.09233  0.61992  1.0000
  Fe  Fe66      1.0  0.64626  0.96879  0.61879  1.0000
  C   C573      1.0  0.34715  0.07106  0.69598  1.0000
  C   C574      1.0  0.87152  0.97060  0.59194  1.0000
  H   H1022     1.0  0.96921  0.09319  0.50841  1.0000
  Fe  Fe67      1.0  0.58393  0.96374  0.52544  1.0000
  H   H1023     1.0  0.35737  0.01212  0.69327  1.0000
  S   S127      1.0  0.67233  0.94949  0.54217  1.0000
  C   C575      1.0  0.11468  0.12454  0.52463  1.0000
  H   H1024     1.0  0.60105  0.11009  0.54713  1.0000
  C   C576      1.0  0.99150  0.09841  0.54239  1.0000
  H   H1025     1.0  0.26511  0.06216  0.50683  1.0000
  C   C577      1.0  0.61010  0.09171  0.47102  1.0000
  S   S128      1.0  0.66139  0.95251  0.69082  1.0000
  C   C578      1.0  0.76536  0.88443  0.64290  1.0000
  H   H1026     1.0  0.47979  0.01827  0.55418  1.0000
  C   C579      1.0  0.95351  0.08819  0.58481  1.0000
  H   H1027     1.0  0.71633  0.10701  0.64340  1.0000
  N   N32       1.0  0.88806  0.94782  0.55016  1.0000
  C   C580      1.0  0.17153  0.07468  0.68856  1.0000
  H   H1028     1.0  0.67251  0.09702  0.52678  1.0000
  C   C581      1.0  0.79875  0.08469  0.53667  1.0000
  H   H1029     1.0  0.50512  0.08824  0.69840  1.0000
  H   H1030     1.0  0.30065  0.06751  0.68984  1.0000
  C   C582      1.0  0.38874  0.89039  0.54613  1.0000
  C   C583      1.0  0.96170  0.88529  0.60737  1.0000
  H   H1031     1.0  0.77758  0.98254  0.69802  1.0000
  H   H1032     1.0  0.31261  0.08277  0.60150  1.0000
  H   H1033     1.0  0.47919  0.00731  0.70415  1.0000
  H   H1034     1.0  0.42897  0.04886  0.66942  1.0000
  H   H1035     1.0  0.04660  0.06080  0.52902  1.0000
  S   S129      1.0  0.55523  0.97909  0.60343  1.0000
  C   C584      1.0  0.82077  0.96430  0.62913  1.0000
  S   S130      1.0  0.54590  0.06218  0.60369  1.0000
  C   C585      1.0  0.33190  0.10418  0.60645  1.0000
  Fe  Fe68      1.0  0.69869  0.99384  0.52862  1.0000
  N   N33       1.0  0.36057  0.10235  0.69582  1.0000
  H   H1036     1.0  0.37770  0.10296  0.59269  1.0000
  C   C586      1.0  0.93338  0.92755  0.56396  1.0000
  C   C587      1.0  0.30100  0.12326  0.57465  1.0000
  H   H1037     1.0  0.87483  0.89601  0.59454  1.0000
  H   H1038     1.0  0.06786  0.08619  0.57582  1.0000
  C   C588      1.0  0.55947  0.88813  0.65407  1.0000
  C   C589      1.0  0.47455  0.92105  0.49815  1.0000
  C   C590      1.0  0.77886  0.05670  0.52969  1.0000
  C   C591      1.0  0.49550  0.93033  0.68907  1.0000
  S   S131      1.0  0.68086  0.01184  0.60659  1.0000
  C   C592      1.0  0.50695  0.90718  0.64637  1.0000
  C   C593      1.0  0.44220  0.09003  0.50628  1.0000
  H   H1039     1.0  0.78278  0.09864  0.56850  1.0000
  C   C594      1.0  0.35942  0.02000  0.65651  1.0000
  C   C595      1.0  0.83470  0.93262  0.53358  1.0000
  C   C596      1.0  0.17852  0.07000  0.54155  1.0000
  H   H1040     1.0  0.14918  0.05910  0.56708  1.0000
  H   H1041     1.0  0.61522  0.02867  0.70974  1.0000
  H   H1042     1.0  0.87554  0.89279  0.49753  1.0000
  H   H1043     1.0  0.88028  0.97511  0.49231  1.0000
  C   C597      1.0  0.48093  0.08932  0.54294  1.0000
  C   C598      1.0  0.71090  0.92406  0.68804  1.0000
  H   H1044     1.0  0.80708  0.00852  0.65995  1.0000
  H   H1045     1.0  0.81205  0.92233  0.56382  1.0000
  H   H1046     1.0  0.38481  0.92568  0.60256  1.0000
  C   C599      1.0  0.84408  0.90924  0.48973  1.0000
  H   H1047     1.0  0.27773  0.11411  0.67098  1.0000
  C   C600      1.0  0.81487  0.98731  0.67263  1.0000
  C   C601      1.0  0.63405  0.10823  0.51571  1.0000
  H   H1048     1.0  0.95344  0.99932  0.54914  1.0000
  H   H1049     1.0  0.40779  0.02004  0.49226  1.0000
  H   H1050     1.0  0.64865  0.12319  0.66225  1.0000
  C   C602      1.0  0.69538  0.12438  0.66932  1.0000
  H   H1051     1.0  0.69326  0.03025  0.70673  1.0000
  H   H1052     1.0  0.99406  0.12185  0.54835  1.0000
  C   C603      1.0  0.91458  0.90764  0.60329  1.0000
  H   H1053     1.0  0.51560  0.91803  0.61285  1.0000
  H   H1054     1.0  0.73934  0.07675  0.70034  1.0000
  H   H1055     1.0  0.45887  0.94418  0.68160  1.0000
  H   H1056     1.0  0.22153  0.03060  0.50832  1.0000
  S   S132      1.0  0.77778  0.00286  0.48081  1.0000
  C   C604      1.0  0.49514  0.06343  0.55984  1.0000
  C   C605      1.0  0.96525  0.98268  0.51847  1.0000
  C   C606      1.0  0.15345  0.10235  0.70662  1.0000
  H   H1057     1.0  0.95186  0.91403  0.53081  1.0000
  H   H1058     1.0  0.00295  0.89562  0.61658  1.0000
  H   H1059     1.0  0.76830  0.88490  0.51164  1.0000
  H   H1060     1.0  0.54332  0.88353  0.55506  1.0000
  H   H1061     1.0  0.59848  0.07017  0.48080  1.0000
  H   H1062     1.0  0.25509  0.12684  0.58843  1.0000
  H   H1063     1.0  0.00329  0.97048  0.52786  1.0000
  C   C607      1.0  0.78729  0.89440  0.47888  1.0000
  C   C608      1.0  0.45618  0.89510  0.47604  1.0000
  S   S133      1.0  0.15355  0.12877  0.66609  1.0000
  H   H1064     1.0  0.64944  0.88223  0.48095  1.0000
  C   C609      1.0  0.41274  0.88006  0.49958  1.0000
  C   C610      1.0  0.64832  0.07157  0.71286  1.0000
  C   C611      1.0  0.98401  0.99807  0.47380  1.0000
  H   H1065     1.0  0.02184  0.01155  0.48192  1.0000
  H   H1066     1.0  0.93069  0.94660  0.47692  1.0000
  S   S134      1.0  0.53411  0.93749  0.47068  1.0000
  S   S135      1.0  0.86332  0.12986  0.51201  1.0000
  C   C612      1.0  0.47920  0.01699  0.74271  1.0000
  C   C613      1.0  0.90549  0.11132  0.89650  1.0000
  S   S136      1.0  0.23601  0.03239  0.93600  1.0000
  H   H1067     1.0  0.65947  0.01434  0.90665  1.0000
  H   H1068     1.0  0.46034  0.98649  0.92332  1.0000
  C   C614      1.0  0.28095  0.11689  0.76534  1.0000
  C   C615      1.0  0.33217  0.95704  0.93471  1.0000
  H   H1069     1.0  0.59448  0.90149  0.78722  1.0000
  H   H1070     1.0  0.48410  0.92073  0.72362  1.0000
  H   H1071     1.0  0.65215  0.03981  0.76391  1.0000
  C   C616      1.0  0.39242  0.08524  0.90553  1.0000
  S   S137      1.0  0.19480  0.09716  0.91606  1.0000
  H   H1072     1.0  0.49973  0.03816  0.74266  1.0000
  H   H1073     1.0  0.35263  0.06384  0.73272  1.0000
  H   H1074     1.0  0.57642  0.90697  0.85247  1.0000
  S   S138      1.0  0.09708  0.04860  0.94275  1.0000
  H   H1075     1.0  0.04778  0.09430  0.90074  1.0000
  H   H1076     1.0  0.13017  0.09263  0.82749  1.0000
  H   H1077     1.0  0.05733  0.99463  0.88567  1.0000
  H   H1078     1.0  0.33623  0.96467  0.89776  1.0000
  H   H1079     1.0  0.49421  0.97639  0.76824  1.0000
  S   S139      1.0  0.84524  0.10067  0.86419  1.0000
  H   H1080     1.0  0.07941  0.93989  0.92174  1.0000
  C   C617      1.0  0.12094  0.95120  0.91813  1.0000
  H   H1081     1.0  0.96510  0.08342  0.85019  1.0000
  Fe  Fe69      1.0  0.63141  0.10714  0.90787  1.0000
  H   H1082     1.0  0.65176  0.12150  0.79090  1.0000
  C   C618      1.0  0.54119  0.01007  0.91009  1.0000
  C   C619      1.0  0.70438  0.08754  0.72558  1.0000
  H   H1083     1.0  0.82223  0.09510  0.72972  1.0000
  H   H1084     1.0  0.62589  0.99556  0.80303  1.0000
  H   H1085     1.0  0.08723  0.89720  0.88312  1.0000
  C   C620      1.0  0.39519  0.08743  0.95651  1.0000
  H   H1086     1.0  0.89470  0.04296  0.90748  1.0000
  C   C621      1.0  0.16246  0.06022  0.77095  1.0000
  C   C622      1.0  0.51352  0.99787  0.77204  1.0000
  C   C623      1.0  0.28165  0.93662  0.93927  1.0000
  C   C624      1.0  0.49973  0.08672  0.94588  1.0000
  S   S140      1.0  0.56187  0.09082  0.85906  1.0000
  C   C625      1.0  0.49756  0.08667  0.89536  1.0000
  H   H1087     1.0  0.11599  0.97039  0.94540  1.0000
  H   H1088     1.0  0.55897  0.95739  0.89227  1.0000
  N   N34       1.0  0.17089  0.93292  0.93000  1.0000
  H   H1089     1.0  0.12237  0.12984  0.77072  1.0000
  H   H1090     1.0  0.13401  0.94459  0.83715  1.0000
  H   H1091     1.0  0.29510  0.11440  0.84228  1.0000
  H   H1092     1.0  0.21852  0.97118  0.94845  1.0000
  H   H1093     1.0  0.37299  0.94575  0.94011  1.0000
  H   H1094     1.0  0.45003  0.02400  0.91834  1.0000
  H   H1095     1.0  0.50053  0.95904  0.85479  1.0000
  C   C626      1.0  0.72171  0.00097  0.84726  1.0000
  H   H1096     1.0  0.03270  0.96140  0.85581  1.0000
  H   H1097     1.0  0.79478  0.89126  0.76279  1.0000
  C   C627      1.0  0.66187  0.99863  0.87366  1.0000
  H   H1098     1.0  0.15961  0.97824  0.86406  1.0000
  H   H1099     1.0  0.23392  0.95554  0.88696  1.0000
  H   H1100     1.0  0.85098  0.02033  0.94385  1.0000
  H   H1101     1.0  0.55237  0.03307  0.91314  1.0000
  C   C628      1.0  0.56764  0.91443  0.81665  1.0000
  C   C629      1.0  0.12509  0.96218  0.86669  1.0000
  C   C630      1.0  0.17897  0.90628  0.89476  1.0000
  C   C631      1.0  0.48859  0.12417  0.75139  1.0000
  C   C632      1.0  0.47810  0.00796  0.93244  1.0000
  C   C633      1.0  0.13775  0.10870  0.75670  1.0000
  H   H1102     1.0  0.57587  0.95182  0.77914  1.0000
  C   C634      1.0  0.14216  0.08761  0.78887  1.0000
  C   C635      1.0  0.00625  0.10433  0.91170  1.0000
  H   H1103     1.0  0.72758  0.02259  0.83521  1.0000
  H   H1104     1.0  0.44813  0.08284  0.74267  1.0000
  H   H1105     1.0  0.29342  0.91718  0.91427  1.0000
  C   C636      1.0  0.95959  0.09849  0.88265  1.0000
  Fe  Fe70      1.0  0.17418  0.05197  0.88958  1.0000
  H   H1106     1.0  0.75553  0.99724  0.87261  1.0000
  C   C637      1.0  0.86348  0.04270  0.94004  1.0000
  H   H1107     1.0  0.43375  0.01972  0.75845  1.0000
  H   H1108     1.0  0.55814  0.99648  0.75481  1.0000
  C   C638      1.0  0.58288  0.94582  0.81600  1.0000
  H   H1109     1.0  0.19267  0.91160  0.85724  1.0000
  H   H1110     1.0  0.61404  0.02879  0.83859  1.0000
  H   H1111     1.0  0.71432  0.08327  0.76333  1.0000
  Fe  Fe71      1.0  0.76173  0.10939  0.91025  1.0000
  C   C639      1.0  0.61323  0.00532  0.84070  1.0000
  H   H1112     1.0  0.35084  0.08464  0.89006  1.0000
  C   C640      1.0  0.46665  0.09876  0.71932  1.0000
  H   H1113     1.0  0.21510  0.89309  0.90501  1.0000
  H   H1114     1.0  0.60943  0.08080  0.73478  1.0000
  C   C641      1.0  0.54682  0.96478  0.85707  1.0000
  H   H1115     1.0  0.46528  0.00551  0.84065  1.0000
  H   H1116     1.0  0.72377  0.93098  0.76507  1.0000
  H   H1117     1.0  0.65755  0.97703  0.88587  1.0000
  C   C642      1.0  0.51050  0.00934  0.82694  1.0000
  H   H1118     1.0  0.52132  0.91115  0.81013  1.0000
  S   S141      1.0  0.17382  0.03420  0.81069  1.0000
  H   H1119     1.0  0.82453  0.05527  0.93372  1.0000
  H   H1120     1.0  0.62981  0.94754  0.82095  1.0000
  H   H1121     1.0  0.56959  0.00023  0.93488  1.0000
  C   C643      1.0  0.65260  0.04062  0.72385  1.0000
  C   C644      1.0  0.22493  0.95042  0.92531  1.0000
  C   C645      1.0  0.44381  0.08520  0.87486  1.0000
  H   H1122     1.0  0.07383  0.98573  0.82099  1.0000
  H   H1123     1.0  0.72741  0.98484  0.81483  1.0000
  N   N35       1.0  0.55327  0.99671  0.85793  1.0000
  C   C646      1.0  0.34537  0.11731  0.74644  1.0000
  H   H1124     1.0  0.51499  0.03295  0.82982  1.0000
  H   H1125     1.0  0.61197  0.12668  0.73961  1.0000
  S   S142      1.0  0.69766  0.07512  0.92302  1.0000
  H   H1126     1.0  0.51877  0.11650  0.77681  1.0000
  C   C647      1.0  0.06862  0.97681  0.85688  1.0000
  H   H1127     1.0  0.36980  0.10778  0.77418  1.0000
  H   H1128     1.0  0.26406  0.09497  0.76122  1.0000
  H   H1129     1.0  0.44185  0.08499  0.83570  1.0000
  N   N36       1.0  0.70366  0.11925  0.72184  1.0000
  C   C648      1.0  0.73529  0.91804  0.73092  1.0000
  H   H1130     1.0  0.73943  0.88708  0.86196  1.0000
  C   C649      1.0  0.17609  0.05367  0.72063  1.0000
  C   C650      1.0  0.77544  0.89560  0.72964  1.0000
  C   C651      1.0  0.12684  0.88608  0.89189  1.0000
  C   C652      1.0  0.99886  0.12288  0.95483  1.0000
  H   H1131     1.0  0.54071  0.08576  0.96165  1.0000
  H   H1132     1.0  0.70398  0.88604  0.95135  1.0000
  Fe  Fe72      1.0  0.24935  0.07717  0.96766  1.0000
  H   H1133     1.0  0.32621  0.97563  0.96291  1.0000
  H   H1134     1.0  0.69972  0.98105  0.96568  1.0000
  H   H1135     1.0  0.76133  0.12934  0.77937  1.0000
  C   C653      1.0  0.27255  0.12826  0.81924  1.0000
  H   H1136     1.0  0.22572  0.12901  0.83083  1.0000
  C   C654      1.0  0.44886  0.08804  0.97643  1.0000
  C   C655      1.0  0.24516  0.97314  0.13993  1.0000
  H   H1137     1.0  0.55723  0.98914  0.07523  1.0000
  H   H1138     1.0  0.80626  0.06424  0.02320  1.0000
  C   C656      1.0  0.61305  0.02521  0.07381  1.0000
  S   S143      1.0  0.61618  0.12646  0.98623  1.0000
  H   H1139     1.0  0.15468  0.97049  0.12667  1.0000
  S   S144      1.0  0.05420  0.12687  0.99525  1.0000
  C   C657      1.0  0.03051  0.05115  0.08746  1.0000
  C   C658      1.0  0.66092  0.11277  0.18894  1.0000
  C   C659      1.0  0.75635  0.03780  0.17073  1.0000
  C   C660      1.0  0.62595  0.98203  0.01806  1.0000
  C   C661      1.0  0.41676  0.05590  0.09948  1.0000
  H   H1140     1.0  0.46058  0.06479  0.09326  1.0000
  H   H1141     1.0  0.72148  0.91743  0.11137  1.0000
  H   H1142     1.0  0.05294  0.91419  0.07263  1.0000
  C   C662      1.0  0.14579  0.04002  0.19369  1.0000
  S   S145      1.0  0.51351  0.94129  0.12207  1.0000
  C   C663      1.0  0.09973  0.92335  0.00498  1.0000
  C   C664      1.0  0.67800  0.91521  0.09703  1.0000
  H   H1143     1.0  0.32119  0.04183  0.14703  1.0000
  H   H1144     1.0  0.90451  0.07749  0.97904  1.0000
  H   H1145     1.0  0.65864  0.93682  0.09686  1.0000
  C   C665      1.0  0.07914  0.11303  0.16791  1.0000
  H   H1146     1.0  0.45126  0.08956  0.01573  1.0000
  Fe  Fe73      1.0  0.12154  0.09260  0.97243  1.0000
  H   H1147     1.0  0.34801  0.00190  0.06616  1.0000
  C   C666      1.0  0.31756  0.06511  0.14442  1.0000
  C   C667      1.0  0.38002  0.07624  0.13621  1.0000
  H   H1148     1.0  0.83171  0.07854  0.15420  1.0000
  H   H1149     1.0  0.84244  0.03266  0.03584  1.0000
  H   H1150     1.0  0.63872  0.12937  0.12284  1.0000
  H   H1151     1.0  0.24021  0.96316  0.17360  1.0000
  H   H1152     1.0  0.07365  0.90862  0.98189  1.0000
  H   H1153     1.0  0.03060  0.05030  0.12766  1.0000
  S   S146      1.0  0.17815  0.07718  0.02693  1.0000
  C   C668      1.0  0.92167  0.05806  0.09456  1.0000
  H   H1154     1.0  0.29724  0.06709  0.10930  1.0000
  H   H1155     1.0  0.07827  0.94467  0.00922  1.0000
  H   H1156     1.0  0.27777  0.93082  0.97746  1.0000
  H   H1157     1.0  0.71507  0.04835  0.16415  1.0000
  C   C669      1.0  0.81895  0.06876  0.11807  1.0000
  H   H1158     1.0  0.83522  0.11002  0.05452  1.0000
  H   H1159     1.0  0.91191  0.11463  0.14207  1.0000
  Fe  Fe74      1.0  0.41723  0.89953  0.03048  1.0000
  H   H1160     1.0  0.18605  0.90514  0.98643  1.0000
  C   C670      1.0  0.21811  0.07917  0.17455  1.0000
  H   H1161     1.0  0.11361  0.89082  0.05364  1.0000
  H   H1162     1.0  0.98700  0.09166  0.09233  1.0000
  H   H1163     1.0  0.61827  0.10257  0.19475  1.0000
  H   H1164     1.0  0.30000  0.12067  0.16462  1.0000
  C   C671      1.0  0.87358  0.10236  0.07171  1.0000
  H   H1165     1.0  0.77425  0.04877  0.20381  1.0000
  H   H1166     1.0  0.07205  0.06011  0.07429  1.0000
  H   H1167     1.0  0.09321  0.11382  0.20576  1.0000
  C   C672      1.0  0.09807  0.91317  0.05597  1.0000
  H   H1168     1.0  0.91075  0.10587  0.04547  1.0000
  S   S147      1.0  0.51048  0.88762  0.03491  1.0000
  H   H1169     1.0  0.10925  0.05565  0.19921  1.0000
  Fe  Fe75      1.0  0.68657  0.09622  0.99984  1.0000
  H   H1170     1.0  0.77666  0.02846  0.09418  1.0000
  N   N37       1.0  0.86730  0.07123  0.07878  1.0000
  H   H1171     1.0  0.18325  0.94158  0.00782  1.0000
  S   S148      1.0  0.33309  0.09098  0.99690  1.0000
  H   H1172     1.0  0.58854  0.03762  0.10374  1.0000
  Fe  Fe76      1.0  0.52495  0.93463  0.03994  1.0000
  H   H1173     1.0  0.40251  0.07905  0.17052  1.0000
  C   C673      1.0  0.47438  0.01401  0.98813  1.0000
  H   H1174     1.0  0.63809  0.89848  0.03266  1.0000
  C   C674      1.0  0.30594  0.99497  0.07939  1.0000
  H   H1175     1.0  0.12534  0.92671  0.08015  1.0000
  Fe  Fe77      1.0  0.49157  0.89513  0.11619  1.0000
  H   H1176     1.0  0.69185  0.09678  0.16943  1.0000
  H   H1177     1.0  0.37845  0.09711  0.12094  1.0000
  C   C675      1.0  0.19308  0.04960  0.15740  1.0000
  H   H1178     1.0  0.49376  0.03484  0.99954  1.0000
  C   C676      1.0  0.67524  0.99343  0.99557  1.0000
  C   C677      1.0  0.29965  0.98220  0.12306  1.0000
  H   H1179     1.0  0.70791  0.91403  0.02128  1.0000
  H   H1180     1.0  0.92230  0.06070  0.13526  1.0000
  H   H1181     1.0  0.17383  0.05077  0.12181  1.0000
  H   H1182     1.0  0.39645  0.05310  0.06400  1.0000
  H   H1183     1.0  0.78026  0.08115  0.11034  1.0000
  H   H1184     1.0  0.83727  0.12524  0.14080  1.0000
  C   C678      1.0  0.66016  0.03725  0.04925  1.0000
  H   H1185     1.0  0.49753  0.99707  0.00433  1.0000
  C   C679      1.0  0.69173  0.02127  0.01049  1.0000
  H   H1186     1.0  0.02746  0.02920  0.06905  1.0000
  Fe  Fe78      1.0  0.16084  0.03357  0.99204  1.0000
  C   C680      1.0  0.25734  0.00010  0.05400  1.0000
  H   H1187     1.0  0.92208  0.03460  0.08435  1.0000
  H   H1188     1.0  0.34085  0.11150  0.21252  1.0000
  H   H1189     1.0  0.64962  0.90317  0.12168  1.0000
  S   S149      1.0  0.14139  0.99892  0.04050  1.0000
  S   S150      1.0  0.39664  0.90218  0.11163  1.0000
  H   H1190     1.0  0.93022  0.04255  0.98953  1.0000
  C   C681      1.0  0.98047  0.06973  0.07514  1.0000
  C   C682      1.0  0.20274  0.99125  0.07085  1.0000
  H   H1191     1.0  0.21329  0.09313  0.14466  1.0000
  C   C683      1.0  0.16284  0.92542  0.98242  1.0000
  H   H1192     1.0  0.98370  0.07069  0.03505  1.0000
  C   C684      1.0  0.84892  0.05559  0.03181  1.0000
  H   H1193     1.0  0.45811  0.12632  0.14625  1.0000
  H   H1194     1.0  0.18902  0.08871  0.20594  1.0000
  H   H1195     1.0  0.26237  0.01116  0.02172  1.0000
  H   H1196     1.0  0.03233  0.10815  0.16865  1.0000
  S   S151      1.0  0.67839  0.07249  0.06624  1.0000
  C   C685      1.0  0.19687  0.97719  0.11329  1.0000
  C   C686      1.0  0.68246  0.90020  0.04490  1.0000
  S   S152      1.0  0.35968  0.97857  0.15714  1.0000
  H   H1197     1.0  0.74678  0.01546  0.17743  1.0000
  H   H1198     1.0  0.42836  0.01432  0.00246  1.0000
  Fe  Fe79      1.0  0.41987  0.94794  0.11089  1.0000
  N   N38       1.0  0.28018  0.07929  0.18785  1.0000
  H   H1199     1.0  0.10335  0.09569  0.14461  1.0000
  C   C687      1.0  0.87957  0.12279  0.11889  1.0000
  C   C688      1.0  0.79929  0.03805  0.12594  1.0000
  H   H1200     1.0  0.12882  0.01920  0.17899  1.0000
  C   C689      1.0  0.29709  0.11001  0.19896  1.0000
  S   S153      1.0  0.75697  0.12718  0.98903  1.0000
  H   H1201     1.0  0.83694  0.02429  0.13111  1.0000
  H   H1202     1.0  0.42140  0.03484  0.11362  1.0000
  H   H1203     1.0  0.29840  0.88322  0.06533  1.0000
  S   S154      1.0  0.60086  0.94905  0.99385  1.0000
  C   C690      1.0  0.89127  0.05572  0.98572  1.0000
  H   H1204     1.0  0.22670  0.03275  0.15091  1.0000
  S   S155      1.0  0.43313  0.94609  0.02919  1.0000
  C   C691      1.0  0.59553  0.99769  0.05785  1.0000
  H   H1205     1.0  0.72862  0.03040  0.99185  1.0000
  H   H1206     1.0  0.33538  0.90059  0.21776  1.0000
  H   H1207     1.0  0.68743  0.98397  0.41331  1.0000
  H   H1208     1.0  0.55688  0.96867  0.31949  1.0000
  H   H1209     1.0  0.65654  0.11203  0.41367  1.0000
  H   H1210     1.0  0.83974  0.06860  0.32166  1.0000
  S   S156      1.0  0.32734  0.12047  0.35196  1.0000
  C   C692      1.0  0.32420  0.91982  0.24345  1.0000
  C   C693      1.0  0.56468  0.05362  0.32475  1.0000
  H   H1211     1.0  0.29948  0.93477  0.22387  1.0000
  H   H1212     1.0  0.58222  0.97632  0.23238  1.0000
  C   C694      1.0  0.25596  0.12881  0.23628  1.0000
  H   H1213     1.0  0.10702  0.10605  0.42786  1.0000
  C   C695      1.0  0.64875  0.03907  0.40042  1.0000
  H   H1214     1.0  0.24638  0.11842  0.27008  1.0000
  C   C696      1.0  0.37905  0.93419  0.26050  1.0000
  H   H1215     1.0  0.34675  0.96670  0.45115  1.0000
  H   H1216     1.0  0.67739  0.12002  0.22505  1.0000
  H   H1217     1.0  0.40198  0.92680  0.40445  1.0000
  H   H1218     1.0  0.16327  0.03755  0.22955  1.0000
  H   H1219     1.0  0.94829  0.01199  0.46465  1.0000
  H   H1220     1.0  0.85772  0.03435  0.42349  1.0000
  H   H1221     1.0  0.47272  0.06362  0.33923  1.0000
  H   H1222     1.0  0.35426  0.94345  0.36687  1.0000
  H   H1223     1.0  0.58187  0.09644  0.35749  1.0000
  H   H1224     1.0  0.61377  0.94083  0.22131  1.0000
  H   H1225     1.0  0.64682  0.01395  0.32748  1.0000
  C   C697      1.0  0.79464  0.06810  0.31052  1.0000
  H   H1226     1.0  0.29633  0.91381  0.27521  1.0000
  S   S157      1.0  0.86821  0.12658  0.36915  1.0000
  H   H1227     1.0  0.58928  0.93355  0.30919  1.0000
  N   N39       1.0  0.46585  0.92723  0.31257  1.0000
  C   C698      1.0  0.04779  0.07125  0.42791  1.0000
  H   H1228     1.0  0.43542  0.97097  0.33133  1.0000
  C   C699      1.0  0.66171  0.98536  0.38111  1.0000
  H   H1229     1.0  0.69787  0.08655  0.44012  1.0000
  H   H1230     1.0  0.76074  0.05670  0.38066  1.0000
  H   H1231     1.0  0.20922  0.12954  0.35815  1.0000
  H   H1232     1.0  0.47716  0.88588  0.44169  1.0000
  H   H1233     1.0  0.55819  0.03206  0.33673  1.0000
  C   C700      1.0  0.68870  0.07329  0.34238  1.0000
  H   H1234     1.0  0.86002  0.91851  0.45590  1.0000
  H   H1235     1.0  0.67681  0.96808  0.35249  1.0000
  Fe  Fe80      1.0  0.37219  0.10940  0.41672  1.0000
  H   H1236     1.0  0.46122  0.89543  0.36367  1.0000
  S   S158      1.0  0.45859  0.12291  0.38762  1.0000
  C   C701      1.0  0.84095  0.04839  0.45498  1.0000
  H   H1237     1.0  0.43084  0.89635  0.25935  1.0000
  H   H1238     1.0  0.51709  0.92129  0.24317  1.0000
  C   C702      1.0  0.34434  0.05938  0.25063  1.0000
  H   H1239     1.0  0.78905  0.08499  0.28582  1.0000
  C   C703      1.0  0.58485  0.07417  0.36760  1.0000
  H   H1240     1.0  0.61540  0.98194  0.39207  1.0000
  H   H1241     1.0  0.98414  0.09489  0.39240  1.0000
  H   H1242     1.0  0.38496  0.04054  0.30866  1.0000
  C   C704      1.0  0.65488  0.09034  0.42608  1.0000
  H   H1243     1.0  0.32368  0.02129  0.28685  1.0000
  H   H1244     1.0  0.12860  0.10764  0.31406  1.0000
  C   C705      1.0  0.39463  0.94618  0.38608  1.0000
  H   H1245     1.0  0.36575  0.95398  0.28396  1.0000
  H   H1246     1.0  0.25383  0.07221  0.26291  1.0000
  C   C706      1.0  0.44655  0.95190  0.34969  1.0000
  H   H1247     1.0  0.78756  0.04687  0.29073  1.0000
  C   C707      1.0  0.66984  0.01429  0.36132  1.0000
  H   H1248     1.0  0.48668  0.95573  0.25736  1.0000
  H   H1249     1.0  0.75562  0.90976  0.46747  1.0000
  C   C708      1.0  0.60379  0.95914  0.24952  1.0000
  H   H1250     1.0  0.42313  0.97343  0.44813  1.0000
  C   C709      1.0  0.28360  0.06285  0.23185  1.0000
  C   C710      1.0  0.49410  0.90506  0.33928  1.0000
  H   H1251     1.0  0.55133  0.07277  0.39830  1.0000
  C   C711      1.0  0.56502  0.94982  0.29220  1.0000
  H   H1252     1.0  0.37661  0.99116  0.41004  1.0000
  H   H1253     1.0  0.26819  0.04078  0.22333  1.0000
  H   H1254     1.0  0.01592  0.06107  0.45221  1.0000
  H   H1255     1.0  0.51038  0.08479  0.29592  1.0000
  S   S159      1.0  0.36627  0.06612  0.44289  1.0000
  C   C712      1.0  0.38475  0.97098  0.42615  1.0000
  C   C713      1.0  0.07289  0.09869  0.45404  1.0000
  H   H1256     1.0  0.60598  0.03318  0.41727  1.0000
  H   H1257     1.0  0.48292  0.95880  0.37231  1.0000
  H   H1258     1.0  0.68055  0.09430  0.32859  1.0000
  H   H1259     1.0  0.57010  0.10302  0.46313  1.0000
  H   H1260     1.0  0.03888  0.11579  0.45806  1.0000
  C   C714      1.0  0.50673  0.06325  0.30854  1.0000
  C   C715      1.0  0.41542  0.91388  0.28760  1.0000
  H   H1261     1.0  0.59593  0.05239  0.29216  1.0000
  H   H1262     1.0  0.99563  0.05837  0.36715  1.0000
  H   H1263     1.0  0.99660  0.98250  0.44161  1.0000
  H   H1264     1.0  0.89124  0.08418  0.43505  1.0000
  H   H1265     1.0  0.76224  0.09419  0.37551  1.0000
  C   C716      1.0  0.34107  0.04291  0.29582  1.0000
  H   H1266     1.0  0.68477  0.05749  0.31021  1.0000
  H   H1267     1.0  0.04917  0.08447  0.35443  1.0000
  H   H1268     1.0  0.71662  0.01626  0.35082  1.0000
  H   H1269     1.0  0.36391  0.08025  0.26096  1.0000
  C   C717      1.0  0.75253  0.07320  0.35596  1.0000
  H   H1270     1.0  0.49350  0.04832  0.27761  1.0000
  C   C718      1.0  0.01732  0.07773  0.38282  1.0000
  H   H1271     1.0  0.31325  0.05447  0.32620  1.0000
  H   H1272     1.0  0.67893  0.03888  0.43022  1.0000
  H   H1273     1.0  0.08287  0.05551  0.41527  1.0000
  N   N40       1.0  0.64447  0.06849  0.38361  1.0000
  C   C719      1.0  0.50724  0.93807  0.27414  1.0000
  H   H1274     1.0  0.40443  0.94017  0.22740  1.0000
  H   H1275     1.0  0.37346  0.04702  0.22219  1.0000
  C   C720      1.0  0.85960  0.07666  0.46124  1.0000
  H   H1276     1.0  0.55834  0.88681  0.28066  1.0000
  H   H1277     1.0  0.52585  0.91497  0.36414  1.0000
  H   H1278     1.0  0.64509  0.96736  0.26298  1.0000
  H   H1279     1.0  0.38624  0.90348  0.31416  1.0000
  S   S160      1.0  0.45001  0.12817  0.25008  1.0000
  H   H1280     1.0  0.18023  0.08177  0.46652  1.0000
