data_image0
_chemical_formula_structural       FeS2FeS2FeSFeS3FeSHCHSFeS2FeS2FeSFeS3CHCH3SC4H3C6H4C6H4C6H4C2H3C3HCH2C4H5NC6H7CH8CHNC4H2C4HC2H8CH5CH4CHC2H4NCSCH2C2H3C2H2CH6CH3CH3C2H2CH4CHCHCHCH2C2HCHCH3CH3CHC2H3C2H4NHC2H11C2H2CH5CH5CHCHC3HC2HC3HCHC2H2CHNC2FeC2HCH2NH5CH5C2H2C2HCSCHC4HCH6CHNH2CH7NHCSHCH2C2H11FeH2CHFeS2FeSHFeSFeS3H3CH2C2H2FeSH2SFeSFeSHSHC5H4C5H3C2HC3HC6H10CHCHCH9CHCHCHCH4CH7C4H4CH8CH3CH2CH3C3SC2H6CHCH3CHC2SC2H6NH9CH8C3H4NC6HC2HCHCNCH3NHC3H3CFeHSFeSHFeS2FeSFeS3C4NHC2HCH2C3HCH3C8H6C2SHC2H3C2H7CHCH7NC12H31CH3C2HCH7C2H7CH6SHC4HCNH2CHFeSHFeSHFeSFeS3HSFeSH2C6H4C3H4C3H6CH2CH2CHCH4CH2CSHSCHCH3NHC4H2CH4CH4CH2CH7C2H2CH14SH5C2HCHCH2CNH8C2H4CHC4HCH2C5H5SHSH3CH2C2H4CH3CH3NH2C2HCH5SHCHCFeHCHNH3CSC2H2SH3CH2CH2C3FeS2FeS2FeSFeS3FeS2FeSHFeSFeS3C7H6FeC6H4C3H2C2H5CH3C4HCHC2HNH3C3HC6H4C5H4CHCH6N2CHC2H2CH3C3SHCH3CH8C2H5CHCH3FeCH3NC2H4CH2CH2CH6SH4C2H2CH6CH4CHC2SHCH4CH3SH3CH2CHC2H2CH2NH5SCHCHC2HCHNCH3FeHCH2CH4C2HCHC2H3CHCH4C2HC3H4CH4CHC2HSHCH3CH10CH2CH2CNH9CH2CH3FeS2FeSFeHFeHS3FeH2FeCSH2CHSC6H7C2NH2SCHC6H2CHCHFeCH2SHC2H3C2H2CSH2CHCHC2H3CH3CH4C2HCHCNC4HCH2CH6CHCH3CHSCH7CH4SHCNHCH2SH4C2HC2H3CH6CHCHCHCH3CH4CS2H3CSFeS2FeS2FeSFeS4C2SHCH2C2H3C6H4CHFeC2H3C6H3C6H5C2HCH2CH8CHCH8CSH2CHCH4C2HC2H2C2H2CH3SCHNC12H28NC4H4C2H9SHFeCHCH3C2NC2HC2H3CH5SCHCHC4NH8CHCHCH3CHCHNHC3H2SFeSHSHFeCHFeCHFeSFeSCS2FeSCFeSH3C5H4CH2NC3FeCH2CH2C3H3CH2CH4FeHC2H7C2HCH2CSFeH2CNCH3C2HSH2S2H2CSCH2CH3CHCHCH2C3H2C3H4CH2SH4CH10CHCHCFeHSH4CH2NH2FeH3CHCFeH3C2SHCH2C2HC3H8NC12H20CH3SH2CFeSC2H3SHCFeC2HSH3SFeSC2H2CSCHSCH7CHC3H4CHCHSCHC2HFeCHNHCHCH4CFeH2CFeC2HCH4CHCHCHSH8CHSH2SH2C2HCH4CH3SH2CHC2FeCHCH2CHCHCH2CHCFeCHCHSCH3SH2SHSNCHCH3CNSFeHC2HCSC3HSCH2FeCH2CH4SC2SH3C2H4NC2HC3HC3H12CH6CH10CHC4H2CHCH5C2H2C2H2CH8C3FeH2C2H10CHFeSHFeS2FeHFeS3HFeSHSFeS2CHCHFeS2FeSFeSFeS3FeS2FeSHFeSFeSH2C2H2C3H2CH2S2C6H6CH2C6H4C6H4FeC6H4CH2CHFeC2FeHNC12H30C3H2FeCNC11SH25CH5CH4CFeH2CHCSHSH2CH2SHFeH2CH2SH5NH3S2CH4NC9HC2H3CH4CH8CHCH2CH4NH2C3HSC2HCFeH4C2H2SCH3SC3SC3S2CH3FeHCH2CHCH3CH2C2HSCHSCSHSC2HCH2CH9CH2CH7CH2CHCNC2H4SHSH3CSHCH9CH7FeSFeS2FeSFeSFeS2FeS2FeSFeS3FeS2FeS2FeSFeS3H2C6H4CHC2HC6H4C6H7C6HCH2C6H7CHC2HCH2C3H4SCH4C2H11C5H6CH7NCHCH3CH2NHC2HCHC2H2CHNHSCH3C2H3CNC6HCHCH17CH8NC4HC7H8CH12CH2C3H2C3H2CH4CH3CH5CH5C2H2CH2CH3CH2SH2C2H3CH2CH3C3HSH5NHC2H2CH5C2HC2H4C2H2CHC2H2CNHSH2CHC2H6CH4CH5SH7C4H2NHFeH6CH2SFeCSCHCHC2H2SNH3CSH2CHNCH3C2HC2H3C2H2SH5CSHC4H2CH3SHSC2HCHSH3FeCH3CH2CHCHCFeCH7CSH2FeS2FeSFeSFeHS2HCH3FeS2FeS2FeSFeS3C5H5C2HC3H4CHCH2C6H4C2H2C6H5C3NC4H4CHCHNC9HCH15CHCHC3H3CHCH9CHCHCH4CH2SHCHC2HSH3SH2CH3CH4CH2CH5C2H2CHCH3SCHSH6CH2CHCH3C2HCHNH2CNHFeHSHCHFeCHCSCH5FeSH2SH2CHCFeCSCH2SC2HC3H5C3SCH3CH3CHSH2SHCHCH2CH5C3H7CHCH4CHCSHCH2C4NSHCH10CH2C2HNCHCHC4HNHFeCH3CH2CH2FeCHC2H2CHCSH3CH4C2H2CFeH3C2HFeHCHC2H3C2H2CH2CH2C2FeH5SCH2NHSFeS2FeS2FeSFeS3CHC4HCHCH2CH2C3H2C6H5CHCNC2H2CH8C4H3CH8CH5CH6FeH5CHCH3C2H8CHCNH2C2HC2HC2H3C2H6C2H7CH3CHCH4NH8CH5CHCH3C4H2C4HC3H5C2H3CH2C2H5CHC2H3C2H3CHC3SHCH4CHCH2SH3SH3CH2Fe3H3SHC3H3CH2SNHCH4CFeCHSH2SH4CH5SHCFeCH2SHCHC2SHCH4CH9CHC5HCH4CNH4CH3CHFeCHCHCH2CHCH4CH7CH3CH2C2HCH3NHC2HCHC3HCSFeC2HCH2CH5CHCH3S2C2HC2H2
_chemical_formula_sum              "Fe144 S288 H2304 C1296 N72"
_cell_length_a       53.4966
_cell_length_b       53.8945
_cell_length_c       55.9832
_cell_angle_alpha    88.7668
_cell_angle_beta     91.1155
_cell_angle_gamma    117.153

_space_group_name_H-M_alt    "P 1"
_space_group_IT_number       1

loop_
  _space_group_symop_operation_xyz
  'x, y, z'

loop_
  _atom_site_type_symbol
  _atom_site_label
  _atom_site_symmetry_multiplicity
  _atom_site_fract_x
  _atom_site_fract_y
  _atom_site_fract_z
  _atom_site_occupancy
  Fe  Fe1       1.0  0.35545  0.34309  0.11243  1.0000
  S   S1        1.0  0.33306  0.31998  0.14600  1.0000
  S   S2        1.0  0.34380  0.37508  0.09506  1.0000
  Fe  Fe2       1.0  0.38568  0.30803  0.10763  1.0000
  S   S3        1.0  0.36559  0.28224  0.13998  1.0000
  S   S4        1.0  0.41738  0.29924  0.08864  1.0000
  Fe  Fe3       1.0  0.32550  0.28126  0.12635  1.0000
  S   S5        1.0  0.28817  0.23790  0.12576  1.0000
  Fe  Fe4       1.0  0.37518  0.32284  0.15724  1.0000
  S   S6        1.0  0.38969  0.32471  0.19611  1.0000
  S   S7        1.0  0.34514  0.30400  0.09226  1.0000
  S   S8        1.0  0.39805  0.34910  0.12541  1.0000
  Fe  Fe5       1.0  0.32779  0.17672  0.00719  1.0000
  S   S9        1.0  0.36784  0.18907  0.02819  1.0000
  H   H1        1.0  0.05024  0.05226  0.04343  1.0000
  C   C1        1.0  0.09490  0.99748  0.17592  1.0000
  H   H2        1.0  0.20148  0.27118  0.03862  1.0000
  S   S10       1.0  0.28430  0.15251  0.02146  1.0000
  Fe  Fe6       1.0  0.09688  0.10246  0.13298  1.0000
  S   S11       1.0  0.08564  0.13772  0.13352  1.0000
  S   S12       1.0  0.09071  0.07253  0.16396  1.0000
  Fe  Fe7       1.0  0.11612  0.11522  0.08147  1.0000
  S   S13       1.0  0.10597  0.15120  0.07760  1.0000
  S   S14       1.0  0.13444  0.10037  0.05272  1.0000
  Fe  Fe8       1.0  0.12651  0.16240  0.11409  1.0000
  S   S15       1.0  0.15817  0.20621  0.12488  1.0000
  Fe  Fe9       1.0  0.06615  0.12306  0.09704  1.0000
  S   S16       1.0  0.02027  0.11300  0.09057  1.0000
  S   S17       1.0  0.13899  0.12797  0.11649  1.0000
  S   S18       1.0  0.07502  0.08620  0.09796  1.0000
  C   C2        1.0  0.01747  0.11709  0.04102  1.0000
  H   H3        1.0  0.03139  0.07012  0.16710  1.0000
  C   C3        1.0  0.47739  0.36330  0.12461  1.0000
  H   H4        1.0  0.46641  0.48201  0.08075  1.0000
  H   H5        1.0  0.04020  0.12742  0.04135  1.0000
  H   H6        1.0  0.14200  0.02622  0.02483  1.0000
  S   S19       1.0  0.24674  0.19752  0.01177  1.0000
  C   C4        1.0  0.24096  0.05927  0.01810  1.0000
  C   C5        1.0  0.22416  0.03020  0.01765  1.0000
  C   C6        1.0  0.24220  0.05639  0.06153  1.0000
  C   C7        1.0  0.24975  0.07232  0.04019  1.0000
  H   H7        1.0  0.18559  0.19587  0.19074  1.0000
  H   H8        1.0  0.24927  0.06663  0.07850  1.0000
  H   H9        1.0  0.26263  0.09462  0.04083  1.0000
  C   C8        1.0  0.21590  0.17034  0.02352  1.0000
  C   C9        1.0  0.19906  0.17655  0.03863  1.0000
  C   C10       1.0  0.17418  0.15512  0.04788  1.0000
  C   C11       1.0  0.16591  0.12738  0.04180  1.0000
  C   C12       1.0  0.18299  0.12109  0.02699  1.0000
  C   C13       1.0  0.20807  0.14251  0.01801  1.0000
  H   H10       1.0  0.06730  0.02880  0.10715  1.0000
  H   H11       1.0  0.16135  0.16016  0.05955  1.0000
  H   H12       1.0  0.17685  0.09966  0.02242  1.0000
  H   H13       1.0  0.15496  0.00569  0.04201  1.0000
  C   C14       1.0  0.25250  0.23079  0.12390  1.0000
  C   C15       1.0  0.24301  0.24843  0.13393  1.0000
  C   C16       1.0  0.21408  0.24099  0.13369  1.0000
  C   C17       1.0  0.19444  0.21569  0.12375  1.0000
  C   C18       1.0  0.20405  0.19831  0.11339  1.0000
  C   C19       1.0  0.23286  0.20574  0.11364  1.0000
  H   H14       1.0  0.25784  0.26741  0.14245  1.0000
  H   H15       1.0  0.20684  0.25471  0.14146  1.0000
  H   H16       1.0  0.18929  0.17910  0.10519  1.0000
  H   H17       1.0  0.23978  0.19177  0.10601  1.0000
  C   C20       1.0  0.40315  0.26971  0.07043  1.0000
  C   C21       1.0  0.42056  0.25822  0.06342  1.0000
  C   C22       1.0  0.40948  0.23351  0.05040  1.0000
  C   C23       1.0  0.38114  0.22066  0.04357  1.0000
  C   C24       1.0  0.36391  0.23274  0.04963  1.0000
  C   C25       1.0  0.37482  0.25707  0.06337  1.0000
  H   H18       1.0  0.44249  0.26805  0.06865  1.0000
  H   H19       1.0  0.42290  0.22430  0.04565  1.0000
  H   H20       1.0  0.34216  0.22316  0.04397  1.0000
  H   H21       1.0  0.36130  0.26595  0.06851  1.0000
  C   C26       1.0  0.42414  0.34295  0.20844  1.0000
  C   C27       1.0  0.44540  0.36595  0.19687  1.0000
  H   H22       1.0  0.44090  0.37342  0.18004  1.0000
  H   H23       1.0  0.34999  0.21960  0.10112  1.0000
  H   H24       1.0  0.41676  0.41394  0.03335  1.0000
  C   C28       1.0  0.39743  0.41290  0.03996  1.0000
  C   C29       1.0  0.38406  0.39528  0.05959  1.0000
  C   C30       1.0  0.35974  0.39466  0.06895  1.0000
  H   H25       1.0  0.15511  0.00832  0.14589  1.0000
  C   C31       1.0  0.34829  0.41090  0.05787  1.0000
  H   H26       1.0  0.39302  0.38280  0.06790  1.0000
  H   H27       1.0  0.37577  0.23905  0.18116  1.0000
  C   C32       1.0  0.14441  0.13127  0.20881  1.0000
  C   C33       1.0  0.12682  0.11814  0.18932  1.0000
  C   C34       1.0  0.11165  0.08913  0.18898  1.0000
  C   C35       1.0  0.11330  0.07337  0.20871  1.0000
  H   H28       1.0  0.23899  0.24321  0.21245  1.0000
  H   H29       1.0  0.15577  0.15369  0.20901  1.0000
  H   H30       1.0  0.12517  0.13052  0.17447  1.0000
  H   H31       1.0  0.10087  0.05096  0.20888  1.0000
  H   H32       1.0  0.31614  0.13356  0.05496  1.0000
  N   N1        1.0  0.25647  0.29959  0.06392  1.0000
  C   C36       1.0  0.25523  0.31244  0.03994  1.0000
  C   C37       1.0  0.22782  0.27650  0.07059  1.0000
  C   C38       1.0  0.27821  0.28906  0.06458  1.0000
  C   C39       1.0  0.27526  0.26750  0.04545  1.0000
  C   C40       1.0  0.20854  0.25845  0.05011  1.0000
  C   C41       1.0  0.30199  0.26400  0.04413  1.0000
  H   H33       1.0  0.45661  0.48674  0.11028  1.0000
  H   H34       1.0  0.23946  0.32056  0.04045  1.0000
  H   H35       1.0  0.24756  0.29665  0.02567  1.0000
  H   H36       1.0  0.29967  0.30689  0.06351  1.0000
  H   H37       1.0  0.27794  0.27876  0.08209  1.0000
  H   H38       1.0  0.27139  0.27362  0.02730  1.0000
  H   H39       1.0  0.25776  0.24682  0.05022  1.0000
  C   C42       1.0  0.38613  0.22276  0.12020  1.0000
  H   H40       1.0  0.16423  0.22536  0.20189  1.0000
  H   H41       1.0  0.21935  0.24993  0.03870  1.0000
  H   H42       1.0  0.32017  0.28403  0.03899  1.0000
  H   H43       1.0  0.30650  0.25670  0.06162  1.0000
  H   H44       1.0  0.29925  0.24833  0.03043  1.0000
  H   H45       1.0  0.41360  0.45944  0.06933  1.0000
  H   H46       1.0  0.46520  0.34862  0.11026  1.0000
  H   H47       1.0  0.00016  0.00315  0.18632  1.0000
  C   C43       1.0  0.44280  0.44422  0.10056  1.0000
  H   H48       1.0  0.27249  0.17529  0.10036  1.0000
  N   N2        1.0  0.24142  0.20454  0.20843  1.0000
  C   C44       1.0  0.99898  0.04492  0.00223  1.0000
  C   C45       1.0  0.22912  0.22400  0.20156  1.0000
  C   C46       1.0  0.22493  0.17624  0.19746  1.0000
  C   C47       1.0  0.27116  0.21694  0.19946  1.0000
  H   H49       1.0  0.40001  0.24123  0.20491  1.0000
  H   H50       1.0  0.40686  0.46762  0.09829  1.0000
  C   C48       1.0  0.22185  0.17601  0.16986  1.0000
  C   C49       1.0  0.19684  0.21205  0.20428  1.0000
  C   C50       1.0  0.18747  0.23473  0.20055  1.0000
  C   C51       1.0  0.08257  0.02171  0.11399  1.0000
  H   H51       1.0  0.29209  0.35471  0.12199  1.0000
  C   C52       1.0  0.20205  0.14683  0.16101  1.0000
  C   C53       1.0  0.32491  0.09980  0.06512  1.0000
  H   H52       1.0  0.20134  0.03053  0.16762  1.0000
  H   H53       1.0  0.21733  0.02187  0.14299  1.0000
  H   H54       1.0  0.23425  0.23151  0.18276  1.0000
  H   H55       1.0  0.20370  0.16536  0.20543  1.0000
  H   H56       1.0  0.46172  0.44400  0.10888  1.0000
  H   H57       1.0  0.39395  0.48491  0.04718  1.0000
  H   H58       1.0  0.27159  0.22172  0.17995  1.0000
  H   H59       1.0  0.34227  0.47509  0.04979  1.0000
  C   C54       1.0  0.29236  0.24438  0.21144  1.0000
  H   H60       1.0  0.05579  0.06890  0.20569  1.0000
  H   H61       1.0  0.16849  0.22162  0.04509  1.0000
  H   H62       1.0  0.24251  0.18257  0.16129  1.0000
  H   H63       1.0  0.21330  0.19019  0.16348  1.0000
  H   H64       1.0  0.06414  0.13848  0.22515  1.0000
  C   C55       1.0  0.13585  0.01068  0.20496  1.0000
  H   H65       1.0  0.09153  0.13371  0.00289  1.0000
  H   H66       1.0  0.46447  0.23778  0.13107  1.0000
  H   H67       1.0  0.22103  0.13749  0.00649  1.0000
  H   H68       1.0  0.33740  0.09456  0.07853  1.0000
  C   C56       1.0  0.03697  0.02995  0.99833  1.0000
  H   H69       1.0  0.29503  0.24102  0.23075  1.0000
  C   C57       1.0  0.26489  0.32236  0.08223  1.0000
  C   C58       1.0  0.46648  0.27913  0.13071  1.0000
  H   H70       1.0  0.28534  0.26076  0.20947  1.0000
  H   H71       1.0  0.18101  0.13921  0.16907  1.0000
  H   H72       1.0  0.19938  0.14759  0.14136  1.0000
  H   H73       1.0  0.21062  0.13199  0.16544  1.0000
  N   N3        1.0  0.16372  0.04846  0.10669  1.0000
  C   C59       1.0  0.17267  0.07920  0.10299  1.0000
  S   S20       1.0  0.21654  0.00839  0.08851  1.0000
  C   C60       1.0  0.18363  0.04581  0.12501  1.0000
  H   H74       1.0  0.38235  0.30759  0.99753  1.0000
  H   H75       1.0  0.36694  0.46421  0.08381  1.0000
  C   C61       1.0  0.20119  0.09612  0.09024  1.0000
  C   C62       1.0  0.31513  0.12969  0.09441  1.0000
  H   H76       1.0  0.13497  0.03680  0.13633  1.0000
  H   H77       1.0  0.39134  0.24443  0.12512  1.0000
  H   H78       1.0  0.32647  0.12285  0.10776  1.0000
  C   C63       1.0  0.21099  0.12745  0.09179  1.0000
  C   C64       1.0  0.27975  0.34669  0.00604  1.0000
  H   H79       1.0  0.17316  0.08905  0.12042  1.0000
  H   H80       1.0  0.15723  0.08282  0.09196  1.0000
  C   C65       1.0  0.27843  0.19458  0.06597  1.0000
  H   H81       1.0  0.47708  0.26852  0.16590  1.0000
  H   H82       1.0  0.18662  0.05970  0.14041  1.0000
  H   H83       1.0  0.20481  0.05274  0.11725  1.0000
  H   H84       1.0  0.33301  0.09950  0.04706  1.0000
  H   H85       1.0  0.11286  0.04651  0.08783  1.0000
  H   H86       1.0  0.15017  0.05707  0.05931  1.0000
  C   C66       1.0  0.18107  0.05566  0.23300  1.0000
  H   H87       1.0  0.21811  0.09188  0.09791  1.0000
  H   H88       1.0  0.19885  0.09074  0.07098  1.0000
  H   H89       1.0  0.19350  0.24449  0.18255  1.0000
  C   C67       1.0  0.29681  0.14297  0.16872  1.0000
  H   H90       1.0  0.11663  0.06321  0.11578  1.0000
  H   H91       1.0  0.43703  0.43108  0.08439  1.0000
  H   H92       1.0  0.30485  0.13519  0.18408  1.0000
  C   C68       1.0  0.16604  0.03503  0.08405  1.0000
  C   C69       1.0  0.32741  0.12870  0.06970  1.0000
  H   H93       1.0  0.40520  0.27792  0.00982  1.0000
  H   H94       1.0  0.41302  0.27830  0.15978  1.0000
  C   C70       1.0  0.47263  0.37926  0.20703  1.0000
  H   H95       1.0  0.21918  0.13489  0.10996  1.0000
  H   H96       1.0  0.22803  0.13849  0.07880  1.0000
  H   H97       1.0  0.12553  0.01080  0.11402  1.0000
  H   H98       1.0  0.23004  0.26207  0.08406  1.0000
  C   C71       1.0  0.01680  0.02022  0.19668  1.0000
  H   H99       1.0  0.21514  0.28526  0.07945  1.0000
  C   C72       1.0  0.03841  0.09750  0.21035  1.0000
  H   H100      1.0  0.29989  0.32964  0.02985  1.0000
  C   C73       1.0  0.18214  0.23399  0.06004  1.0000
  H   H101      1.0  0.32937  0.41042  0.06490  1.0000
  C   C74       1.0  0.38648  0.42983  0.02937  1.0000
  H   H102      1.0  0.17001  0.24156  0.07105  1.0000
  H   H103      1.0  0.16029  0.01275  0.08724  1.0000
  C   C75       1.0  0.30115  0.15326  0.12415  1.0000
  C   C76       1.0  0.36143  0.42821  0.03802  1.0000
  H   H104      1.0  0.08019  0.09435  0.03152  1.0000
  C   C77       1.0  0.47891  0.36991  0.22894  1.0000
  H   H105      1.0  0.28005  0.30551  0.11216  1.0000
  C   C78       1.0  0.26423  0.31315  0.10875  1.0000
  H   H106      1.0  0.45208  0.27335  0.19826  1.0000
  H   H107      1.0  0.25116  0.33286  0.08045  1.0000
  H   H108      1.0  0.24320  0.29655  0.11364  1.0000
  C   C79       1.0  0.00774  0.02030  0.07507  1.0000
  H   H109      1.0  0.30066  0.17272  0.12956  1.0000
  H   H110      1.0  0.27393  0.12905  0.16663  1.0000
  H   H111      1.0  0.21719  0.01990  0.00068  1.0000
  C   C80       1.0  0.01346  0.00029  0.99232  1.0000
  H   H112      1.0  0.28670  0.33886  0.07921  1.0000
  C   C81       1.0  0.42242  0.47527  0.08361  1.0000
  C   C82       1.0  0.34764  0.17804  0.10363  1.0000
  H   H113      1.0  0.44720  0.31282  0.14209  1.0000
  H   H114      1.0  0.26117  0.17608  0.05763  1.0000
  H   H115      1.0  0.30017  0.16438  0.17276  1.0000
  C   C83       1.0  0.44678  0.28711  0.18640  1.0000
  C   C84       1.0  0.27092  0.33737  0.12561  1.0000
  H   H116      1.0  0.12021  0.12519  0.00708  1.0000
  H   H117      1.0  0.01846  0.00374  0.04474  1.0000
  H   H118      1.0  0.19230  0.02895  0.21197  1.0000
  H   H119      1.0  0.27068  0.33018  0.14439  1.0000
  N   N4        1.0  0.01112  0.04510  0.19842  1.0000
  H   H120      1.0  0.35259  0.44083  0.02981  1.0000
  C   C85       1.0  0.19743  0.01591  0.15272  1.0000
  C   C86       1.0  0.39510  0.25338  0.19096  1.0000
  H   H121      1.0  0.44340  0.27062  0.13115  1.0000
  H   H122      1.0  0.30586  0.20525  0.09644  1.0000
  H   H123      1.0  0.25505  0.34520  0.12357  1.0000
  H   H124      1.0  0.19362  0.13270  0.08738  1.0000
  H   H125      1.0  0.04379  0.10628  0.19196  1.0000
  H   H126      1.0  0.20535  0.19795  0.04319  1.0000
  H   H127      1.0  0.34338  0.20520  0.13104  1.0000
  H   H128      1.0  0.44898  0.49508  0.04596  1.0000
  H   H129      1.0  0.46333  0.25167  0.10177  1.0000
  H   H130      1.0  0.45306  0.33360  0.16706  1.0000
  H   H131      1.0  0.09818  0.01932  0.17682  1.0000
  C   C87       1.0  0.02876  0.04734  0.03686  1.0000
  C   C88       1.0  0.22554  0.02731  0.06106  1.0000
  H   H132      1.0  0.42227  0.25027  0.16497  1.0000
  H   H133      1.0  0.27966  0.20159  0.20116  1.0000
  C   C89       1.0  0.04827  0.07928  0.00293  1.0000
  H   H134      1.0  0.26982  0.20888  0.07121  1.0000
  H   H135      1.0  0.03325  0.02196  0.23377  1.0000
  H   H136      1.0  0.03651  0.02638  0.18644  1.0000
  H   H137      1.0  0.29091  0.35479  0.04287  1.0000
  H   H138      1.0  0.39891  0.22373  0.10450  1.0000
  C   C90       1.0  0.07898  0.09011  0.01208  1.0000
  H   H139      1.0  0.29496  0.20541  0.05252  1.0000
  H   H140      1.0  0.27868  0.13789  0.12138  1.0000
  H   H141      1.0  0.36160  0.28048  0.01851  1.0000
  H   H142      1.0  0.01412  0.11991  0.00259  1.0000
  H   H143      1.0  0.04076  0.09400  0.00942  1.0000
  C   C91       1.0  0.00267  0.11287  0.01911  1.0000
  H   H144      1.0  0.46492  0.29146  0.02591  1.0000
  C   C92       1.0  0.13432  0.03373  0.11665  1.0000
  H   H145      1.0  0.42530  0.43501  0.11352  1.0000
  C   C93       1.0  0.46340  0.32437  0.15580  1.0000
  C   C94       1.0  0.41937  0.26717  0.17346  1.0000
  C   C95       1.0  0.44910  0.47416  0.09385  1.0000
  H   H146      1.0  0.44187  0.30046  0.19847  1.0000
  C   C96       1.0  0.29023  0.18607  0.08791  1.0000
  C   C97       1.0  0.31241  0.14315  0.14604  1.0000
  H   H147      1.0  0.00987  0.06455  0.12358  1.0000
  C   C98       1.0  0.00280  0.10837  0.06248  1.0000
  C   C99       1.0  0.00975  0.05632  0.17366  1.0000
  C   C100      1.0  0.43029  0.33390  0.23054  1.0000
  H   H148      1.0  0.28491  0.14773  0.07360  1.0000
  C   C101      1.0  0.11239  0.04315  0.10737  1.0000
  H   H149      1.0  0.02355  0.06316  0.04496  1.0000
  C   C102      1.0  0.35478  0.20679  0.11434  1.0000
  C   C103      1.0  0.30294  0.16640  0.08129  1.0000
  H   H150      1.0  0.08039  0.01934  0.13368  1.0000
  H   H151      1.0  0.29281  0.11324  0.09454  1.0000
  C   C104      1.0  0.36983  0.28468  0.00002  1.0000
  H   H152      1.0  0.35894  0.16860  0.11439  1.0000
  N   N5        1.0  0.31693  0.15753  0.10112  1.0000
  C   C105      1.0  0.17943  0.02668  0.22805  1.0000
  C   C106      1.0  0.01922  0.00653  0.22071  1.0000
  Fe  Fe10      1.0  0.27422  0.18031  0.99709  1.0000
  C   C107      1.0  0.13137  0.08659  0.22810  1.0000
  C   C108      1.0  0.21633  0.01429  0.03902  1.0000
  H   H153      1.0  0.17809  0.04190  0.03472  1.0000
  C   C109      1.0  0.00963  0.01841  0.04806  1.0000
  H   H154      1.0  0.31781  0.17642  0.06632  1.0000
  H   H155      1.0  0.32963  0.24027  0.20164  1.0000
  N   N6        1.0  0.47130  0.30527  0.17075  1.0000
  H   H156      1.0  0.08223  0.11754  0.22221  1.0000
  H   H157      1.0  0.02877  0.02765  0.08357  1.0000
  H   H158      1.0  0.30925  0.12155  0.14347  1.0000
  H   H159      1.0  0.35001  0.14374  0.06867  1.0000
  H   H160      1.0  0.32003  0.26073  0.18075  1.0000
  C   C110      1.0  0.06191  0.11701  0.22694  1.0000
  H   H161      1.0  0.12560  0.02119  0.06591  1.0000
  H   H162      1.0  0.23495  0.16259  0.20181  1.0000
  H   H163      1.0  0.33509  0.15699  0.14917  1.0000
  H   H164      1.0  0.05306  0.02750  0.00969  1.0000
  H   H165      1.0  0.39171  0.21259  0.13539  1.0000
  C   C111      1.0  0.28333  0.33653  0.03096  1.0000
  C   C112      1.0  0.48041  0.28781  0.15582  1.0000
  H   H166      1.0  0.35796  0.18273  0.08589  1.0000
  H   H167      1.0  0.17537  0.06420  0.21674  1.0000
  C   C113      1.0  0.17486  0.01609  0.13567  1.0000
  C   C114      1.0  0.48806  0.34896  0.14306  1.0000
  H   H168      1.0  0.49041  0.33845  0.19648  1.0000
  C   C115      1.0  0.09856  0.11759  0.99972  1.0000
  S   S21       1.0  0.40615  0.45440  0.00697  1.0000
  C   C116      1.0  0.32125  0.25567  0.19995  1.0000
  H   H169      1.0  0.03435  0.06210  0.23129  1.0000
  C   C117      1.0  0.03554  0.06748  0.21192  1.0000
  C   C118      1.0  0.34718  0.48663  0.06683  1.0000
  C   C119      1.0  0.15630  0.02680  0.03968  1.0000
  C   C120      1.0  0.14753  0.11562  0.22786  1.0000
  H   H170      1.0  0.18822  0.04446  0.07823  1.0000
  C   C121      1.0  0.14791  0.03587  0.06258  1.0000
  H   H171      1.0  0.07725  0.00117  0.10602  1.0000
  H   H172      1.0  0.13413  0.02983  0.20933  1.0000
  H   H173      1.0  0.19701  0.25103  0.21435  1.0000
  H   H174      1.0  0.30004  0.36411  0.00024  1.0000
  H   H175      1.0  0.18778  0.22002  0.07123  1.0000
  H   H176      1.0  0.30266  0.08363  0.06585  1.0000
  C   C122      1.0  0.47310  0.25706  0.11983  1.0000
  H   H177      1.0  0.01099  0.02662  0.14804  1.0000
  N   N7        1.0  0.02800  0.04967  0.00995  1.0000
  H   H178      1.0  0.26636  0.48633  0.01100  1.0000
  H   H179      1.0  0.37477  0.24755  0.99969  1.0000
  C   C123      1.0  0.24042  0.20110  0.23530  1.0000
  H   H180      1.0  0.14867  0.01567  0.18845  1.0000
  H   H181      1.0  0.18980  0.20266  0.22224  1.0000
  H   H182      1.0  0.32861  0.47653  0.07859  1.0000
  H   H183      1.0  0.05279  0.99769  0.20934  1.0000
  H   H184      1.0  0.01874  0.09795  0.21553  1.0000
  H   H185      1.0  0.08703  0.07478  0.00899  1.0000
  H   H186      1.0  0.26373  0.35441  0.00617  1.0000
  N   N8        1.0  0.15024  0.00278  0.22501  1.0000
  H   H187      1.0  0.22599  0.07903  0.22603  1.0000
  C   C124      1.0  0.38804  0.27002  0.99622  1.0000
  S   S22       1.0  0.25081  0.07840  0.99075  1.0000
  H   H188      1.0  0.43069  0.25530  0.99980  1.0000
  C   C125      1.0  0.47864  0.29872  0.00998  1.0000
  H   H189      1.0  0.46385  0.37108  0.13327  1.0000
  H   H190      1.0  0.99916  0.03495  0.07929  1.0000
  C   C126      1.0  0.37273  0.48630  0.07922  1.0000
  C   C127      1.0  0.99622  0.03479  0.15334  1.0000
  H   H191      1.0  0.48898  0.39689  0.19784  1.0000
  H   H192      1.0  0.99893  0.06973  0.17431  1.0000
  H   H193      1.0  0.47446  0.29743  0.11832  1.0000
  H   H194      1.0  0.39088  0.26939  0.19970  1.0000
  H   H195      1.0  0.33612  0.27507  0.20905  1.0000
  H   H196      1.0  0.49009  0.28607  0.00834  1.0000
  H   H197      1.0  0.17164  0.00092  0.12152  1.0000
  H   H198      1.0  0.27336  0.32960  0.99294  1.0000
  H   H199      1.0  0.48824  0.30031  0.22133  1.0000
  H   H200      1.0  0.99352  0.99939  0.08260  1.0000
  H   H201      1.0  0.07213  0.99693  0.05551  1.0000
  Fe  Fe11      1.0  0.27556  0.12567  0.98949  1.0000
  H   H202      1.0  0.45057  0.30969  0.99008  1.0000
  H   H203      1.0  0.35168  0.27678  0.98736  1.0000
  C   C128      1.0  0.46115  0.29647  0.98745  1.0000
  H   H204      1.0  0.21829  0.19066  0.24142  1.0000
  Fe  Fe12      1.0  0.18017  0.06520  0.31139  1.0000
  S   S23       1.0  0.17714  0.08038  0.34782  1.0000
  S   S24       1.0  0.18614  0.02760  0.30272  1.0000
  Fe  Fe13      1.0  0.17291  0.11149  0.28516  1.0000
  S   S25       1.0  0.16918  0.13061  0.31927  1.0000
  H   H205      1.0  0.03584  0.14060  0.35568  1.0000
  Fe  Fe14      1.0  0.20520  0.12352  0.33334  1.0000
  S   S26       1.0  0.24535  0.15949  0.34801  1.0000
  Fe  Fe15      1.0  0.14158  0.08630  0.33080  1.0000
  S   S27       1.0  0.10032  0.07318  0.34949  1.0000
  S   S28       1.0  0.21089  0.10761  0.29797  1.0000
  S   S29       1.0  0.14260  0.06779  0.29560  1.0000
  H   H206      1.0  0.46264  0.26896  0.32021  1.0000
  H   H207      1.0  0.32854  0.39916  0.40961  1.0000
  H   H208      1.0  0.26881  0.08523  0.41506  1.0000
  C   C129      1.0  0.47287  0.29924  0.43949  1.0000
  H   H209      1.0  0.46200  0.33971  0.25751  1.0000
  H   H210      1.0  0.09266  0.07561  0.29801  1.0000
  C   C130      1.0  0.34734  0.16681  0.42960  1.0000
  C   C131      1.0  0.28183  0.28433  0.48268  1.0000
  H   H211      1.0  0.33184  0.17529  0.42977  1.0000
  H   H212      1.0  0.46964  0.30518  0.40159  1.0000
  Fe  Fe16      1.0  0.39822  0.25235  0.47311  1.0000
  S   S30       1.0  0.37340  0.23857  0.43907  1.0000
  H   H213      1.0  0.42900  0.26747  0.32663  1.0000
  H   H214      1.0  0.00095  0.12110  0.32277  1.0000
  S   S31       1.0  0.34439  0.27924  0.45309  1.0000
  Fe  Fe17      1.0  0.33664  0.23502  0.45993  1.0000
  S   S32       1.0  0.29421  0.19730  0.45355  1.0000
  Fe  Fe18      1.0  0.38241  0.28310  0.43383  1.0000
  S   S33       1.0  0.38976  0.29807  0.39563  1.0000
  H   H215      1.0  0.05798  0.00928  0.35552  1.0000
  S   S34       1.0  0.41054  0.29752  0.46595  1.0000
  H   H216      1.0  0.11193  0.11567  0.39607  1.0000
  C   C132      1.0  0.45825  0.34488  0.35628  1.0000
  C   C133      1.0  0.43110  0.32578  0.36334  1.0000
  C   C134      1.0  0.42363  0.32290  0.38746  1.0000
  C   C135      1.0  0.44316  0.33972  0.40448  1.0000
  C   C136      1.0  0.47022  0.35920  0.39734  1.0000
  H   H217      1.0  0.46378  0.34711  0.33763  1.0000
  H   H218      1.0  0.41591  0.31302  0.35010  1.0000
  H   H219      1.0  0.43741  0.33773  0.42308  1.0000
  H   H220      1.0  0.47369  0.25487  0.42377  1.0000
  C   C137      1.0  0.44983  0.22846  0.46980  1.0000
  C   C138      1.0  0.43519  0.20627  0.45435  1.0000
  C   C139      1.0  0.44945  0.19360  0.44277  1.0000
  C   C140      1.0  0.40926  0.37701  0.44873  1.0000
  C   C141      1.0  0.47786  0.36155  0.37326  1.0000
  H   H221      1.0  0.13566  0.19970  0.33173  1.0000
  H   H222      1.0  0.41271  0.19802  0.45230  1.0000
  H   H223      1.0  0.43789  0.17572  0.43159  1.0000
  C   C142      1.0  0.32311  0.37118  0.45358  1.0000
  C   C143      1.0  0.32193  0.40761  0.42484  1.0000
  H   H224      1.0  0.07950  0.13618  0.28435  1.0000
  C   C144      1.0  0.07030  0.06373  0.33124  1.0000
  C   C145      1.0  0.04389  0.05337  0.34193  1.0000
  C   C146      1.0  0.01957  0.04591  0.32783  1.0000
  H   H225      1.0  0.04221  0.05097  0.36116  1.0000
  C   C147      1.0  0.25761  0.16997  0.37768  1.0000
  C   C148      1.0  0.28356  0.19377  0.38098  1.0000
  C   C149      1.0  0.29474  0.20255  0.40405  1.0000
  C   C150      1.0  0.28015  0.18753  0.42421  1.0000
  C   C151      1.0  0.25409  0.16382  0.42098  1.0000
  C   C152      1.0  0.24283  0.15508  0.39785  1.0000
  H   H226      1.0  0.29514  0.20552  0.36554  1.0000
  H   H227      1.0  0.31469  0.22093  0.40622  1.0000
  H   H228      1.0  0.24262  0.15206  0.43644  1.0000
  H   H229      1.0  0.22288  0.13671  0.39563  1.0000
  H   H230      1.0  0.35813  0.23078  0.37873  1.0000
  H   H231      1.0  0.36491  0.17995  0.47705  1.0000
  H   H232      1.0  0.39251  0.16921  0.40914  1.0000
  H   H233      1.0  0.46650  0.18303  0.35609  1.0000
  H   H234      1.0  0.41911  0.40015  0.44827  1.0000
  H   H235      1.0  0.36795  0.18491  0.43321  1.0000
  C   C153      1.0  0.37290  0.22493  0.36957  1.0000
  H   H236      1.0  0.36903  0.34163  0.44946  1.0000
  C   C154      1.0  0.36760  0.37438  0.47169  1.0000
  H   H237      1.0  0.08294  0.18197  0.31789  1.0000
  C   C155      1.0  0.47405  0.22258  0.37137  1.0000
  H   H238      1.0  0.33198  0.18198  0.38977  1.0000
  H   H239      1.0  0.46170  0.28327  0.45336  1.0000
  H   H240      1.0  0.10379  0.12322  0.31804  1.0000
  H   H241      1.0  0.11963  0.15081  0.40444  1.0000
  H   H242      1.0  0.44310  0.24777  0.36051  1.0000
  H   H243      1.0  0.11797  0.15162  0.25545  1.0000
  H   H244      1.0  0.26878  0.09141  0.38306  1.0000
  H   H245      1.0  0.32161  0.11116  0.41415  1.0000
  H   H246      1.0  0.13007  0.13289  0.35543  1.0000
  C   C156      1.0  0.46870  0.26385  0.40736  1.0000
  H   H247      1.0  0.05482  0.10760  0.32217  1.0000
  C   C157      1.0  0.37316  0.14985  0.40455  1.0000
  H   H248      1.0  0.01009  0.99781  0.35299  1.0000
  C   C158      1.0  0.04815  0.06046  0.29236  1.0000
  H   H249      1.0  0.21721  0.07023  0.25722  1.0000
  C   C159      1.0  0.46165  0.28767  0.41468  1.0000
  H   H250      1.0  0.34299  0.16553  0.36857  1.0000
  H   H251      1.0  0.39247  0.19812  0.37465  1.0000
  H   H252      1.0  0.11131  0.01706  0.37131  1.0000
  H   H253      1.0  0.29861  0.39755  0.42548  1.0000
  C   C160      1.0  0.25315  0.18300  0.27348  1.0000
  H   H254      1.0  0.14766  0.14281  0.39655  1.0000
  H   H255      1.0  0.27672  0.19234  0.24110  1.0000
  H   H256      1.0  0.23100  0.17364  0.27956  1.0000
  H   H257      1.0  0.00090  0.08771  0.32661  1.0000
  H   H258      1.0  0.41555  0.36991  0.43246  1.0000
  H   H259      1.0  0.36139  0.11710  0.37767  1.0000
  H   H260      1.0  0.46035  0.29997  0.32905  1.0000
  C   C161      1.0  0.03369  0.12151  0.34690  1.0000
  C   C162      1.0  0.37787  0.13881  0.38056  1.0000
  C   C163      1.0  0.37679  0.20247  0.38396  1.0000
  C   C164      1.0  0.07237  0.06720  0.30640  1.0000
  H   H261      1.0  0.32503  0.36112  0.43701  1.0000
  H   H262      1.0  0.05032  0.13656  0.31172  1.0000
  H   H263      1.0  0.28262  0.27765  0.46418  1.0000
  H   H264      1.0  0.40940  0.13066  0.36338  1.0000
  C   C165      1.0  0.34139  0.14691  0.45155  1.0000
  H   H265      1.0  0.40720  0.12444  0.39523  1.0000
  H   H266      1.0  0.05702  0.10997  0.24584  1.0000
  H   H267      1.0  0.47198  0.22957  0.35297  1.0000
  H   H268      1.0  0.31994  0.12922  0.45055  1.0000
  H   H269      1.0  0.12491  0.01279  0.24894  1.0000
  H   H270      1.0  0.32428  0.32345  0.45771  1.0000
  H   H271      1.0  0.09378  0.03265  0.38822  1.0000
  H   H272      1.0  0.45356  0.21416  0.38052  1.0000
  C   C166      1.0  0.13461  0.99840  0.24820  1.0000
  H   H273      1.0  0.29142  0.14247  0.38978  1.0000
  H   H274      1.0  0.32788  0.17050  0.47471  1.0000
  H   H275      1.0  0.08361  0.14653  0.37373  1.0000
  C   C167      1.0  0.45754  0.34713  0.24066  1.0000
  H   H276      1.0  0.29134  0.13661  0.42154  1.0000
  H   H277      1.0  0.27832  0.32090  0.47157  1.0000
  C   C168      1.0  0.32340  0.33177  0.47552  1.0000
  H   H278      1.0  0.37024  0.37111  0.43268  1.0000
  H   H279      1.0  0.12272  0.19887  0.36158  1.0000
  H   H280      1.0  0.14495  0.01597  0.33971  1.0000
  C   C169      1.0  0.02167  0.04952  0.30302  1.0000
  C   C170      1.0  0.26844  0.09985  0.40092  1.0000
  C   C171      1.0  0.33417  0.40270  0.44833  1.0000
  S   S35       1.0  0.17301  0.13317  0.25010  1.0000
  C   C172      1.0  0.32166  0.12759  0.40172  1.0000
  C   C173      1.0  0.34853  0.17544  0.38643  1.0000
  H   H281      1.0  0.13782  0.16752  0.36319  1.0000
  H   H282      1.0  0.37740  0.15179  0.36512  1.0000
  H   H283      1.0  0.38595  0.21129  0.40151  1.0000
  H   H284      1.0  0.04994  0.06353  0.27321  1.0000
  H   H285      1.0  0.24851  0.10140  0.40238  1.0000
  H   H286      1.0  0.26286  0.17012  0.28094  1.0000
  C   C174      1.0  0.29334  0.12871  0.40393  1.0000
  H   H287      1.0  0.24313  0.16169  0.24025  1.0000
  C   C175      1.0  0.34353  0.16230  0.47474  1.0000
  H   H288      1.0  0.48532  0.37221  0.41051  1.0000
  H   H289      1.0  0.05502  0.49062  0.30487  1.0000
  H   H290      1.0  0.12818  0.15851  0.32127  1.0000
  C   C176      1.0  0.25435  0.18364  0.24619  1.0000
  H   H291      1.0  0.07458  0.17780  0.34841  1.0000
  C   C177      1.0  0.11972  0.22887  0.33776  1.0000
  C   C178      1.0  0.45455  0.27063  0.35808  1.0000
  S   S36       1.0  0.99474  0.48299  0.31407  1.0000
  C   C179      1.0  0.47900  0.23871  0.47267  1.0000
  C   C180      1.0  0.37726  0.36458  0.44937  1.0000
  H   H292      1.0  0.99923  0.03784  0.33618  1.0000
  H   H293      1.0  0.02688  0.00472  0.39364  1.0000
  H   H294      1.0  0.10421  0.17248  0.28819  1.0000
  H   H295      1.0  0.32968  0.43036  0.42173  1.0000
  H   H296      1.0  0.08054  0.11509  0.36137  1.0000
  H   H297      1.0  0.44890  0.24649  0.40079  1.0000
  N   N9        1.0  0.34765  0.15483  0.40553  1.0000
  H   H298      1.0  0.26478  0.20437  0.28073  1.0000
  H   H299      1.0  0.41718  0.36991  0.46463  1.0000
  H   H300      1.0  0.14061  0.24549  0.34338  1.0000
  H   H301      1.0  0.11660  0.23202  0.31846  1.0000
  H   H302      1.0  0.42359  0.15972  0.38345  1.0000
  H   H303      1.0  0.44348  0.27962  0.36871  1.0000
  H   H304      1.0  0.13313  0.07436  0.24296  1.0000
  H   H305      1.0  0.39328  0.24400  0.36798  1.0000
  H   H306      1.0  0.43843  0.27947  0.41487  1.0000
  C   C181      1.0  0.40626  0.13841  0.38073  1.0000
  H   H307      1.0  0.32153  0.11975  0.38348  1.0000
  H   H308      1.0  0.35734  0.41363  0.44677  1.0000
  H   H309      1.0  0.14943  0.00436  0.26368  1.0000
  H   H310      1.0  0.30013  0.36281  0.45619  1.0000
  H   H311      1.0  0.37195  0.13424  0.41837  1.0000
  H   H312      1.0  0.10334  0.23093  0.34823  1.0000
  H   H313      1.0  0.19056  0.02228  0.24334  1.0000
  H   H314      1.0  0.16685  0.05428  0.24769  1.0000
  C   C182      1.0  0.14272  0.99635  0.33311  1.0000
  C   C183      1.0  0.47846  0.20326  0.44631  1.0000
  C   C184      1.0  0.45158  0.27716  0.33185  1.0000
  H   H315      1.0  0.10822  0.01215  0.40327  1.0000
  H   H316      1.0  0.36467  0.21747  0.35136  1.0000
  H   H317      1.0  0.11830  0.12506  0.27533  1.0000
  H   H318      1.0  0.35674  0.13843  0.45296  1.0000
  N   N10       1.0  0.08659  0.14739  0.33511  1.0000
  C   C185      1.0  0.10578  0.14470  0.31704  1.0000
  C   C186      1.0  0.09206  0.13827  0.35960  1.0000
  C   C187      1.0  0.05663  0.12804  0.32773  1.0000
  C   C188      1.0  0.08942  0.17656  0.33546  1.0000
  C   C189      1.0  0.11860  0.20028  0.34222  1.0000
  C   C190      1.0  0.10096  0.15073  0.29059  1.0000
  H   H319      1.0  0.41393  0.31634  0.23979  1.0000
  C   C191      1.0  0.12294  0.14538  0.36630  1.0000
  C   C192      1.0  0.12557  0.13822  0.39248  1.0000
  H   H320      1.0  0.32751  0.41227  0.46264  1.0000
  C   C193      1.0  0.12147  0.14692  0.27427  1.0000
  H   H321      1.0  0.03505  0.10728  0.36095  1.0000
  C   C194      1.0  0.29225  0.31587  0.48344  1.0000
  N   N11       1.0  0.33627  0.36328  0.47454  1.0000
  C   C195      1.0  0.09739  0.01403  0.38672  1.0000
  H   H322      1.0  0.24988  0.22178  0.24409  1.0000
  H   H323      1.0  0.14354  0.16122  0.27934  1.0000
  H   H324      1.0  0.37858  0.39746  0.47116  1.0000
  N   N12       1.0  0.49195  0.27198  0.38942  1.0000
  H   H325      1.0  0.48038  0.18808  0.38600  1.0000
  C   C196      1.0  0.48593  0.28307  0.36609  1.0000
  C   C197      1.0  0.48158  0.19864  0.36859  1.0000
  C   C198      1.0  0.00421  0.10702  0.33584  1.0000
  H   H326      1.0  0.46911  0.31751  0.44273  1.0000
  H   H327      1.0  0.04164  0.00261  0.31516  1.0000
  H   H328      1.0  0.21143  0.09747  0.24288  1.0000
  C   C199      1.0  0.21082  0.07682  0.24018  1.0000
  Fe  Fe19      1.0  0.37177  0.29010  0.48637  1.0000
  H   H329      1.0  0.49059  0.25617  0.48425  1.0000
  S   S37       1.0  0.38328  0.32614  0.51228  1.0000
  Fe  Fe20      1.0  0.36474  0.45952  0.62752  1.0000
  S   S38       1.0  0.36121  0.45167  0.66697  1.0000
  H   H330      1.0  0.37073  0.40222  0.51323  1.0000
  Fe  Fe21      1.0  0.33678  0.39712  0.61555  1.0000
  S   S39       1.0  0.33075  0.38506  0.65463  1.0000
  S   S40       1.0  0.31899  0.36090  0.58935  1.0000
  Fe  Fe22      1.0  0.31768  0.41900  0.65887  1.0000
  S   S41       1.0  0.27938  0.41340  0.67985  1.0000
  Fe  Fe23      1.0  0.37471  0.41911  0.65881  1.0000
  S   S42       1.0  0.40908  0.41682  0.68067  1.0000
  S   S43       1.0  0.31999  0.42842  0.61942  1.0000
  S   S44       1.0  0.38181  0.42934  0.61975  1.0000
  C   C200      1.0  0.33004  0.37311  0.49781  1.0000
  C   C201      1.0  0.43171  0.20846  0.54648  1.0000
  C   C202      1.0  0.27951  0.43850  0.69992  1.0000
  C   C203      1.0  0.25375  0.43684  0.70703  1.0000
  N   N13       1.0  0.48537  0.22593  0.55224  1.0000
  H   H331      1.0  0.45558  0.22235  0.57953  1.0000
  C   C204      1.0  0.40352  0.19199  0.55886  1.0000
  C   C205      1.0  0.30438  0.45849  0.71036  1.0000
  H   H332      1.0  0.26131  0.34243  0.72546  1.0000
  C   C206      1.0  0.27741  0.47314  0.73633  1.0000
  H   H333      1.0  0.01571  0.46520  0.67497  1.0000
  H   H334      1.0  0.32439  0.46021  0.70491  1.0000
  C   C207      1.0  0.39693  0.38976  0.70180  1.0000
  C   C208      1.0  0.37507  0.36357  0.69628  1.0000
  C   C209      1.0  0.36729  0.34145  0.71284  1.0000
  H   H335      1.0  0.40017  0.17057  0.56355  1.0000
  C   C210      1.0  0.40985  0.39431  0.72427  1.0000
  H   H336      1.0  0.47284  0.20437  0.51854  1.0000
  H   H337      1.0  0.36486  0.36025  0.67900  1.0000
  H   H338      1.0  0.35108  0.32089  0.70831  1.0000
  C   C211      1.0  0.48725  0.27462  0.55623  1.0000
  C   C212      1.0  0.45652  0.21151  0.56311  1.0000
  C   C213      1.0  0.36496  0.33478  0.53406  1.0000
  C   C214      1.0  0.33718  0.31692  0.54025  1.0000
  C   C215      1.0  0.32348  0.32520  0.55729  1.0000
  C   C216      1.0  0.33747  0.35120  0.56853  1.0000
  C   C217      1.0  0.36531  0.36893  0.56247  1.0000
  C   C218      1.0  0.37891  0.36077  0.54529  1.0000
  H   H339      1.0  0.32623  0.29681  0.53186  1.0000
  H   H340      1.0  0.30189  0.31138  0.56180  1.0000
  H   H341      1.0  0.37622  0.38911  0.57077  1.0000
  H   H342      1.0  0.40039  0.37477  0.54058  1.0000
  H   H343      1.0  0.33274  0.39659  0.54193  1.0000
  H   H344      1.0  0.27870  0.32047  0.72563  1.0000
  C   C219      1.0  0.47687  0.40104  0.70145  1.0000
  C   C220      1.0  0.35296  0.42017  0.72786  1.0000
  S   S45       1.0  0.36075  0.24529  0.49515  1.0000
  H   H345      1.0  0.43329  0.22915  0.54147  1.0000
  C   C221      1.0  0.35123  0.40263  0.50648  1.0000
  C   C222      1.0  0.30727  0.36552  0.72164  1.0000
  H   H346      1.0  0.30076  0.30960  0.64148  1.0000
  H   H347      1.0  0.23441  0.42136  0.69917  1.0000
  H   H348      1.0  0.32063  0.41459  0.52070  1.0000
  C   C223      1.0  0.33916  0.41202  0.52695  1.0000
  C   C224      1.0  0.27216  0.33407  0.69101  1.0000
  H   H349      1.0  0.43117  0.19742  0.52986  1.0000
  H   H350      1.0  0.42630  0.41474  0.72871  1.0000
  H   H351      1.0  0.40262  0.20271  0.57532  1.0000
  H   H352      1.0  0.30453  0.47242  0.66078  1.0000
  H   H353      1.0  0.46402  0.35771  0.69283  1.0000
  H   H354      1.0  0.43930  0.36280  0.71106  1.0000
  H   H355      1.0  0.33924  0.14776  0.49023  1.0000
  C   C225      1.0  0.45427  0.37158  0.69606  1.0000
  H   H356      1.0  0.28282  0.39959  0.73239  1.0000
  C   C226      1.0  0.30327  0.47536  0.72879  1.0000
  H   H357      1.0  0.32214  0.48324  0.63269  1.0000
  H   H358      1.0  0.25158  0.31539  0.68856  1.0000
  H   H359      1.0  0.45197  0.19012  0.56931  1.0000
  H   H360      1.0  0.35531  0.43233  0.53380  1.0000
  H   H361      1.0  0.28858  0.33028  0.68232  1.0000
  H   H362      1.0  0.47626  0.24915  0.52439  1.0000
  H   H363      1.0  0.48175  0.32413  0.69977  1.0000
  N   N14       1.0  0.39500  0.33116  0.62404  1.0000
  C   C227      1.0  0.41002  0.32027  0.60797  1.0000
  C   C228      1.0  0.40219  0.32741  0.64963  1.0000
  C   C229      1.0  0.36385  0.31525  0.61918  1.0000
  C   C230      1.0  0.40414  0.36179  0.61948  1.0000
  C   C231      1.0  0.43631  0.38101  0.61955  1.0000
  C   C232      1.0  0.40746  0.32476  0.58073  1.0000
  C   C233      1.0  0.34489  0.32227  0.63547  1.0000
  C   C234      1.0  0.38958  0.29699  0.65941  1.0000
  C   C235      1.0  0.40003  0.29614  0.68490  1.0000
  C   C236      1.0  0.44282  0.41157  0.61621  1.0000
  C   C237      1.0  0.42555  0.31513  0.56659  1.0000
  C   C238      1.0  0.31381  0.30323  0.63041  1.0000
  H   H364      1.0  0.40188  0.29741  0.61069  1.0000
  H   H365      1.0  0.43275  0.32941  0.61282  1.0000
  H   H366      1.0  0.42535  0.33617  0.65190  1.0000
  H   H367      1.0  0.39594  0.33954  0.66190  1.0000
  H   H368      1.0  0.35678  0.29236  0.62011  1.0000
  H   H369      1.0  0.35889  0.31946  0.60059  1.0000
  H   H370      1.0  0.39537  0.36508  0.60223  1.0000
  H   H371      1.0  0.39526  0.37011  0.63323  1.0000
  H   H372      1.0  0.44660  0.37579  0.60484  1.0000
  H   H373      1.0  0.44609  0.37915  0.63668  1.0000
  H   H374      1.0  0.38543  0.31253  0.57448  1.0000
  H   H375      1.0  0.41440  0.34701  0.57612  1.0000
  H   H376      1.0  0.34862  0.34406  0.63215  1.0000
  H   H377      1.0  0.34883  0.31976  0.65463  1.0000
  H   H378      1.0  0.36631  0.28734  0.65988  1.0000
  H   H379      1.0  0.39569  0.28391  0.64830  1.0000
  H   H380      1.0  0.39430  0.30877  0.69700  1.0000
  H   H381      1.0  0.39028  0.27430  0.69179  1.0000
  H   H382      1.0  0.42322  0.30422  0.68533  1.0000
  H   H383      1.0  0.43438  0.41840  0.63132  1.0000
  H   H384      1.0  0.46591  0.42486  0.61573  1.0000
  H   H385      1.0  0.43350  0.41468  0.59919  1.0000
  H   H386      1.0  0.42322  0.31838  0.54717  1.0000
  H   H387      1.0  0.44807  0.32731  0.57159  1.0000
  H   H388      1.0  0.41883  0.29257  0.56986  1.0000
  H   H389      1.0  0.30861  0.30487  0.61132  1.0000
  H   H390      1.0  0.30848  0.28120  0.63485  1.0000
  H   H391      1.0  0.32963  0.35903  0.51282  1.0000
  H   H392      1.0  0.32356  0.36202  0.71227  1.0000
  H   H393      1.0  0.30591  0.38288  0.71164  1.0000
  H   H394      1.0  0.27101  0.35215  0.68208  1.0000
  C   C239      1.0  0.37996  0.44655  0.73357  1.0000
  H   H395      1.0  0.38627  0.19041  0.54662  1.0000
  H   H396      1.0  0.35652  0.41148  0.71118  1.0000
  H   H397      1.0  0.25975  0.27333  0.48884  1.0000
  C   C240      1.0  0.27864  0.33946  0.71766  1.0000
  C   C241      1.0  0.32030  0.49046  0.65068  1.0000
  H   H398      1.0  0.23260  0.45167  0.73113  1.0000
  C   C242      1.0  0.25270  0.45425  0.72497  1.0000
  H   H399      1.0  0.44233  0.37234  0.67994  1.0000
  H   H400      1.0  0.46665  0.26560  0.56524  1.0000
  H   H401      1.0  0.33622  0.42635  0.72410  1.0000
  H   H402      1.0  0.20865  0.47333  0.67731  1.0000
  H   H403      1.0  0.22626  0.48646  0.70533  1.0000
  H   H404      1.0  0.12020  0.49336  0.71652  1.0000
  H   H405      1.0  0.48071  0.18568  0.54123  1.0000
  C   C243      1.0  0.38089  0.34587  0.73514  1.0000
  C   C244      1.0  0.01198  0.48383  0.67343  1.0000
  H   H406      1.0  0.38671  0.46049  0.71756  1.0000
  H   H407      1.0  0.47282  0.29328  0.52762  1.0000
  H   H408      1.0  0.46702  0.41524  0.69940  1.0000
  H   H409      1.0  0.25942  0.48889  0.67407  1.0000
  H   H410      1.0  0.35730  0.41868  0.49216  1.0000
  H   H411      1.0  0.48794  0.19232  0.59213  1.0000
  H   H412      1.0  0.03877  0.48303  0.71431  1.0000
  C   C245      1.0  0.48872  0.40299  0.72721  1.0000
  H   H413      1.0  0.49016  0.38346  0.73137  1.0000
  H   H414      1.0  0.01052  0.48850  0.65418  1.0000
  H   H415      1.0  0.33575  0.32500  0.48786  1.0000
  H   H416      1.0  0.30863  0.37177  0.49713  1.0000
  H   H417      1.0  0.29488  0.27802  0.49458  1.0000
  H   H418      1.0  0.28967  0.32099  0.50204  1.0000
  S   S46       1.0  0.43200  0.24157  0.48791  1.0000
  H   H419      1.0  0.37649  0.36856  0.48773  1.0000
  C   C246      1.0  0.22374  0.49240  0.68669  1.0000
  C   C247      1.0  0.48756  0.20707  0.53372  1.0000
  C   C248      1.0  0.48979  0.29980  0.54141  1.0000
  C   C249      1.0  0.49035  0.25306  0.54022  1.0000
  H   H420      1.0  0.48792  0.31513  0.55323  1.0000
  C   C250      1.0  0.45847  0.46627  0.76075  1.0000
  N   N15       1.0  0.41761  0.42597  0.89074  1.0000
  H   H421      1.0  0.41235  0.29842  0.96870  1.0000
  H   H422      1.0  0.23469  0.44005  0.82650  1.0000
  C   C251      1.0  0.40009  0.27548  0.97059  1.0000
  H   H423      1.0  0.25302  0.03343  0.85363  1.0000
  Fe  Fe24      1.0  0.46171  0.33509  0.79880  1.0000
  S   S47       1.0  0.46184  0.35514  0.83389  1.0000
  H   H424      1.0  0.39451  0.38551  0.92824  1.0000
  Fe  Fe25      1.0  0.40518  0.33043  0.78475  1.0000
  S   S48       1.0  0.40050  0.34988  0.81818  1.0000
  H   H425      1.0  0.28416  0.07078  0.88381  1.0000
  Fe  Fe26      1.0  0.44549  0.38071  0.81279  1.0000
  S   S49       1.0  0.45878  0.42567  0.82280  1.0000
  Fe  Fe27      1.0  0.41660  0.32284  0.83736  1.0000
  S   S50       1.0  0.39877  0.30911  0.87495  1.0000
  S   S51       1.0  0.44919  0.36339  0.77774  1.0000
  S   S52       1.0  0.41761  0.30051  0.80393  1.0000
  H   H426      1.0  0.47532  0.30463  0.91082  1.0000
  S   S53       1.0  0.26263  0.15209  0.96553  1.0000
  Fe  Fe28      1.0  0.30837  0.17660  0.95594  1.0000
  S   S54       1.0  0.32539  0.18668  0.91810  1.0000
  H   H427      1.0  0.30505  0.45433  0.80429  1.0000
  H   H428      1.0  0.22062  0.03329  0.84395  1.0000
  C   C252      1.0  0.37750  0.27473  0.88593  1.0000
  C   C253      1.0  0.37410  0.25103  0.87366  1.0000
  C   C254      1.0  0.35799  0.22421  0.88368  1.0000
  C   C255      1.0  0.34511  0.22079  0.90601  1.0000
  C   C256      1.0  0.34825  0.24446  0.91814  1.0000
  C   C257      1.0  0.36444  0.27125  0.90819  1.0000
  H   H429      1.0  0.38408  0.25337  0.85655  1.0000
  H   H430      1.0  0.35560  0.20604  0.87408  1.0000
  H   H431      1.0  0.33802  0.24210  0.93511  1.0000
  H   H432      1.0  0.36674  0.28942  0.91773  1.0000
  C   C258      1.0  0.45961  0.45087  0.80165  1.0000
  C   C259      1.0  0.41144  0.42954  0.91631  1.0000
  C   C260      1.0  0.30043  0.10430  0.91792  1.0000
  H   H433      1.0  0.22428  0.48048  0.88553  1.0000
  H   H434      1.0  0.45333  0.48255  0.91038  1.0000
  H   H435      1.0  0.40430  0.44600  0.91716  1.0000
  H   H436      1.0  0.39303  0.45801  0.78799  1.0000
  C   C261      1.0  0.39762  0.22977  0.96409  1.0000
  C   C262      1.0  0.28926  0.40238  0.75143  1.0000
  C   C263      1.0  0.30383  0.08393  0.93618  1.0000
  H   H437      1.0  0.21781  0.09496  0.90958  1.0000
  H   H438      1.0  0.22276  0.01932  0.87301  1.0000
  H   H439      1.0  0.39892  0.39834  0.84496  1.0000
  H   H440      1.0  0.25034  0.06917  0.93793  1.0000
  H   H441      1.0  0.27097  0.45621  0.93153  1.0000
  H   H442      1.0  0.20276  0.05807  0.95492  1.0000
  C   C264      1.0  0.21995  0.07890  0.92088  1.0000
  H   H443      1.0  0.02704  0.47966  0.75524  1.0000
  H   H444      1.0  0.27053  0.14237  0.84764  1.0000
  C   C265      1.0  0.45205  0.40623  0.90386  1.0000
  H   H445      1.0  0.39823  0.16733  0.94850  1.0000
  H   H446      1.0  0.24535  0.38428  0.76200  1.0000
  C   C266      1.0  0.45602  0.37996  0.90244  1.0000
  H   H447      1.0  0.27852  0.48285  0.81660  1.0000
  C   C267      1.0  0.43933  0.45347  0.88041  1.0000
  H   H448      1.0  0.18048  0.06923  0.93821  1.0000
  H   H449      1.0  0.32831  0.33967  0.74756  1.0000
  H   H450      1.0  0.47214  0.40247  0.73923  1.0000
  H   H451      1.0  0.46963  0.32718  0.74195  1.0000
  C   C268      1.0  0.46555  0.47767  0.80942  1.0000
  H   H452      1.0  0.28947  0.16992  0.86880  1.0000
  H   H453      1.0  0.38146  0.42572  0.95760  1.0000
  C   C269      1.0  0.23462  0.03591  0.85963  1.0000
  S   S55       1.0  0.37240  0.31812  0.75548  1.0000
  H   H454      1.0  0.42050  0.30378  0.92776  1.0000
  S   S56       1.0  0.31877  0.20721  0.98557  1.0000
  C   C270      1.0  0.38724  0.40855  0.95557  1.0000
  H   H455      1.0  0.37090  0.38952  0.96434  1.0000
  C   C271      1.0  0.27163  0.11912  0.89312  1.0000
  H   H456      1.0  0.44988  0.44974  0.86495  1.0000
  H   H457      1.0  0.29688  0.11682  0.86309  1.0000
  H   H458      1.0  0.24997  0.44919  0.90441  1.0000
  N   N16       1.0  0.41723  0.26078  0.96427  1.0000
  H   H459      1.0  0.46877  0.48234  0.82824  1.0000
  C   C272      1.0  0.24937  0.44918  0.92423  1.0000
  C   C273      1.0  0.29526  0.13271  0.87431  1.0000
  C   C274      1.0  0.29038  0.15326  0.85804  1.0000
  C   C275      1.0  0.23715  0.46816  0.93264  1.0000
  H   H460      1.0  0.34504  0.11449  0.94902  1.0000
  H   H461      1.0  0.27390  0.13591  0.90561  1.0000
  C   C276      1.0  0.46256  0.47366  0.89752  1.0000
  H   H462      1.0  0.40904  0.43483  0.84113  1.0000
  H   H463      1.0  0.47468  0.38258  0.91322  1.0000
  H   H464      1.0  0.38228  0.26972  0.95772  1.0000
  H   H465      1.0  0.43069  0.43737  0.92761  1.0000
  C   C277      1.0  0.39194  0.47251  0.80124  1.0000
  H   H466      1.0  0.36989  0.17637  0.94467  1.0000
  H   H467      1.0  0.30811  0.42275  0.75384  1.0000
  H   H468      1.0  0.37839  0.22543  0.95323  1.0000
  H   H469      1.0  0.30805  0.16326  0.84534  1.0000
  C   C278      1.0  0.25099  0.08721  0.92740  1.0000
  H   H470      1.0  0.25837  0.10483  0.94010  1.0000
  H   H471      1.0  0.33649  0.07870  0.95586  1.0000
  C   C279      1.0  0.36237  0.47032  0.80158  1.0000
  H   H472      1.0  0.25132  0.11335  0.88379  1.0000
  H   H473      1.0  0.23607  0.42751  0.93066  1.0000
  H   H474      1.0  0.00220  0.07407  0.97323  1.0000
  H   H475      1.0  0.45315  0.25570  0.97700  1.0000
  H   H476      1.0  0.45241  0.31514  0.94469  1.0000
  H   H477      1.0  0.21230  0.49317  0.95332  1.0000
  H   H478      1.0  0.41012  0.37671  0.75890  1.0000
  C   C280      1.0  0.33373  0.35416  0.78385  1.0000
  C   C281      1.0  0.40125  0.37259  0.74115  1.0000
  H   H479      1.0  0.42903  0.46597  0.87304  1.0000
  H   H480      1.0  0.04775  0.03895  0.98111  1.0000
  C   C282      1.0  0.32492  0.32732  0.79861  1.0000
  H   H481      1.0  0.34846  0.40887  0.76575  1.0000
  H   H482      1.0  0.21043  0.05860  0.91166  1.0000
  H   H483      1.0  0.35767  0.42337  0.84024  1.0000
  H   H484      1.0  0.06029  0.49450  0.77088  1.0000
  H   H485      1.0  0.39794  0.46727  0.81900  1.0000
  H   H486      1.0  0.30199  0.38354  0.77972  1.0000
  H   H487      1.0  0.36791  0.40754  0.81679  1.0000
  H   H488      1.0  0.32992  0.36886  0.79483  1.0000
  H   H489      1.0  0.35675  0.36337  0.78091  1.0000
  H   H490      1.0  0.99883  0.00140  0.97853  1.0000
  H   H491      1.0  0.40883  0.38248  0.89167  1.0000
  H   H492      1.0  0.42877  0.21333  0.96492  1.0000
  H   H493      1.0  0.29349  0.08373  0.95324  1.0000
  H   H494      1.0  0.39007  0.22178  0.98239  1.0000
  S   S57       1.0  0.32010  0.14742  0.97704  1.0000
  H   H495      1.0  0.09915  0.11466  0.98020  1.0000
  H   H496      1.0  0.32859  0.31176  0.78857  1.0000
  H   H497      1.0  0.33742  0.33190  0.81545  1.0000
  H   H498      1.0  0.30234  0.31819  0.80325  1.0000
  H   H499      1.0  0.40761  0.41423  0.96493  1.0000
  C   C283      1.0  0.20259  0.07499  0.94332  1.0000
  C   C284      1.0  0.45541  0.44505  0.77728  1.0000
  H   H500      1.0  0.41291  0.25684  0.92571  1.0000
  C   C285      1.0  0.42674  0.40345  0.88829  1.0000
  H   H501      1.0  0.44934  0.40934  0.92294  1.0000
  C   C286      1.0  0.42909  0.26925  0.93937  1.0000
  H   H502      1.0  0.21102  0.09457  0.95368  1.0000
  H   H503      1.0  0.41623  0.21602  0.93537  1.0000
  C   C287      1.0  0.48935  0.32726  0.73789  1.0000
  N   N17       1.0  0.27143  0.09472  0.90704  1.0000
  H   H504      1.0  0.44687  0.26418  0.93700  1.0000
  H   H505      1.0  0.30727  0.12458  0.92711  1.0000
  H   H506      1.0  0.43729  0.36151  0.90946  1.0000
  H   H507      1.0  0.43287  0.40260  0.86957  1.0000
  H   H508      1.0  0.25452  0.42062  0.83014  1.0000
  H   H509      1.0  0.45053  0.42445  0.77112  1.0000
  H   H510      1.0  0.29444  0.06239  0.92923  1.0000
  H   H511      1.0  0.26274  0.42168  0.75976  1.0000
  C   C288      1.0  0.25387  0.43877  0.82091  1.0000
  C   C289      1.0  0.26467  0.06963  0.89169  1.0000
  H   H512      1.0  0.25448  0.08036  0.85584  1.0000
  H   H513      1.0  0.29641  0.33113  0.76219  1.0000
  H   H514      1.0  0.00904  0.04613  0.96382  1.0000
  H   H515      1.0  0.31593  0.14463  0.88328  1.0000
  C   C290      1.0  0.43901  0.30001  0.93123  1.0000
  H   H516      1.0  0.31616  0.10841  0.90371  1.0000
  C   C291      1.0  0.45554  0.30631  0.90800  1.0000
  C   C292      1.0  0.24409  0.06475  0.87026  1.0000
  C   C293      1.0  0.31789  0.34846  0.75935  1.0000
  C   C294      1.0  0.41011  0.21098  0.95436  1.0000
  H   H517      1.0  0.22510  0.06653  0.87522  1.0000
  C   C295      1.0  0.34516  0.39806  0.74837  1.0000
  H   H518      1.0  0.34605  0.09205  0.92583  1.0000
  H   H519      1.0  0.44276  0.29163  0.89382  1.0000
  C   C296      1.0  0.33480  0.09293  0.94200  1.0000
  C   C297      1.0  0.39071  0.41735  0.87648  1.0000
  C   C298      1.0  0.38917  0.40306  0.92916  1.0000
  C   C299      1.0  0.39306  0.41502  0.84906  1.0000
  C   C300      1.0  0.36507  0.40770  0.83638  1.0000
  H   H520      1.0  0.38202  0.43232  0.87946  1.0000
  H   H521      1.0  0.37439  0.39655  0.88255  1.0000
  H   H522      1.0  0.34683  0.44791  0.80254  1.0000
  H   H523      1.0  0.36801  0.39653  0.92112  1.0000
  H   H524      1.0  0.35838  0.47268  0.83935  1.0000
  S   S58       1.0  0.36323  0.47164  0.95597  1.0000
  H   H525      1.0  0.30874  0.44858  0.83499  1.0000
  S   S59       1.0  0.30339  0.49063  0.97328  1.0000
  H   H526      1.0  0.34897  0.38669  0.84217  1.0000
  H   H527      1.0  0.25617  0.05030  0.90299  1.0000
  H   H528      1.0  0.37636  0.45808  0.74817  1.0000
  C   C301      1.0  0.35901  0.48570  0.82347  1.0000
  H   H529      1.0  0.38267  0.17364  0.97444  1.0000
  H   H530      1.0  0.45569  0.46192  0.74184  1.0000
  C   C302      1.0  0.29518  0.37846  0.76085  1.0000
  C   C303      1.0  0.38881  0.18020  0.95562  1.0000
  H   H531      1.0  0.23555  0.46616  0.95244  1.0000
  H   H532      1.0  0.04917  0.08186  0.98314  1.0000
  H   H533      1.0  0.47599  0.30504  0.97236  1.0000
  H   H534      1.0  0.25244  0.43572  0.80128  1.0000
  C   C304      1.0  0.44011  0.26572  0.98251  1.0000
  H   H535      1.0  0.47158  0.42385  0.89711  1.0000
  H   H536      1.0  0.46094  0.32779  0.90165  1.0000
  H   H537      1.0  0.47287  0.46314  0.90789  1.0000
  C   C305      1.0  0.30743  0.46401  0.82215  1.0000
  H   H538      1.0  0.45935  0.37603  0.88365  1.0000
  H   H539      1.0  0.31665  0.47114  0.86969  1.0000
  H   H540      1.0  0.21566  0.46054  0.92498  1.0000
  N   N18       1.0  0.31631  0.37313  0.74731  1.0000
  H   H541      1.0  0.20237  0.48741  0.84894  1.0000
  H   H542      1.0  0.17891  0.47927  0.87380  1.0000
  C   C306      1.0  0.26544  0.40324  0.76545  1.0000
  C   C307      1.0  0.99569  0.05139  0.97552  1.0000
  H   H543      1.0  0.36174  0.39109  0.74770  1.0000
  C   C308      1.0  0.27982  0.46583  0.82713  1.0000
  H   H544      1.0  0.27478  0.35920  0.76193  1.0000
  H   H545      1.0  0.02183  0.47880  0.79917  1.0000
  H   H546      1.0  0.27861  0.46986  0.84633  1.0000
  H   H547      1.0  0.27024  0.40478  0.78490  1.0000
  H   H548      1.0  0.32763  0.49531  0.78481  1.0000
  S   S60       1.0  0.27611  0.48922  0.76318  1.0000
  H   H549      1.0  0.35904  0.47894  0.78436  1.0000
  C   C309      1.0  0.46558  0.49333  0.76838  1.0000
  H   H550      1.0  0.35387  0.49207  0.87285  1.0000
  C   C310      1.0  0.33375  0.49280  0.86923  1.0000
  Fe  Fe29      1.0  0.39323  0.48421  0.98719  1.0000
  H   H551      1.0  0.19898  0.49512  0.91458  1.0000
  C   C311      1.0  0.19898  0.49521  0.86617  1.0000
  H   H552      1.0  0.39723  0.44140  0.73871  1.0000
  N   N19       1.0  0.33391  0.49136  0.82293  1.0000
  H   H553      1.0  0.40755  0.49408  0.79623  1.0000
  H   H554      1.0  0.32251  0.48964  0.73762  1.0000
  H   H555      1.0  0.02286  0.72605  0.09114  1.0000
  C   C312      1.0  0.10310  0.61718  0.05286  1.0000
  S   S61       1.0  0.21167  0.66864  0.00417  1.0000
  C   C313      1.0  0.05850  0.59858  0.02919  1.0000
  C   C314      1.0  0.10551  0.98903  0.19866  1.0000
  H   H556      1.0  0.02976  0.69539  0.04144  1.0000
  H   H557      1.0  0.47922  0.52951  0.01277  1.0000
  S   S62       1.0  0.28253  0.65558  0.00341  1.0000
  H   H558      1.0  0.37225  0.65815  0.99560  1.0000
  H   H559      1.0  0.13627  0.57701  0.99724  1.0000
  H   H560      1.0  0.20878  0.79490  0.06476  1.0000
  C   C315      1.0  0.12010  0.59633  0.08663  1.0000
  H   H561      1.0  0.09196  0.75696  0.18905  1.0000
  H   H562      1.0  0.06082  0.64837  0.02771  1.0000
  C   C316      1.0  0.39878  0.49891  0.06277  1.0000
  H   H563      1.0  0.12589  0.63163  0.05225  1.0000
  H   H564      1.0  0.08881  0.66207  0.04950  1.0000
  C   C317      1.0  0.13092  0.80191  0.21736  1.0000
  C   C318      1.0  0.01255  0.89251  0.05421  1.0000
  C   C319      1.0  0.09401  0.68835  0.01875  1.0000
  Fe  Fe30      1.0  0.08922  0.65492  0.16539  1.0000
  S   S63       1.0  0.09360  0.63112  0.13457  1.0000
  S   S64       1.0  0.07871  0.64333  0.20499  1.0000
  Fe  Fe31      1.0  0.10058  0.70623  0.13336  1.0000
  S   S65       1.0  0.10570  0.68669  0.09975  1.0000
  S   S66       1.0  0.09457  0.74516  0.13652  1.0000
  Fe  Fe32      1.0  0.06886  0.64819  0.11318  1.0000
  S   S67       1.0  0.03470  0.61930  0.08882  1.0000
  Fe  Fe33      1.0  0.13057  0.67106  0.12279  1.0000
  S   S68       1.0  0.16962  0.66815  0.11053  1.0000
  S   S69       1.0  0.06127  0.66850  0.14464  1.0000
  S   S70       1.0  0.12868  0.69400  0.15563  1.0000
  Fe  Fe34      1.0  0.16775  0.90206  0.10655  1.0000
  S   S71       1.0  0.12154  0.88925  0.10651  1.0000
  S   S72       1.0  0.18408  0.87048  0.11476  1.0000
  Fe  Fe35      1.0  0.18300  0.96307  0.09232  1.0000
  S   S73       1.0  0.13753  0.95381  0.09138  1.0000
  H   H565      1.0  0.38576  0.67645  0.03466  1.0000
  Fe  Fe36      1.0  0.13363  0.92945  0.12529  1.0000
  S   S74       1.0  0.11001  0.93374  0.15666  1.0000
  Fe  Fe37      1.0  0.13041  0.91472  0.07278  1.0000
  S   S75       1.0  0.09958  0.89814  0.04229  1.0000
  S   S76       1.0  0.17945  0.94096  0.12778  1.0000
  S   S77       1.0  0.17615  0.92536  0.07122  1.0000
  C   C320      1.0  0.02708  0.56002  0.21578  1.0000
  C   C321      1.0  0.09995  0.86839  0.03043  1.0000
  C   C322      1.0  0.12395  0.86438  0.03264  1.0000
  C   C323      1.0  0.12396  0.84042  0.02340  1.0000
  C   C324      1.0  0.09988  0.82011  0.01231  1.0000
  C   C325      1.0  0.11703  0.75311  0.23105  1.0000
  C   C326      1.0  0.07589  0.84811  0.01920  1.0000
  H   H566      1.0  0.14261  0.87983  0.04125  1.0000
  H   H567      1.0  0.14261  0.83771  0.02487  1.0000
  H   H568      1.0  0.02989  0.92314  0.20965  1.0000
  H   H569      1.0  0.03374  0.85280  0.20257  1.0000
  H   H570      1.0  0.12125  0.65674  0.02020  1.0000
  H   H571      1.0  0.08100  0.80548  0.06087  1.0000
  Fe  Fe38      1.0  0.00441  0.70824  0.99310  1.0000
  C   C327      1.0  0.12051  0.77980  0.13159  1.0000
  C   C328      1.0  0.14832  0.78648  0.12630  1.0000
  C   C329      1.0  0.16792  0.81450  0.12182  1.0000
  C   C330      1.0  0.15966  0.83579  0.12210  1.0000
  C   C331      1.0  0.13215  0.82907  0.12840  1.0000
  C   C332      1.0  0.11280  0.80130  0.13330  1.0000
  H   H572      1.0  0.15469  0.77014  0.12570  1.0000
  H   H573      1.0  0.18950  0.81973  0.11798  1.0000
  H   H574      1.0  0.12584  0.84530  0.12991  1.0000
  H   H575      1.0  0.09171  0.79654  0.13839  1.0000
  C   C333      1.0  0.02009  0.63398  0.06802  1.0000
  C   C334      1.0  0.02036  0.67325  0.04539  1.0000
  C   C335      1.0  0.03216  0.66277  0.06323  1.0000
  H   H576      1.0  0.05452  0.55713  0.04051  1.0000
  H   H577      1.0  0.05073  0.67679  0.07299  1.0000
  C   C336      1.0  0.05493  0.61050  0.21760  1.0000
  C   C337      1.0  0.04414  0.58587  0.20453  1.0000
  H   H578      1.0  0.14442  0.61474  0.02567  1.0000
  H   H579      1.0  0.15408  0.72987  0.22477  1.0000
  H   H580      1.0  0.10267  0.57575  0.05396  1.0000
  H   H581      1.0  0.04955  0.58664  0.18591  1.0000
  H   H582      1.0  0.40866  0.62514  0.01854  1.0000
  C   C338      1.0  0.10140  0.60037  0.01118  1.0000
  H   H583      1.0  0.08874  0.68676  0.99937  1.0000
  H   H584      1.0  0.09440  0.62725  0.06509  1.0000
  H   H585      1.0  0.04609  0.55975  0.00973  1.0000
  C   C339      1.0  0.16745  0.93999  0.23071  1.0000
  C   C340      1.0  0.09927  0.59004  0.06582  1.0000
  C   C341      1.0  0.04456  0.56629  0.02813  1.0000
  C   C342      1.0  0.08396  0.65938  0.03011  1.0000
  H   H586      1.0  0.06763  0.78463  0.10180  1.0000
  C   C343      1.0  0.08447  0.76347  0.20493  1.0000
  H   H587      1.0  0.20792  0.77726  0.02406  1.0000
  C   C344      1.0  0.03138  0.98627  0.21678  1.0000
  C   C345      1.0  0.04481  0.93169  0.02826  1.0000
  H   H588      1.0  0.01943  0.54106  0.20559  1.0000
  N   N20       1.0  0.42633  0.50326  0.07405  1.0000
  H   H589      1.0  0.11557  0.57684  0.09678  1.0000
  H   H590      1.0  0.11854  0.61137  0.09896  1.0000
  H   H591      1.0  0.16907  0.93579  0.21160  1.0000
  C   C346      1.0  0.07584  0.82405  0.01020  1.0000
  C   C347      1.0  0.11725  0.73345  0.21127  1.0000
  C   C348      1.0  0.14723  0.80165  0.19496  1.0000
  H   H592      1.0  0.00955  0.86455  0.16330  1.0000
  C   C349      1.0  0.20009  0.66801  0.03388  1.0000
  C   C350      1.0  0.18120  0.67892  0.03821  1.0000
  C   C351      1.0  0.17136  0.67882  0.06145  1.0000
  C   C352      1.0  0.18052  0.66796  0.08072  1.0000
  C   C353      1.0  0.19952  0.65722  0.07640  1.0000
  C   C354      1.0  0.20908  0.65700  0.05311  1.0000
  H   H593      1.0  0.17417  0.68749  0.02347  1.0000
  H   H594      1.0  0.15683  0.68722  0.06450  1.0000
  H   H595      1.0  0.20689  0.64894  0.09118  1.0000
  H   H596      1.0  0.22363  0.64859  0.05011  1.0000
  C   C355      1.0  0.11776  0.87532  0.19865  1.0000
  C   C356      1.0  0.11991  0.89324  0.17935  1.0000
  C   C357      1.0  0.10636  0.91007  0.18012  1.0000
  C   C358      1.0  0.09026  0.90850  0.20010  1.0000
  C   C359      1.0  0.08836  0.89079  0.21949  1.0000
  H   H597      1.0  0.12862  0.86268  0.19808  1.0000
  H   H598      1.0  0.13240  0.89427  0.16403  1.0000
  H   H599      1.0  0.07940  0.92112  0.20073  1.0000
  H   H600      1.0  0.04009  0.97958  0.99542  1.0000
  C   C360      1.0  0.44505  0.64254  0.05436  1.0000
  H   H601      1.0  0.42472  0.55876  0.12457  1.0000
  C   C361      1.0  0.44918  0.51323  0.05540  1.0000
  H   H602      1.0  0.03182  0.88751  0.18504  1.0000
  H   H603      1.0  0.14196  0.60529  0.07993  1.0000
  H   H604      1.0  0.04174  0.94726  0.06385  1.0000
  H   H605      1.0  0.08144  0.75258  0.05374  1.0000
  H   H606      1.0  0.12365  0.81816  0.21498  1.0000
  H   H607      1.0  0.07776  0.57919  0.07330  1.0000
  N   N21       1.0  0.10675  0.77436  0.22436  1.0000
  N   N22       1.0  0.37387  0.63350  0.02618  1.0000
  C   C362      1.0  0.40433  0.64004  0.02878  1.0000
  H   H608      1.0  0.45561  0.52663  0.10198  1.0000
  C   C363      1.0  0.36980  0.65508  0.04008  1.0000
  C   C364      1.0  0.35443  0.60511  0.03635  1.0000
  H   H609      1.0  0.19725  0.87269  0.03241  1.0000
  H   H610      1.0  0.05097  0.60436  0.04555  1.0000
  C   C365      1.0  0.34039  0.65406  0.03767  1.0000
  H   H611      1.0  0.14197  0.63612  0.00140  1.0000
  H   H612      1.0  0.45959  0.66227  0.04518  1.0000
  H   H613      1.0  0.34749  0.55478  0.06035  1.0000
  C   C366      1.0  0.33925  0.67757  0.05166  1.0000
  C   C367      1.0  0.99610  0.61591  0.05538  1.0000
  C   C368      1.0  0.14261  0.59865  0.99072  1.0000
  S   S78       1.0  0.01915  0.74941  0.01091  1.0000
  H   H614      1.0  0.16584  0.60941  0.98892  1.0000
  C   C369      1.0  0.03851  0.92364  0.15157  1.0000
  H   H615      1.0  0.37324  0.65305  0.05952  1.0000
  H   H616      1.0  0.35564  0.60524  0.05622  1.0000
  H   H617      1.0  0.33218  0.59987  0.03208  1.0000
  C   C370      1.0  0.33985  0.55352  0.04161  1.0000
  H   H618      1.0  0.34021  0.53534  0.03296  1.0000
  H   H619      1.0  0.15957  0.79016  0.19901  1.0000
  H   H620      1.0  0.32378  0.63403  0.04476  1.0000
  H   H621      1.0  0.16166  0.98031  0.19921  1.0000
  H   H622      1.0  0.14791  0.77043  0.01467  1.0000
  H   H623      1.0  0.12939  0.78880  0.04440  1.0000
  H   H624      1.0  0.03482  0.89668  0.22576  1.0000
  H   H625      1.0  0.00362  0.53059  0.03277  1.0000
  C   C371      1.0  0.99612  0.65491  0.03295  1.0000
  C   C372      1.0  0.43748  0.55252  0.08931  1.0000
  H   H626      1.0  0.35109  0.70301  0.99560  1.0000
  H   H627      1.0  0.20543  0.82138  0.03407  1.0000
  H   H628      1.0  0.31791  0.67614  0.05001  1.0000
  H   H629      1.0  0.34383  0.67595  0.07090  1.0000
  H   H630      1.0  0.35461  0.69822  0.04448  1.0000
  C   C373      1.0  0.07380  0.78416  0.19503  1.0000
  H   H631      1.0  0.00953  0.80103  0.20221  1.0000
  C   C374      1.0  0.04875  0.76961  0.17809  1.0000
  H   H632      1.0  0.13297  0.79173  0.17970  1.0000
  H   H633      1.0  0.01038  0.85760  0.09343  1.0000
  H   H634      1.0  0.09070  0.80142  0.18489  1.0000
  Fe  Fe39      1.0  0.23995  0.65029  0.99075  1.0000
  C   C375      1.0  0.43478  0.52311  0.09470  1.0000
  H   H635      1.0  0.03078  0.75294  0.18774  1.0000
  H   H636      1.0  0.04216  0.78512  0.17096  1.0000
  H   H637      1.0  0.05445  0.76029  0.16293  1.0000
  N   N23       1.0  0.09022  0.61423  0.02820  1.0000
  C   C376      1.0  0.01010  0.90484  0.16276  1.0000
  C   C377      1.0  0.09822  0.64326  0.01838  1.0000
  H   H638      1.0  0.44836  0.64701  0.99848  1.0000
  H   H639      1.0  0.07725  0.98944  0.02527  1.0000
  H   H640      1.0  0.15647  0.84284  0.18061  1.0000
  H   H641      1.0  0.09503  0.57838  0.01640  1.0000
  C   C378      1.0  0.01070  0.87997  0.17678  1.0000
  H   H642      1.0  0.35260  0.57622  0.00870  1.0000
  H   H643      1.0  0.10402  0.96829  0.19547  1.0000
  C   C379      1.0  0.18394  0.81653  0.04004  1.0000
  H   H644      1.0  0.45575  0.56438  0.07760  1.0000
  H   H645      1.0  0.05579  0.90982  0.06898  1.0000
  C   C380      1.0  0.02901  0.77701  0.08207  1.0000
  H   H646      1.0  0.04564  0.91136  0.14039  1.0000
  H   H647      1.0  0.06609  0.74419  0.21141  1.0000
  H   H648      1.0  0.04170  0.87429  0.05898  1.0000
  H   H649      1.0  0.16752  0.83859  0.06301  1.0000
  H   H650      1.0  0.33527  0.65643  0.01877  1.0000
  H   H651      1.0  0.12828  0.74504  0.19501  1.0000
  S   S79       1.0  0.45341  0.73931  0.99974  1.0000
  H   H652      1.0  0.18219  0.84269  0.20211  1.0000
  H   H653      1.0  0.09536  0.71860  0.20609  1.0000
  H   H654      1.0  0.37665  0.49819  0.09595  1.0000
  H   H655      1.0  0.09837  0.82997  0.08428  1.0000
  C   C381      1.0  0.36679  0.63609  0.00017  1.0000
  C   C382      1.0  0.01341  0.55363  0.03434  1.0000
  H   H656      1.0  0.17928  0.73087  0.00544  1.0000
  H   H657      1.0  0.03392  0.76635  0.06742  1.0000
  C   C383      1.0  0.00797  0.68955  0.12745  1.0000
  H   H658      1.0  0.19579  0.72760  0.09519  1.0000
  H   H659      1.0  0.44334  0.54937  0.04134  1.0000
  H   H660      1.0  0.03677  0.93994  0.14020  1.0000
  H   H661      1.0  0.04608  0.87861  0.10323  1.0000
  H   H662      1.0  0.04505  0.88491  0.01943  1.0000
  H   H663      1.0  0.06403  0.92922  0.03239  1.0000
  C   C384      1.0  0.44763  0.53244  0.03493  1.0000
  H   H664      1.0  0.18773  0.75231  0.10999  1.0000
  H   H665      1.0  0.03737  0.74565  0.11712  1.0000
  H   H666      1.0  0.13063  0.70138  0.20652  1.0000
  H   H667      1.0  0.21538  0.52759  0.99522  1.0000
  C   C385      1.0  0.27588  0.50765  0.00442  1.0000
  H   H668      1.0  0.31780  0.55017  0.04173  1.0000
  C   C386      1.0  0.13164  0.71616  0.22041  1.0000
  C   C387      1.0  0.01387  0.81275  0.21913  1.0000
  S   S80       1.0  0.42858  0.58805  0.99741  1.0000
  H   H669      1.0  0.20876  0.88402  0.06246  1.0000
  C   C388      1.0  0.07768  0.81699  0.07569  1.0000
  H   H670      1.0  0.44518  0.59036  0.10782  1.0000
  H   H671      1.0  0.38045  0.58345  0.03029  1.0000
  H   H672      1.0  0.22796  0.87092  0.04495  1.0000
  H   H673      1.0  0.15996  0.73580  0.07254  1.0000
  C   C389      1.0  0.12004  0.75224  0.06670  1.0000
  H   H674      1.0  0.99707  0.80074  0.23220  1.0000
  H   H675      1.0  0.45273  0.64287  0.07298  1.0000
  H   H676      1.0  0.18197  0.78842  0.08537  1.0000
  S   S81       1.0  0.27100  0.57840  0.01926  1.0000
  H   H677      1.0  0.25339  0.52057  0.02870  1.0000
  H   H678      1.0  0.08341  0.69934  0.02736  1.0000
  H   H679      1.0  0.06683  0.79347  0.20924  1.0000
  C   C390      1.0  0.26837  0.52697  0.01430  1.0000
  H   H680      1.0  0.01089  0.55870  0.05302  1.0000
  H   H681      1.0  0.00449  0.91781  0.17450  1.0000
  C   C391      1.0  0.02800  0.87904  0.09346  1.0000
  H   H682      1.0  0.19134  0.74570  0.05592  1.0000
  C   C392      1.0  0.46346  0.64308  0.98910  1.0000
  C   C393      1.0  0.03656  0.88956  0.06789  1.0000
  H   H683      1.0  0.09016  0.97632  0.05007  1.0000
  H   H684      1.0  0.47277  0.55898  0.00607  1.0000
  C   C394      1.0  0.05749  0.79673  0.09394  1.0000
  H   H685      1.0  0.05501  0.80936  0.10820  1.0000
  H   H686      1.0  0.19770  0.83605  0.07530  1.0000
  N   N24       1.0  0.01893  0.90381  0.02902  1.0000
  H   H687      1.0  0.01192  0.81543  0.14855  1.0000
  H   H688      1.0  0.06925  0.83102  0.06842  1.0000
  H   H689      1.0  0.41787  0.66104  0.02079  1.0000
  H   H690      1.0  0.05692  0.85036  0.01802  1.0000
  H   H691      1.0  0.14338  0.79535  0.07388  1.0000
  S   S82       1.0  0.09945  0.78937  0.00200  1.0000
  C   C395      1.0  0.44273  0.56917  0.11224  1.0000
  H   H692      1.0  0.19040  0.99455  0.16026  1.0000
  C   C396      1.0  0.41526  0.63967  0.05457  1.0000
  H   H693      1.0  0.40172  0.61991  0.06408  1.0000
  C   C397      1.0  0.02434  0.88362  0.01436  1.0000
  C   C398      1.0  0.20666  0.86842  0.04888  1.0000
  H   H694      1.0  0.02795  0.96004  0.03962  1.0000
  C   C399      1.0  0.99424  0.90739  0.01931  1.0000
  H   H695      1.0  0.09128  0.98748  0.21338  1.0000
  N   N25       1.0  0.16847  0.78652  0.04858  1.0000
  C   C400      1.0  0.16340  0.76827  0.02712  1.0000
  H   H696      1.0  0.17320  0.81995  0.02399  1.0000
  H   H697      1.0  0.40011  0.51860  0.05512  1.0000
  H   H698      1.0  0.39773  0.72333  0.01612  1.0000
  Fe  Fe40      1.0  0.26540  0.60982  0.99546  1.0000
  H   H699      1.0  0.14683  0.80977  0.23202  1.0000
  C   C401      1.0  0.04481  0.95438  0.04492  1.0000
  H   H700      1.0  0.09205  0.76530  0.08378  1.0000
  H   H701      1.0  0.02074  0.79021  0.07276  1.0000
  C   C402      1.0  0.35857  0.58014  0.02776  1.0000
  H   H702      1.0  0.35114  0.50840  0.06311  1.0000
  H   H703      1.0  0.41610  0.65742  0.06486  1.0000
  H   H704      1.0  0.03421  0.81505  0.22657  1.0000
  H   H705      1.0  0.04812  0.94056  0.00982  1.0000
  C   C403      1.0  0.27993  0.55443  0.00555  1.0000
  C   C404      1.0  0.13383  0.61443  0.00834  1.0000
  H   H706      1.0  0.09336  0.64244  0.99887  1.0000
  C   C405      1.0  0.16793  0.83122  0.18713  1.0000
  H   H707      1.0  0.10590  0.99517  0.16016  1.0000
  C   C406      1.0  0.18982  0.77422  0.01232  1.0000
  C   C407      1.0  0.09076  0.74955  0.07080  1.0000
  H   H708      1.0  0.07209  0.98364  0.17348  1.0000
  H   H709      1.0  0.12764  0.74774  0.08405  1.0000
  H   H710      1.0  0.07685  0.72854  0.07823  1.0000
  C   C408      1.0  0.15333  0.97749  0.21771  1.0000
  H   H711      1.0  0.18090  0.83031  0.17226  1.0000
  C   C409      1.0  0.18789  0.83911  0.05860  1.0000
  H   H712      1.0  0.41822  0.55163  0.08081  1.0000
  H   H713      1.0  0.05450  0.93400  0.16575  1.0000
  H   H714      1.0  0.11757  0.73610  0.05375  1.0000
  H   H715      1.0  0.99924  0.91808  0.00156  1.0000
  C   C410      1.0  0.07282  0.98088  0.04378  1.0000
  C   C411      1.0  0.10216  0.87418  0.21884  1.0000
  H   H716      1.0  0.02474  0.65218  0.98858  1.0000
  C   C412      1.0  0.14048  0.78208  0.05812  1.0000
  C   C413      1.0  0.18223  0.75143  0.07123  1.0000
  C   C414      1.0  0.19740  0.74885  0.09385  1.0000
  H   H717      1.0  0.20342  0.99193  0.03842  1.0000
  H   H718      1.0  0.01798  0.96953  0.20431  1.0000
  H   H719      1.0  0.02140  0.89292  0.10295  1.0000
  H   H720      1.0  0.15356  0.74594  0.03235  1.0000
  C   C415      1.0  0.18593  0.78160  0.06789  1.0000
  H   H721      1.0  0.12085  0.70371  0.23649  1.0000
  H   H722      1.0  0.42007  0.51370  0.10985  1.0000
  H   H723      1.0  0.22003  0.76410  0.09340  1.0000
  H   H724      1.0  0.00224  0.56177  0.02203  1.0000
  C   C416      1.0  0.47485  0.54581  0.02075  1.0000
  H   H725      1.0  0.09186  0.59926  0.99310  1.0000
  C   C417      1.0  0.01743  0.73514  0.10672  1.0000
  C   C418      1.0  0.02065  0.90632  0.22336  1.0000
  H   H726      1.0  0.34373  0.62430  0.99700  1.0000
  S   S83       1.0  0.37637  0.51151  0.00280  1.0000
  H   H727      1.0  0.11706  0.70080  0.02118  1.0000
  C   C419      1.0  0.39622  0.71873  0.99728  1.0000
  H   H728      1.0  0.44536  0.62468  0.04504  1.0000
  H   H729      1.0  0.13272  0.95875  0.21666  1.0000
  H   H730      1.0  0.02178  0.77738  0.13200  1.0000
  C   C420      1.0  0.01577  0.84163  0.21464  1.0000
  H   H731      1.0  0.04895  0.60490  0.01386  1.0000
  H   H732      1.0  0.43049  0.51979  0.02231  1.0000
  H   H733      1.0  0.01230  0.81097  0.10461  1.0000
  H   H734      1.0  0.00086  0.98934  0.00812  1.0000
  H   H735      1.0  0.19589  0.79348  0.00129  1.0000
  H   H736      1.0  0.46225  0.57139  0.12139  1.0000
  H   H737      1.0  0.05706  0.80854  0.00177  1.0000
  H   H738      1.0  0.99418  0.89684  0.14810  1.0000
  H   H739      1.0  0.00888  0.86163  0.01846  1.0000
  H   H740      1.0  0.02910  0.69961  0.13604  1.0000
  C   C421      1.0  0.18423  0.75044  0.99526  1.0000
  H   H741      1.0  0.00569  0.90528  0.06496  1.0000
  H   H742      1.0  0.47029  0.52398  0.06408  1.0000
  C   C422      1.0  0.00293  0.76962  0.12011  1.0000
  H   H743      1.0  0.99813  0.99478  0.22884  1.0000
  H   H744      1.0  0.02019  0.85220  0.23213  1.0000
  C   C423      1.0  0.17287  0.97012  0.23395  1.0000
  N   N26       1.0  0.00727  0.75587  0.09849  1.0000
  H   H745      1.0  0.00129  0.79495  0.03024  1.0000
  H   H746      1.0  0.07634  0.89003  0.23498  1.0000
  H   H747      1.0  0.08729  0.57303  0.23474  1.0000
  H   H748      1.0  0.03292  0.97675  0.23412  1.0000
  H   H749      1.0  0.12424  0.58801  0.22832  1.0000
  H   H750      1.0  0.99438  0.87144  0.05425  1.0000
  H   H751      1.0  0.00932  0.68011  0.11036  1.0000
  H   H752      1.0  0.10860  0.61051  0.23449  1.0000
  H   H753      1.0  0.19517  0.98398  0.22943  1.0000
  C   C424      1.0  0.99716  0.71106  0.12311  1.0000
  H   H754      1.0  0.99770  0.72808  0.05565  1.0000
  H   H755      1.0  0.99573  0.71922  0.14080  1.0000
  C   C425      1.0  0.99553  0.79390  0.11490  1.0000
  H   H756      1.0  0.14623  0.92537  0.23730  1.0000
  H   H757      1.0  0.99353  0.67264  0.13949  1.0000
  H   H758      1.0  0.99282  0.81405  0.06751  1.0000
  Fe  Fe41      1.0  0.04769  0.81420  0.31877  1.0000
  S   S84       1.0  0.03368  0.81547  0.28084  1.0000
  S   S85       1.0  0.04212  0.77163  0.33168  1.0000
  Fe  Fe42      1.0  0.07327  0.87747  0.32253  1.0000
  S   S86       1.0  0.06173  0.88362  0.28497  1.0000
  Fe  Fe43      1.0  0.02043  0.84688  0.29335  1.0000
  H   H759      1.0  0.11151  0.79202  0.38689  1.0000
  Fe  Fe44      1.0  0.07592  0.85188  0.27550  1.0000
  H   H760      1.0  0.08330  0.75058  0.46828  1.0000
  S   S87       1.0  0.03066  0.84267  0.33190  1.0000
  S   S88       1.0  0.09129  0.84884  0.31258  1.0000
  S   S89       1.0  0.04048  0.52839  0.36582  1.0000
  Fe  Fe45      1.0  0.01970  0.68307  0.44856  1.0000
  H   H761      1.0  0.07881  0.81894  0.36757  1.0000
  H   H762      1.0  0.11551  0.56903  0.26937  1.0000
  Fe  Fe46      1.0  0.05027  0.64876  0.44118  1.0000
  C   C426      1.0  0.04773  0.60898  0.24186  1.0000
  S   S90       1.0  0.08178  0.64340  0.41872  1.0000
  H   H763      1.0  0.16040  0.64251  0.36893  1.0000
  H   H764      1.0  0.10041  0.85410  0.37722  1.0000
  C   C427      1.0  0.03143  0.92210  0.36073  1.0000
  H   H765      1.0  0.13860  0.81755  0.43985  1.0000
  S   S91       1.0  0.06142  0.68767  0.46220  1.0000
  C   C428      1.0  0.05045  0.55940  0.38169  1.0000
  C   C429      1.0  0.07869  0.57476  0.38839  1.0000
  C   C430      1.0  0.08802  0.60050  0.39961  1.0000
  C   C431      1.0  0.06897  0.61056  0.40523  1.0000
  C   C432      1.0  0.04046  0.59480  0.39930  1.0000
  C   C433      1.0  0.03128  0.56949  0.38703  1.0000
  H   H766      1.0  0.09349  0.56690  0.38454  1.0000
  H   H767      1.0  0.10999  0.61246  0.40429  1.0000
  H   H768      1.0  0.02562  0.60234  0.40384  1.0000
  H   H769      1.0  0.09471  0.55907  0.33458  1.0000
  H   H770      1.0  0.02554  0.58227  0.27176  1.0000
  H   H771      1.0  0.02188  0.78837  0.37361  1.0000
  H   H772      1.0  0.07366  0.96954  0.38533  1.0000
  C   C434      1.0  0.11240  0.78932  0.26879  1.0000
  C   C435      1.0  0.14924  0.78338  0.44512  1.0000
  N   N27       1.0  0.10398  0.78131  0.42458  1.0000
  H   H773      1.0  0.14176  0.60900  0.30939  1.0000
  H   H774      1.0  0.05413  0.93531  0.35762  1.0000
  S   S92       1.0  0.01061  0.64653  0.42527  1.0000
  C   C436      1.0  0.02783  0.89909  0.37879  1.0000
  H   H775      1.0  0.12791  0.63301  0.30746  1.0000
  C   C437      1.0  0.03210  0.75688  0.36052  1.0000
  C   C438      1.0  0.03361  0.73208  0.36624  1.0000
  C   C439      1.0  0.02713  0.72021  0.38931  1.0000
  C   C440      1.0  0.01898  0.73304  0.40685  1.0000
  C   C441      1.0  0.01669  0.75741  0.40097  1.0000
  C   C442      1.0  0.02329  0.76937  0.37789  1.0000
  H   H776      1.0  0.04032  0.72227  0.35285  1.0000
  H   H777      1.0  0.02897  0.70145  0.39363  1.0000
  C   C443      1.0  0.00652  0.98640  0.38959  1.0000
  H   H778      1.0  0.03872  0.90823  0.39587  1.0000
  C   C444      1.0  0.07266  0.50920  0.31285  1.0000
  H   H779      1.0  0.13414  0.92562  0.30937  1.0000
  Fe  Fe47      1.0  0.00057  0.51246  0.34403  1.0000
  C   C445      1.0  0.11892  0.94551  0.33411  1.0000
  H   H780      1.0  0.12726  0.81182  0.26653  1.0000
  H   H781      1.0  0.03718  0.88618  0.37163  1.0000
  S   S93       1.0  0.09353  0.91425  0.34698  1.0000
  H   H782      1.0  0.12160  0.95487  0.25943  1.0000
  C   C446      1.0  0.10054  0.82225  0.40168  1.0000
  C   C447      1.0  0.13639  0.94529  0.31593  1.0000
  H   H783      1.0  0.05059  0.53381  0.30999  1.0000
  H   H784      1.0  0.10809  0.78542  0.47727  1.0000
  H   H785      1.0  0.05594  0.62789  0.25213  1.0000
  C   C448      1.0  0.03040  0.58315  0.25302  1.0000
  C   C449      1.0  0.09760  0.79224  0.40133  1.0000
  H   H786      1.0  0.17435  0.63437  0.34284  1.0000
  H   H787      1.0  0.08139  0.76396  0.29525  1.0000
  C   C450      1.0  0.08731  0.77260  0.46881  1.0000
  S   S94       1.0  0.10079  0.85231  0.24311  1.0000
  H   H788      1.0  0.05604  0.98664  0.39893  1.0000
  H   H789      1.0  0.07586  0.77825  0.39523  1.0000
  C   C451      1.0  0.12427  0.61277  0.31590  1.0000
  H   H790      1.0  0.07892  0.94703  0.28042  1.0000
  C   C452      1.0  0.01731  0.93978  0.36941  1.0000
  H   H791      1.0  0.05971  0.62330  0.35331  1.0000
  C   C453      1.0  0.08608  0.78450  0.44364  1.0000
  C   C454      1.0  0.09321  0.77873  0.24626  1.0000
  H   H792      1.0  0.11663  0.83416  0.36543  1.0000
  H   H793      1.0  0.08154  0.79683  0.28792  1.0000
  H   H794      1.0  0.11568  0.56181  0.30968  1.0000
  C   C455      1.0  0.09902  0.83292  0.37642  1.0000
  H   H795      1.0  0.10760  0.97856  0.29104  1.0000
  H   H796      1.0  0.12080  0.83698  0.40996  1.0000
  H   H797      1.0  0.10918  0.97129  0.35709  1.0000
  C   C456      1.0  0.17879  0.80412  0.45325  1.0000
  H   H798      1.0  0.11339  0.62313  0.35095  1.0000
  H   H799      1.0  0.02174  0.91186  0.34362  1.0000
  H   H800      1.0  0.15128  0.76753  0.43410  1.0000
  H   H801      1.0  0.04370  0.76035  0.47789  1.0000
  C   C457      1.0  0.01953  0.97499  0.28637  1.0000
  C   C458      1.0  0.07106  0.53559  0.30431  1.0000
  H   H802      1.0  0.07886  0.69830  0.40223  1.0000
  C   C459      1.0  0.12235  0.97108  0.34283  1.0000
  H   H803      1.0  0.12473  0.77777  0.27239  1.0000
  C   C460      1.0  0.02154  0.98346  0.31244  1.0000
  N   N28       1.0  0.09636  0.58959  0.30804  1.0000
  C   C461      1.0  0.09579  0.56205  0.31480  1.0000
  C   C462      1.0  0.07226  0.59123  0.32020  1.0000
  C   C463      1.0  0.09301  0.59215  0.28146  1.0000
  C   C464      1.0  0.11503  0.58912  0.26581  1.0000
  H   H804      1.0  0.12622  0.59752  0.35242  1.0000
  C   C465      1.0  0.07046  0.61904  0.31684  1.0000
  H   H805      1.0  0.13722  0.77255  0.46120  1.0000
  H   H806      1.0  0.02196  0.94344  0.38874  1.0000
  C   C466      1.0  0.05065  0.62131  0.33500  1.0000
  H   H807      1.0  0.12925  0.75684  0.39666  1.0000
  H   H808      1.0  0.02982  0.60266  0.33456  1.0000
  H   H809      1.0  0.07240  0.58657  0.33960  1.0000
  H   H810      1.0  0.05193  0.57469  0.31355  1.0000
  H   H811      1.0  0.07175  0.57661  0.27549  1.0000
  H   H812      1.0  0.09417  0.61282  0.27677  1.0000
  C   C467      1.0  0.15803  0.63991  0.34924  1.0000
  H   H813      1.0  0.03735  0.97088  0.28189  1.0000
  C   C468      1.0  0.12867  0.61694  0.34329  1.0000
  H   H814      1.0  0.06229  0.62011  0.29866  1.0000
  H   H815      1.0  0.09109  0.63756  0.31908  1.0000
  H   H816      1.0  0.11328  0.70953  0.41569  1.0000
  C   C469      1.0  0.10647  0.74298  0.39898  1.0000
  H   H817      1.0  0.04774  0.64009  0.33098  1.0000
  S   S95       1.0  0.02945  0.61986  0.47191  1.0000
  C   C470      1.0  0.01960  0.95967  0.32955  1.0000
  H   H818      1.0  0.03465  0.95250  0.32283  1.0000
  H   H819      1.0  0.09511  0.74503  0.38281  1.0000
  H   H820      1.0  0.02008  0.99213  0.27467  1.0000
  H   H821      1.0  0.99952  0.95590  0.28298  1.0000
  H   H822      1.0  0.13633  0.60636  0.26922  1.0000
  H   H823      1.0  0.10906  0.79604  0.30649  1.0000
  H   H824      1.0  0.08237  0.98057  0.27036  1.0000
  C   C471      1.0  0.10161  0.71277  0.40029  1.0000
  H   H825      1.0  0.01033  0.76740  0.41445  1.0000
  H   H826      1.0  0.09201  0.80687  0.44645  1.0000
  H   H827      1.0  0.10140  0.74174  0.43728  1.0000
  H   H828      1.0  0.16128  0.66006  0.34095  1.0000
  S   S96       1.0  0.01325  0.72028  0.43660  1.0000
  H   H829      1.0  0.07093  0.50704  0.33261  1.0000
  C   C472      1.0  0.13492  0.79820  0.43035  1.0000
  N   N29       1.0  0.02501  0.96670  0.35577  1.0000
  H   H830      1.0  0.04129  0.93766  0.25027  1.0000
  C   C473      1.0  0.09501  0.78632  0.29093  1.0000
  H   H831      1.0  0.07136  0.53579  0.28451  1.0000
  H   H832      1.0  0.10905  0.70749  0.38368  1.0000
  S   S97       1.0  0.00020  0.52503  0.25359  1.0000
  H   H833      1.0  0.06367  0.77470  0.43763  1.0000
  H   H834      1.0  0.07202  0.73863  0.42089  1.0000
  H   H835      1.0  0.14737  0.80571  0.41365  1.0000
  H   H836      1.0  0.09724  0.95845  0.23909  1.0000
  C   C474      1.0  0.06516  0.77353  0.48512  1.0000
  C   C475      1.0  0.00555  0.97842  0.36311  1.0000
  H   H837      1.0  0.08304  0.82253  0.41186  1.0000
  C   C476      1.0  0.09529  0.75065  0.42156  1.0000
  C   C477      1.0  0.05545  0.98787  0.35911  1.0000
  H   H838      1.0  0.19203  0.81494  0.43760  1.0000
  H   H839      1.0  0.00520  0.88534  0.38213  1.0000
  H   H840      1.0  0.00939  0.55759  0.38204  1.0000
  C   C478      1.0  0.02041  0.55842  0.24014  1.0000
  H   H841      1.0  0.00442  0.92794  0.24622  1.0000
  H   H842      1.0  0.09271  0.50971  0.30731  1.0000
  H   H843      1.0  0.01540  0.90489  0.26194  1.0000
  H   H844      1.0  0.17179  0.97026  0.29368  1.0000
  H   H845      1.0  0.18875  0.79283  0.46321  1.0000
  H   H846      1.0  0.00371  0.98821  0.31531  1.0000
  C   C479      1.0  0.09406  0.96869  0.27529  1.0000
  H   H847      1.0  0.16994  0.97305  0.25300  1.0000
  C   C480      1.0  0.15759  0.97057  0.30696  1.0000
  H   H848      1.0  0.18314  0.93607  0.24123  1.0000
  C   C481      1.0  0.02031  0.92003  0.24686  1.0000
  H   H849      1.0  0.10381  0.73869  0.24543  1.0000
  C   C482      1.0  0.11170  0.96840  0.25426  1.0000
  H   H850      1.0  0.17788  0.81981  0.46528  1.0000
  H   H851      1.0  0.99416  0.92629  0.36842  1.0000
  H   H852      1.0  0.06897  0.98506  0.34560  1.0000
  C   C483      1.0  0.10831  0.59025  0.23926  1.0000
  H   H853      1.0  0.08539  0.79429  0.24283  1.0000
  H   H854      1.0  0.07429  0.75900  0.25113  1.0000
  H   H855      1.0  0.99835  0.94194  0.32693  1.0000
  H   H856      1.0  0.00338  0.96887  0.40189  1.0000
  C   C484      1.0  0.06940  0.98782  0.38373  1.0000
  S   S98       1.0  0.99258  0.54283  0.32128  1.0000
  S   S99       1.0  0.99578  0.65660  0.48002  1.0000
  H   H857      1.0  0.06832  0.79526  0.48693  1.0000
  H   H858      1.0  0.99842  0.61305  0.27664  1.0000
  H   H859      1.0  0.13865  0.76376  0.23884  1.0000
  C   C485      1.0  0.16055  0.99616  0.31526  1.0000
  S   S100      1.0  0.04642  0.66237  0.53210  1.0000
  Fe  Fe48      1.0  0.17341  0.69272  0.62344  1.0000
  S   S101      1.0  0.19770  0.73320  0.64280  1.0000
  S   S102      1.0  0.16428  0.69136  0.58330  1.0000
  Fe  Fe49      1.0  0.17474  0.65891  0.66746  1.0000
  S   S103      1.0  0.19836  0.69629  0.69039  1.0000
  S   S104      1.0  0.16217  0.61634  0.68333  1.0000
  Fe  Fe50      1.0  0.16911  0.71117  0.67350  1.0000
  S   S105      1.0  0.14990  0.73362  0.69385  1.0000
  Fe  Fe51      1.0  0.22499  0.71488  0.65810  1.0000
  S   S106      1.0  0.27287  0.73642  0.65754  1.0000
  S   S107      1.0  0.14295  0.67207  0.65322  1.0000
  S   S108      1.0  0.20318  0.67612  0.63616  1.0000
  S   S109      1.0  0.38325  0.50436  0.61480  1.0000
  C   C486      1.0  0.32750  0.56689  0.71470  1.0000
  C   C487      1.0  0.34514  0.59439  0.72754  1.0000
  S   S110      1.0  0.40685  0.58730  0.70059  1.0000
  H   H860      1.0  0.43903  0.65301  0.69817  1.0000
  C   C488      1.0  0.40281  0.56513  0.67656  1.0000
  H   H861      1.0  0.48845  0.70899  0.66203  1.0000
  H   H862      1.0  0.42479  0.63179  0.65922  1.0000
  C   C489      1.0  0.39252  0.56982  0.65464  1.0000
  C   C490      1.0  0.99732  0.68807  0.69461  1.0000
  H   H863      1.0  0.41326  0.66941  0.66510  1.0000
  H   H864      1.0  0.38770  0.58714  0.65255  1.0000
  H   H865      1.0  0.45161  0.79517  0.68760  1.0000
  C   C491      1.0  0.32986  0.77574  0.72293  1.0000
  C   C492      1.0  0.30075  0.76677  0.72419  1.0000
  C   C493      1.0  0.28302  0.75464  0.70436  1.0000
  C   C494      1.0  0.29436  0.75198  0.68285  1.0000
  C   C495      1.0  0.32357  0.76179  0.68132  1.0000
  C   C496      1.0  0.34126  0.77345  0.70131  1.0000
  H   H866      1.0  0.01363  0.56032  0.53768  1.0000
  H   H867      1.0  0.26061  0.74745  0.70569  1.0000
  H   H868      1.0  0.33253  0.75992  0.66471  1.0000
  H   H869      1.0  0.36363  0.78042  0.70006  1.0000
  C   C497      1.0  0.11804  0.71223  0.70802  1.0000
  H   H870      1.0  0.34066  0.70552  0.68189  1.0000
  Fe  Fe52      1.0  0.03710  0.65832  0.49198  1.0000
  C   C498      1.0  0.40384  0.66064  0.62799  1.0000
  C   C499      1.0  0.10000  0.72358  0.71351  1.0000
  H   H871      1.0  0.04676  0.62094  0.69568  1.0000
  H   H872      1.0  0.25115  0.67912  0.60454  1.0000
  H   H873      1.0  0.10553  0.74493  0.70840  1.0000
  C   C500      1.0  0.19119  0.61107  0.69154  1.0000
  C   C501      1.0  0.18783  0.59039  0.70849  1.0000
  C   C502      1.0  0.21077  0.58591  0.71544  1.0000
  C   C503      1.0  0.23715  0.60206  0.70538  1.0000
  C   C504      1.0  0.24044  0.62241  0.68806  1.0000
  C   C505      1.0  0.21755  0.62718  0.68138  1.0000
  H   H874      1.0  0.16753  0.57815  0.71651  1.0000
  H   H875      1.0  0.30546  0.70146  0.67809  1.0000
  H   H876      1.0  0.22028  0.64315  0.66824  1.0000
  C   C506      1.0  0.07936  0.67026  0.54595  1.0000
  C   C507      1.0  0.08156  0.67119  0.57105  1.0000
  C   C508      1.0  0.10731  0.67749  0.58279  1.0000
  C   C509      1.0  0.13122  0.68301  0.56950  1.0000
  C   C510      1.0  0.12904  0.68215  0.54440  1.0000
  C   C511      1.0  0.10327  0.67575  0.53267  1.0000
  H   H877      1.0  0.06323  0.66705  0.58148  1.0000
  H   H878      1.0  0.10868  0.67814  0.60209  1.0000
  H   H879      1.0  0.14736  0.68631  0.53395  1.0000
  H   H880      1.0  0.10188  0.67504  0.51337  1.0000
  H   H881      1.0  0.26071  0.63474  0.68002  1.0000
  C   C512      1.0  0.03834  0.50345  0.71235  1.0000
  C   C513      1.0  0.48131  0.80094  0.65980  1.0000
  H   H882      1.0  0.45803  0.87371  0.71586  1.0000
  C   C514      1.0  0.31666  0.58258  0.61074  1.0000
  H   H883      1.0  0.46857  0.58748  0.66585  1.0000
  H   H884      1.0  0.00751  0.61651  0.71664  1.0000
  C   C515      1.0  0.48855  0.75827  0.68315  1.0000
  H   H885      1.0  0.40820  0.50662  0.66216  1.0000
  H   H886      1.0  0.48439  0.66285  0.71711  1.0000
  H   H887      1.0  0.12492  0.67585  0.71075  1.0000
  H   H888      1.0  0.41708  0.53888  0.69593  1.0000
  H   H889      1.0  0.45229  0.68856  0.68858  1.0000
  H   H890      1.0  0.41469  0.66268  0.61080  1.0000
  H   H891      1.0  0.30915  0.77706  0.52278  1.0000
  H   H892      1.0  0.37923  0.55519  0.61880  1.0000
  C   C516      1.0  0.10214  0.60649  0.71468  1.0000
  H   H893      1.0  0.31153  0.51519  0.68715  1.0000
  C   C517      1.0  0.07085  0.55430  0.71544  1.0000
  H   H894      1.0  0.32844  0.80604  0.54255  1.0000
  H   H895      1.0  0.44494  0.64744  0.63367  1.0000
  H   H896      1.0  0.31108  0.67143  0.68508  1.0000
  H   H897      1.0  0.32295  0.52732  0.63338  1.0000
  H   H898      1.0  0.48987  0.67205  0.62133  1.0000
  H   H899      1.0  0.07709  0.55510  0.69654  1.0000
  H   H900      1.0  0.38818  0.63852  0.63091  1.0000
  H   H901      1.0  0.24774  0.50941  0.65527  1.0000
  C   C518      1.0  0.44037  0.65223  0.65172  1.0000
  S   S111      1.0  0.47862  0.59050  0.72236  1.0000
  H   H902      1.0  0.33987  0.77970  0.53870  1.0000
  H   H903      1.0  0.01761  0.49969  0.71967  1.0000
  C   C519      1.0  0.03597  0.50897  0.68525  1.0000
  H   H904      1.0  0.31024  0.56240  0.60167  1.0000
  C   C520      1.0  0.42509  0.67063  0.64864  1.0000
  H   H905      1.0  0.05598  0.64879  0.67384  1.0000
  H   H906      1.0  0.33982  0.58582  0.68052  1.0000
  H   H907      1.0  0.08709  0.62790  0.66996  1.0000
  H   H908      1.0  0.01361  0.57558  0.50862  1.0000
  C   C521      1.0  0.01598  0.61167  0.66607  1.0000
  C   C522      1.0  0.40887  0.54254  0.67913  1.0000
  H   H909      1.0  0.45539  0.86529  0.68443  1.0000
  C   C523      1.0  0.11087  0.68461  0.71471  1.0000
  C   C524      1.0  0.31876  0.69400  0.68838  1.0000
  H   H910      1.0  0.33997  0.55516  0.71391  1.0000
  H   H911      1.0  0.28855  0.50299  0.64278  1.0000
  C   C525      1.0  0.39256  0.52840  0.63831  1.0000
  C   C526      1.0  0.48076  0.68062  0.71094  1.0000
  H   H912      1.0  0.30882  0.55473  0.72572  1.0000
  H   H913      1.0  0.07989  0.49758  0.73536  1.0000
  C   C527      1.0  0.06516  0.61606  0.66338  1.0000
  H   H914      1.0  0.46594  0.62163  0.63692  1.0000
  H   H915      1.0  0.99506  0.58371  0.70350  1.0000
  H   H916      1.0  0.05252  0.55889  0.71508  1.0000
  S   S112      1.0  0.45187  0.75123  0.71870  1.0000
  C   C528      1.0  0.28740  0.68624  0.72416  1.0000
  H   H917      1.0  0.39257  0.67358  0.62681  1.0000
  N   N30       1.0  0.25837  0.75872  0.58462  1.0000
  C   C529      1.0  0.25911  0.73277  0.59446  1.0000
  C   C530      1.0  0.26751  0.78018  0.60411  1.0000
  C   C531      1.0  0.22808  0.75097  0.57841  1.0000
  C   C532      1.0  0.27595  0.77030  0.56250  1.0000
  C   C533      1.0  0.30294  0.76644  0.56077  1.0000
  C   C534      1.0  0.24584  0.70682  0.57820  1.0000
  C   C535      1.0  0.22164  0.77510  0.56996  1.0000
  C   C536      1.0  0.29829  0.79182  0.61315  1.0000
  C   C537      1.0  0.30336  0.81017  0.63499  1.0000
  C   C538      1.0  0.32113  0.78340  0.53988  1.0000
  C   C539      1.0  0.25580  0.68524  0.58543  1.0000
  C   C540      1.0  0.19156  0.76384  0.56027  1.0000
  H   H918      1.0  0.24754  0.72639  0.61161  1.0000
  H   H919      1.0  0.28079  0.73672  0.59927  1.0000
  H   H920      1.0  0.26541  0.79889  0.59809  1.0000
  H   H921      1.0  0.25347  0.77147  0.61984  1.0000
  H   H922      1.0  0.21445  0.74068  0.59400  1.0000
  H   H923      1.0  0.22030  0.73528  0.56394  1.0000
  H   H924      1.0  0.26334  0.76058  0.54613  1.0000
  H   H925      1.0  0.28210  0.79296  0.56046  1.0000
  H   H926      1.0  0.29739  0.74425  0.55773  1.0000
  H   H927      1.0  0.31601  0.77277  0.57719  1.0000
  H   H928      1.0  0.22260  0.69663  0.57991  1.0000
  H   H929      1.0  0.25079  0.71247  0.55910  1.0000
  H   H930      1.0  0.23617  0.78786  0.55566  1.0000
  H   H931      1.0  0.22341  0.78877  0.58512  1.0000
  H   H932      1.0  0.30387  0.77505  0.61845  1.0000
  H   H933      1.0  0.31282  0.80510  0.59906  1.0000
  H   H934      1.0  0.32548  0.81806  0.64124  1.0000
  H   H935      1.0  0.29941  0.82825  0.63052  1.0000
  H   H936      1.0  0.28945  0.79796  0.64989  1.0000
  H   H937      1.0  0.33304  0.60642  0.72917  1.0000
  H   H938      1.0  0.00994  0.58902  0.66488  1.0000
  H   H939      1.0  0.01857  0.69799  0.70299  1.0000
  H   H940      1.0  0.27875  0.69378  0.58259  1.0000
  H   H941      1.0  0.10742  0.60568  0.69577  1.0000
  H   H942      1.0  0.24467  0.66632  0.57441  1.0000
  H   H943      1.0  0.17625  0.75186  0.57444  1.0000
  H   H944      1.0  0.18742  0.78141  0.55429  1.0000
  H   H945      1.0  0.06673  0.76527  0.50314  1.0000
  N   N31       1.0  0.30149  0.54778  0.67417  1.0000
  C   C541      1.0  0.29617  0.55883  0.65059  1.0000
  C   C542      1.0  0.27375  0.53154  0.68665  1.0000
  C   C543      1.0  0.31934  0.57279  0.68927  1.0000
  C   C544      1.0  0.31643  0.52999  0.67167  1.0000
  H   H946      1.0  0.08371  0.61063  0.71526  1.0000
  H   H947      1.0  0.08976  0.50714  0.69214  1.0000
  H   H948      1.0  0.27835  0.69924  0.71551  1.0000
  H   H949      1.0  0.03126  0.52691  0.68259  1.0000
  C   C545      1.0  0.40359  0.52409  0.66005  1.0000
  C   C546      1.0  0.06783  0.68007  0.73256  1.0000
  H   H950      1.0  0.47839  0.81736  0.65073  1.0000
  H   H951      1.0  0.02474  0.65646  0.69237  1.0000
  H   H952      1.0  0.33052  0.60100  0.64510  1.0000
  H   H953      1.0  0.28375  0.54174  0.63817  1.0000
  H   H954      1.0  0.12032  0.62391  0.72345  1.0000
  H   H955      1.0  0.26380  0.54540  0.68993  1.0000
  H   H956      1.0  0.30877  0.58636  0.69096  1.0000
  H   H957      1.0  0.06497  0.62004  0.64383  1.0000
  H   H958      1.0  0.33960  0.54297  0.67277  1.0000
  S   S113      1.0  0.43292  0.81424  0.73060  1.0000
  H   H959      1.0  0.27687  0.52397  0.70452  1.0000
  Fe  Fe53      1.0  0.43601  0.58655  0.72997  1.0000
  C   C547      1.0  0.48795  0.60446  0.65807  1.0000
  H   H960      1.0  0.33998  0.57393  0.63859  1.0000
  C   C548      1.0  0.12803  0.51547  0.71072  1.0000
  H   H961      1.0  0.01699  0.61939  0.64728  1.0000
  H   H962      1.0  0.33090  0.69054  0.72441  1.0000
  H   H963      1.0  0.00127  0.54533  0.72855  1.0000
  C   C549      1.0  0.07478  0.70742  0.72540  1.0000
  C   C550      1.0  0.38770  0.55172  0.63553  1.0000
  N   N32       1.0  0.06234  0.52578  0.72645  1.0000
  C   C551      1.0  0.01206  0.57783  0.52813  1.0000
  C   C552      1.0  0.46629  0.78853  0.68073  1.0000
  H   H964      1.0  0.45917  0.62426  0.68268  1.0000
  C   C553      1.0  0.10349  0.52211  0.70564  1.0000
  C   C554      1.0  0.32280  0.57999  0.63719  1.0000
  H   H965      1.0  0.44019  0.69283  0.64537  1.0000
  H   H966      1.0  0.28282  0.56948  0.65337  1.0000
  H   H967      1.0  0.47007  0.71025  0.72817  1.0000
  C   C555      1.0  0.49015  0.68999  0.65690  1.0000
  H   H968      1.0  0.11524  0.57649  0.72746  1.0000
  H   H969      1.0  0.33588  0.59859  0.60199  1.0000
  H   H970      1.0  0.11237  0.54357  0.69800  1.0000
  H   H971      1.0  0.29969  0.58896  0.60862  1.0000
  H   H972      1.0  0.05818  0.59348  0.66677  1.0000
  S   S114      1.0  0.26615  0.59748  0.71515  1.0000
  C   C556      1.0  0.45805  0.67123  0.69099  1.0000
  H   H973      1.0  0.00907  0.65710  0.66412  1.0000
  C   C557      1.0  0.00456  0.64691  0.68216  1.0000
  H   H974      1.0  0.18816  0.74995  0.54486  1.0000
  C   C558      1.0  0.04640  0.62578  0.67635  1.0000
  C   C559      1.0  0.31805  0.69899  0.71508  1.0000
  C   C560      1.0  0.09582  0.57908  0.72756  1.0000
  C   C561      1.0  0.47000  0.76721  0.69245  1.0000
  N   N33       1.0  0.46634  0.66406  0.66740  1.0000
  H   H975      1.0  0.23181  0.66483  0.72185  1.0000
  H   H976      1.0  0.21489  0.50747  0.68681  1.0000
  H   H977      1.0  0.14205  0.52906  0.72496  1.0000
  H   H978      1.0  0.03004  0.59772  0.53380  1.0000
  H   H979      1.0  0.06103  0.71642  0.72962  1.0000
  H   H980      1.0  0.34092  0.49818  0.66000  1.0000
  H   H981      1.0  0.36485  0.60720  0.71769  1.0000
  H   H982      1.0  0.27570  0.66519  0.71630  1.0000
  C   C562      1.0  0.47187  0.69105  0.73276  1.0000
  H   H983      1.0  0.20796  0.56988  0.72853  1.0000
  C   C563      1.0  0.08592  0.66867  0.72733  1.0000
  H   H984      1.0  0.32849  0.72180  0.71786  1.0000
  C   C564      1.0  0.31094  0.51322  0.64824  1.0000
  H   H985      1.0  0.05560  0.51363  0.67573  1.0000
  H   H986      1.0  0.99868  0.69576  0.67587  1.0000
  H   H987      1.0  0.08088  0.64777  0.73331  1.0000
  C   C565      1.0  0.08694  0.51932  0.72871  1.0000
  H   H988      1.0  0.45927  0.89875  0.69362  1.0000
  C   C566      1.0  0.46559  0.88214  0.69769  1.0000
  H   H989      1.0  0.47665  0.69703  0.62118  1.0000
  N   N34       1.0  0.99421  0.61587  0.67987  1.0000
  H   H990      1.0  0.18434  0.64670  0.73704  1.0000
  C   C567      1.0  0.47558  0.64178  0.67235  1.0000
  C   C568      1.0  0.48297  0.62929  0.65054  1.0000
  C   C569      1.0  0.25193  0.50502  0.67392  1.0000
  H   H991      1.0  0.14060  0.51906  0.69429  1.0000
  H   H992      1.0  0.49170  0.74204  0.69229  1.0000
  S   S115      1.0  0.28019  0.61602  0.95783  1.0000
  Fe  Fe54      1.0  0.23864  0.61433  0.94855  1.0000
  S   S116      1.0  0.21238  0.58923  0.91756  1.0000
  H   H993      1.0  0.35570  0.70997  0.86577  1.0000
  S   S117      1.0  0.37950  0.53829  0.94821  1.0000
  H   H994      1.0  0.44751  0.62496  0.92608  1.0000
  Fe  Fe55      1.0  0.25343  0.51569  0.76728  1.0000
  C   C570      1.0  0.36787  0.70204  0.96122  1.0000
  H   H995      1.0  0.04918  0.69137  0.92446  1.0000
  Fe  Fe56      1.0  0.00993  0.56711  0.78504  1.0000
  C   C571      1.0  0.26442  0.59292  0.85282  1.0000
  H   H996      1.0  0.30801  0.50765  0.88785  1.0000
  Fe  Fe57      1.0  0.42884  0.78160  0.79393  1.0000
  S   S118      1.0  0.42268  0.76000  0.82993  1.0000
  Fe  Fe58      1.0  0.26112  0.56384  0.79976  1.0000
  S   S119      1.0  0.41999  0.81800  0.78720  1.0000
  C   C572      1.0  0.04190  0.49784  0.76569  1.0000
  S   S120      1.0  0.28445  0.56092  0.76818  1.0000
  S   S121      1.0  0.23206  0.57485  0.77810  1.0000
  Fe  Fe59      1.0  0.03862  0.62821  0.77311  1.0000
  S   S122      1.0  0.07108  0.63820  0.80194  1.0000
  C   C573      1.0  0.35414  0.68031  0.83911  1.0000
  Fe  Fe60      1.0  0.07350  0.59980  0.79046  1.0000
  S   S123      1.0  0.11843  0.60675  0.78836  1.0000
  H   H997      1.0  0.09670  0.72768  0.88708  1.0000
  H   H998      1.0  0.36957  0.66627  0.75410  1.0000
  H   H999      1.0  0.05458  0.65122  0.90881  1.0000
  C   C574      1.0  0.14535  0.53774  0.78290  1.0000
  C   C575      1.0  0.16080  0.56377  0.77195  1.0000
  C   C576      1.0  0.15167  0.58432  0.77292  1.0000
  C   C577      1.0  0.12686  0.57903  0.78471  1.0000
  C   C578      1.0  0.11064  0.55263  0.79484  1.0000
  H   H1000     1.0  0.17976  0.56811  0.76259  1.0000
  H   H1001     1.0  0.16409  0.60450  0.76470  1.0000
  H   H1002     1.0  0.09159  0.54847  0.80415  1.0000
  H   H1003     1.0  0.43744  0.72412  0.95004  1.0000
  C   C579      1.0  0.45061  0.81037  0.94303  1.0000
  H   H1004     1.0  0.45143  0.67492  0.73957  1.0000
  H   H1005     1.0  0.47887  0.71678  0.79169  1.0000
  N   N35       1.0  0.28299  0.68445  0.75089  1.0000
  C   C580      1.0  0.44934  0.75850  0.87177  1.0000
  C   C581      1.0  0.45233  0.77018  0.84871  1.0000
  C   C582      1.0  0.40186  0.66982  0.78026  1.0000
  Fe  Fe61      1.0  0.44574  0.58852  0.78416  1.0000
  C   C583      1.0  0.20199  0.66206  0.74797  1.0000
  H   H1006     1.0  0.42871  0.74396  0.87811  1.0000
  H   H1007     1.0  0.12215  0.76021  0.87423  1.0000
  C   C584      1.0  0.02133  0.68805  0.86891  1.0000
  H   H1008     1.0  0.03105  0.86995  0.95458  1.0000
  H   H1009     1.0  0.13783  0.68139  0.86178  1.0000
  C   C585      1.0  0.23221  0.59202  0.89213  1.0000
  C   C586      1.0  0.21981  0.57358  0.87325  1.0000
  C   C587      1.0  0.23588  0.57399  0.85360  1.0000
  H   H1010     1.0  0.19790  0.55848  0.87411  1.0000
  H   H1011     1.0  0.22637  0.55926  0.83932  1.0000
  H   H1012     1.0  0.03388  0.53110  0.75042  1.0000
  C   C588      1.0  0.35613  0.59224  0.82757  1.0000
  H   H1013     1.0  0.23416  0.55635  0.95877  1.0000
  H   H1014     1.0  0.00754  0.49961  0.78454  1.0000
  C   C589      1.0  0.34207  0.68796  0.86068  1.0000
  H   H1015     1.0  0.35540  0.69493  0.82432  1.0000
  H   H1016     1.0  0.34026  0.67409  0.87623  1.0000
  H   H1017     1.0  0.12340  0.51700  0.86126  1.0000
  H   H1018     1.0  0.32080  0.68562  0.85617  1.0000
  Fe  Fe62      1.0  0.34920  0.50201  0.96998  1.0000
  H   H1019     1.0  0.40342  0.63736  0.81823  1.0000
  C   C590      1.0  0.35951  0.62192  0.82785  1.0000
  C   C591      1.0  0.47352  0.71122  0.85386  1.0000
  H   H1020     1.0  0.36990  0.54811  0.81091  1.0000
  H   H1021     1.0  0.14324  0.67958  0.76229  1.0000
  H   H1022     1.0  0.43873  0.67094  0.85979  1.0000
  H   H1023     1.0  0.37897  0.56979  0.77113  1.0000
  H   H1024     1.0  0.24311  0.51566  0.87451  1.0000
  H   H1025     1.0  0.00845  0.96126  0.97794  1.0000
  H   H1026     1.0  0.29128  0.54078  0.89753  1.0000
  C   C592      1.0  0.46656  0.64297  0.89121  1.0000
  C   C593      1.0  0.14535  0.77459  0.78167  1.0000
  H   H1027     1.0  0.47058  0.75612  0.90434  1.0000
  C   C594      1.0  0.48075  0.60699  0.90113  1.0000
  H   H1028     1.0  0.39456  0.64695  0.78083  1.0000
  H   H1029     1.0  0.31248  0.64923  0.74234  1.0000
  C   C595      1.0  0.32898  0.50834  0.88975  1.0000
  S   S124      1.0  0.45232  0.62123  0.75631  1.0000
  Fe  Fe63      1.0  0.39546  0.79467  0.75476  1.0000
  H   H1030     1.0  0.01780  0.84566  0.97929  1.0000
  H   H1031     1.0  0.40180  0.67017  0.74146  1.0000
  C   C596      1.0  0.30786  0.54347  0.97772  1.0000
  N   N36       1.0  0.24240  0.51808  0.92634  1.0000
  C   C597      1.0  0.11381  0.75314  0.78299  1.0000
  H   H1032     1.0  0.13826  0.80416  0.75874  1.0000
  H   H1033     1.0  0.27874  0.55359  0.94010  1.0000
  H   H1034     1.0  0.40446  0.64344  0.98014  1.0000
  C   C598      1.0  0.02483  0.66564  0.85981  1.0000
  C   C599      1.0  0.43062  0.54715  0.83779  1.0000
  H   H1035     1.0  0.37102  0.64786  0.95110  1.0000
  S   S125      1.0  0.40841  0.50255  0.89977  1.0000
  H   H1036     1.0  0.19782  0.66509  0.93585  1.0000
  H   H1037     1.0  0.26646  0.63950  0.75142  1.0000
  S   S126      1.0  0.42514  0.55335  0.75831  1.0000
  S   S127      1.0  0.03691  0.66105  0.74876  1.0000
  H   H1038     1.0  0.47385  0.74727  0.79737  1.0000
  H   H1039     1.0  0.46002  0.59138  0.89407  1.0000
  C   C600      1.0  0.00769  0.62676  0.95684  1.0000
  S   S128      1.0  0.42735  0.59321  0.81890  1.0000
  C   C601      1.0  0.15118  0.79283  0.75913  1.0000
  H   H1040     1.0  0.37856  0.52787  0.79087  1.0000
  H   H1041     1.0  0.25571  0.70429  0.75050  1.0000
  C   C602      1.0  0.47300  0.76538  0.88665  1.0000
  H   H1042     1.0  0.47785  0.73248  0.84772  1.0000
  H   H1043     1.0  0.48139  0.79883  0.82329  1.0000
  H   H1044     1.0  0.09096  0.58141  0.74613  1.0000
  C   C603      1.0  0.04535  0.66150  0.89757  1.0000
  H   H1045     1.0  0.48432  0.70336  0.84172  1.0000
  C   C604      1.0  0.45883  0.64575  0.91729  1.0000
  H   H1046     1.0  0.00134  0.65912  0.93879  1.0000
  C   C605      1.0  0.30510  0.71015  0.76294  1.0000
  H   H1047     1.0  0.28984  0.61425  0.77603  1.0000
  H   H1048     1.0  0.48798  0.69599  0.74713  1.0000
  C   C606      1.0  0.28213  0.65800  0.76117  1.0000
  C   C607      1.0  0.30993  0.65575  0.76046  1.0000
  C   C608      1.0  0.30426  0.71009  0.79066  1.0000
  H   H1049     1.0  0.19713  0.65663  0.76715  1.0000
  H   H1050     1.0  0.44716  0.82596  0.95317  1.0000
  C   C609      1.0  0.30952  0.63375  0.77814  1.0000
  C   C610      1.0  0.32781  0.73687  0.80075  1.0000
  C   C611      1.0  0.44189  0.69190  0.85391  1.0000
  H   H1051     1.0  0.10729  0.74290  0.76529  1.0000
  H   H1052     1.0  0.32668  0.71421  0.75829  1.0000
  H   H1053     1.0  0.47766  0.60894  0.92042  1.0000
  H   H1054     1.0  0.46947  0.55046  0.90180  1.0000
  C   C612      1.0  0.05164  0.52564  0.75129  1.0000
  H   H1055     1.0  0.24941  0.68001  0.77452  1.0000
  H   H1056     1.0  0.27437  0.65452  0.77987  1.0000
  S   S129      1.0  0.04368  0.72008  0.97216  1.0000
  H   H1057     1.0  0.32858  0.67548  0.76496  1.0000
  H   H1058     1.0  0.28411  0.70862  0.79696  1.0000
  H   H1059     1.0  0.30710  0.69242  0.79844  1.0000
  H   H1060     1.0  0.44013  0.68285  0.81677  1.0000
  C   C613      1.0  0.03237  0.64659  0.97223  1.0000
  H   H1061     1.0  0.05429  0.87177  0.97893  1.0000
  H   H1062     1.0  0.32741  0.62924  0.77482  1.0000
  H   H1063     1.0  0.34869  0.73927  0.79540  1.0000
  H   H1064     1.0  0.32548  0.75534  0.79425  1.0000
  H   H1065     1.0  0.32698  0.73619  0.82057  1.0000
  H   H1066     1.0  0.19719  0.51462  0.86246  1.0000
  H   H1067     1.0  0.43523  0.71273  0.82276  1.0000
  H   H1068     1.0  0.41976  0.64739  0.90799  1.0000
  H   H1069     1.0  0.16147  0.63932  0.93541  1.0000
  H   H1070     1.0  0.40448  0.58549  0.86585  1.0000
  C   C614      1.0  0.43956  0.65970  0.91809  1.0000
  H   H1071     1.0  0.27490  0.50691  0.93740  1.0000
  C   C615      1.0  0.12488  0.70376  0.77818  1.0000
  H   H1072     1.0  0.36775  0.59002  0.81226  1.0000
  C   C616      1.0  0.30997  0.58392  0.90520  1.0000
  Fe  Fe64      1.0  0.99954  0.76103  0.97978  1.0000
  H   H1073     1.0  0.13349  0.71990  0.76387  1.0000
  S   S130      1.0  0.02334  0.72436  0.90358  1.0000
  H   H1074     1.0  0.34224  0.55694  0.77768  1.0000
  H   H1075     1.0  0.32416  0.58156  0.91881  1.0000
  H   H1076     1.0  0.46460  0.88630  0.89868  1.0000
  H   H1077     1.0  0.44946  0.89043  0.95060  1.0000
  C   C617      1.0  0.36932  0.62708  0.95603  1.0000
  H   H1078     1.0  0.01654  0.62187  0.94091  1.0000
  H   H1079     1.0  0.43935  0.85804  0.91683  1.0000
  N   N37       1.0  0.39757  0.67352  0.82620  1.0000
  H   H1080     1.0  0.48232  0.71269  0.87221  1.0000
  H   H1081     1.0  0.34689  0.61141  0.95547  1.0000
  Fe  Fe65      1.0  0.02244  0.73338  0.94328  1.0000
  H   H1082     1.0  0.25519  0.56250  0.92380  1.0000
  H   H1083     1.0  0.11734  0.71812  0.85199  1.0000
  H   H1084     1.0  0.01772  0.65835  0.84192  1.0000
  C   C618      1.0  0.42252  0.56806  0.84126  1.0000
  H   H1085     1.0  0.20252  0.53470  0.94234  1.0000
  C   C619      1.0  0.39078  0.64336  0.83025  1.0000
  Fe  Fe66      1.0  0.44044  0.77795  0.74177  1.0000
  H   H1086     1.0  0.49018  0.63448  0.81173  1.0000
  H   H1087     1.0  0.47458  0.65519  0.84298  1.0000
  H   H1088     1.0  0.20361  0.68307  0.74423  1.0000
  C   C620      1.0  0.41062  0.56925  0.86303  1.0000
  C   C621      1.0  0.45957  0.87737  0.91702  1.0000
  S   S131      1.0  0.46864  0.79933  0.77287  1.0000
  H   H1089     1.0  0.13310  0.59813  0.97281  1.0000
  C   C622      1.0  0.03643  0.65196  0.87426  1.0000
  H   H1090     1.0  0.08485  0.74877  0.86966  1.0000
  H   H1091     1.0  0.46362  0.82351  0.86936  1.0000
  C   C623      1.0  0.04209  0.68406  0.90657  1.0000
  C   C624      1.0  0.35890  0.55066  0.77418  1.0000
  H   H1092     1.0  0.03743  0.99168  0.96554  1.0000
  C   C625      1.0  0.07541  0.71062  0.79915  1.0000
  C   C626      1.0  0.05334  0.72089  0.80465  1.0000
  C   C627      1.0  0.02404  0.70016  0.79599  1.0000
  H   H1093     1.0  0.09877  0.75875  0.82675  1.0000
  H   H1094     1.0  0.06991  0.69134  0.81001  1.0000
  H   H1095     1.0  0.05853  0.74125  0.79587  1.0000
  H   H1096     1.0  0.05221  0.72324  0.82419  1.0000
  H   H1097     1.0  0.29860  0.62687  0.87060  1.0000
  H   H1098     1.0  0.40049  0.69990  0.75418  1.0000
  H   H1099     1.0  0.00827  0.70649  0.80234  1.0000
  H   H1100     1.0  0.02317  0.69982  0.77615  1.0000
  N   N38       1.0  0.15909  0.61539  0.86412  1.0000
  C   C628      1.0  0.15052  0.63692  0.85486  1.0000
  C   C629      1.0  0.18666  0.62101  0.85297  1.0000
  C   C630      1.0  0.13624  0.58683  0.85777  1.0000
  C   C631      1.0  0.16280  0.61665  0.89095  1.0000
  C   C632      1.0  0.18302  0.64552  0.90138  1.0000
  C   C633      1.0  0.12465  0.63693  0.86696  1.0000
  C   C634      1.0  0.14351  0.56223  0.86192  1.0000
  C   C635      1.0  0.18619  0.61828  0.82539  1.0000
  C   C636      1.0  0.21497  0.62386  0.81606  1.0000
  C   C637      1.0  0.18271  0.64446  0.92871  1.0000
  C   C638      1.0  0.11966  0.66108  0.85741  1.0000
  C   C639      1.0  0.11727  0.53411  0.86027  1.0000
  H   H1101     1.0  0.14508  0.63382  0.83549  1.0000
  H   H1102     1.0  0.16846  0.65823  0.85597  1.0000
  H   H1103     1.0  0.20294  0.64252  0.85703  1.0000
  H   H1104     1.0  0.19485  0.60710  0.86104  1.0000
  H   H1105     1.0  0.12957  0.58632  0.83873  1.0000
  H   H1106     1.0  0.11699  0.58199  0.86817  1.0000
  H   H1107     1.0  0.14215  0.60882  0.89994  1.0000
  H   H1108     1.0  0.17125  0.60231  0.89726  1.0000
  H   H1109     1.0  0.17712  0.66193  0.89556  1.0000
  H   H1110     1.0  0.20493  0.65184  0.89578  1.0000
  H   H1111     1.0  0.10541  0.61724  0.86320  1.0000
  H   H1112     1.0  0.12746  0.63932  0.88658  1.0000
  H   H1113     1.0  0.15310  0.56290  0.87974  1.0000
  H   H1114     1.0  0.15852  0.56271  0.84828  1.0000
  H   H1115     1.0  0.17101  0.59706  0.81985  1.0000
  H   H1116     1.0  0.18035  0.63344  0.81634  1.0000
  H   H1117     1.0  0.23114  0.64515  0.82080  1.0000
  H   H1118     1.0  0.22127  0.60831  0.82360  1.0000
  H   H1119     1.0  0.21394  0.62206  0.79629  1.0000
  H   H1120     1.0  0.08084  0.70824  0.84694  1.0000
  C   C640      1.0  0.41871  0.71934  0.96007  1.0000
  H   H1121     1.0  0.44697  0.62797  0.88195  1.0000
  H   H1122     1.0  0.11646  0.65957  0.83777  1.0000
  H   H1123     1.0  0.10058  0.66027  0.86567  1.0000
  S   S132      1.0  0.25369  0.66017  0.95226  1.0000
  H   H1124     1.0  0.27010  0.62628  0.90523  1.0000
  H   H1125     1.0  0.35490  0.52754  0.84536  1.0000
  C   C641      1.0  0.11981  0.53196  0.79380  1.0000
  Fe  Fe67      1.0  0.03592  0.60990  0.82544  1.0000
  S   S133      1.0  0.03833  0.62177  0.86458  1.0000
  C   C642      1.0  0.10187  0.72629  0.84887  1.0000
  C   C643      1.0  0.42260  0.78388  0.94170  1.0000
  H   H1126     1.0  0.06798  0.54174  0.76255  1.0000
  H   H1127     1.0  0.14544  0.73021  0.80859  1.0000
  H   H1128     1.0  0.47489  0.91867  0.93255  1.0000
  S   S134      1.0  0.23231  0.51792  0.80118  1.0000
  H   H1129     1.0  0.34991  0.62506  0.81115  1.0000
  C   C644      1.0  0.12359  0.71641  0.80249  1.0000
  Fe  Fe68      1.0  0.20437  0.52876  0.77684  1.0000
  C   C645      1.0  0.26046  0.61171  0.89086  1.0000
  C   C646      1.0  0.11015  0.74585  0.82649  1.0000
  H   H1130     1.0  0.47601  0.51014  0.87394  1.0000
  S   S135      1.0  0.40144  0.75693  0.76360  1.0000
  H   H1131     1.0  0.30356  0.72896  0.75620  1.0000
  H   H1132     1.0  0.18901  0.62862  0.93564  1.0000
  H   H1133     1.0  0.33910  0.65895  0.83378  1.0000
  S   S136      1.0  0.04001  0.57149  0.81558  1.0000
  Fe  Fe69      1.0  0.25268  0.56772  0.74639  1.0000
  S   S137      1.0  0.28570  0.59131  0.83011  1.0000
  C   C647      1.0  0.27654  0.61217  0.87119  1.0000
  C   C648      1.0  0.25480  0.68368  0.75527  1.0000
  H   H1134     1.0  0.39683  0.70559  0.84858  1.0000
  H   H1135     1.0  0.43824  0.90234  0.92412  1.0000
  C   C649      1.0  0.28371  0.55607  0.90173  1.0000
  S   S138      1.0  0.33540  0.68888  0.94580  1.0000
  C   C650      1.0  0.36223  0.53414  0.79544  1.0000
  H   H1136     1.0  0.13265  0.76094  0.82911  1.0000
  S   S139      1.0  0.04395  0.59241  0.75915  1.0000
  C   C651      1.0  0.26476  0.54799  0.92405  1.0000
  H   H1137     1.0  0.34537  0.53043  0.89000  1.0000
  H   H1138     1.0  0.45023  0.68123  0.91055  1.0000
  H   H1139     1.0  0.30435  0.60024  0.91113  1.0000
  H   H1140     1.0  0.07181  0.70347  0.78037  1.0000
  H   H1141     1.0  0.39754  0.55063  0.89797  1.0000
  H   H1142     1.0  0.46576  0.80509  0.90908  1.0000
  H   H1143     1.0  0.43994  0.54617  0.82106  1.0000
  C   C652      1.0  0.48525  0.49804  0.88368  1.0000
  H   H1144     1.0  0.43427  0.66106  0.93697  1.0000
  C   C653      1.0  0.38380  0.68304  0.84490  1.0000
  C   C654      1.0  0.02945  0.69704  0.89248  1.0000
  C   C655      1.0  0.22963  0.51465  0.95083  1.0000
  H   H1145     1.0  0.39560  0.70154  0.79890  1.0000
  H   H1146     1.0  0.36637  0.66818  0.79860  1.0000
  H   H1147     1.0  0.38271  0.67214  0.86228  1.0000
  H   H1148     1.0  0.15916  0.76433  0.78112  1.0000
  C   C656      1.0  0.42633  0.52720  0.85593  1.0000
  H   H1149     1.0  0.10292  0.53142  0.87527  1.0000
  C   C657      1.0  0.39240  0.70830  0.94842  1.0000
  H   H1150     1.0  0.39102  0.70460  0.92941  1.0000
  S   S140      1.0  0.03812  0.77722  0.95676  1.0000
  C   C658      1.0  0.10146  0.74182  0.87125  1.0000
  H   H1151     1.0  0.11550  0.69878  0.81561  1.0000
  C   C659      1.0  0.47894  0.78935  0.84084  1.0000
  C   C660      1.0  0.40666  0.54952  0.88124  1.0000
  H   H1152     1.0  0.43243  0.69975  0.86738  1.0000
  Fe  Fe70      1.0  0.29457  0.66140  0.96455  1.0000
  C   C661      1.0  0.45887  0.61573  0.98530  1.0000
  H   H1153     1.0  0.17371  0.80838  0.75876  1.0000
  N   N39       1.0  0.10581  0.73153  0.80282  1.0000
  H   H1154     1.0  0.15157  0.78853  0.79732  1.0000
  C   C662      1.0  0.41431  0.52832  0.87768  1.0000
  H   H1155     1.0  0.36423  0.58727  0.84445  1.0000
  C   C663      1.0  0.38942  0.67886  0.80130  1.0000
  H   H1156     1.0  0.34768  0.62337  0.84338  1.0000
  H   H1157     1.0  0.10206  0.76552  0.78452  1.0000
  H   H1158     1.0  0.04114  0.51628  0.79985  1.0000
  H   H1159     1.0  0.26433  0.49916  0.90749  1.0000
  C   C664      1.0  0.33405  0.50835  0.80110  1.0000
  Fe  Fe71      1.0  0.46891  0.55918  0.75273  1.0000
  H   H1160     1.0  0.33359  0.57713  0.82547  1.0000
  H   H1161     1.0  0.27189  0.55827  0.88608  1.0000
  C   C665      1.0  0.02726  0.49830  0.78870  1.0000
  Fe  Fe72      1.0  0.45816  0.83430  0.76389  1.0000
  C   C666      1.0  0.22922  0.66123  0.74144  1.0000
  C   C667      1.0  0.14343  0.68902  0.77980  1.0000
  H   H1162     1.0  0.47585  0.59023  0.97028  1.0000
  C   C668      1.0  0.25607  0.49905  0.92545  1.0000
  H   H1163     1.0  0.31814  0.51432  0.84413  1.0000
  H   H1164     1.0  0.31087  0.64105  0.79673  1.0000
  H   H1165     1.0  0.41563  0.77549  0.96002  1.0000
  H   H1166     1.0  0.04568  0.66589  0.96200  1.0000
  C   C669      1.0  0.33505  0.50769  0.84486  1.0000
  H   H1167     1.0  0.35333  0.53797  0.75773  1.0000
  C   C670      1.0  0.42903  0.69080  0.82861  1.0000
  H   H1168     1.0  0.42513  0.68058  0.78058  1.0000
  C   C671      1.0  0.45539  0.89851  0.93206  1.0000
  H   H1169     1.0  0.13548  0.67204  0.79350  1.0000
  S   S141      1.0  0.42761  0.51970  0.96705  1.0000
  H   H1170     1.0  0.14648  0.77985  0.74288  1.0000
  H   H1171     1.0  0.39713  0.64005  0.84858  1.0000
  H   H1172     1.0  0.47793  0.65863  0.92789  1.0000
  H   H1173     1.0  0.01171  0.69808  0.85780  1.0000
  H   H1174     1.0  0.10755  0.51173  0.80208  1.0000
  H   H1175     1.0  0.38078  0.62136  0.94265  1.0000
  H   H1176     1.0  0.10589  0.53248  0.84315  1.0000
  H   H1177     1.0  0.21597  0.52996  0.90406  1.0000
  C   C672      1.0  0.39277  0.67701  0.75611  1.0000
  H   H1178     1.0  0.32141  0.59088  0.88805  1.0000
  S   S142      1.0  0.00274  0.60285  0.79746  1.0000
  H   H1179     1.0  0.42483  0.76766  0.93133  1.0000
  H   H1180     1.0  0.18352  0.50494  0.97919  1.0000
  S   S143      1.0  0.15777  0.51245  0.78345  1.0000
  H   H1181     1.0  0.47395  0.51964  0.79892  1.0000
  H   H1182     1.0  0.10360  0.68821  0.77265  1.0000
  C   C673      1.0  0.46182  0.82139  0.91762  1.0000
  C   C674      1.0  0.21718  0.53476  0.95665  1.0000
  H   H1183     1.0  0.44417  0.82180  0.90720  1.0000
  C   C675      1.0  0.42073  0.72476  0.98454  1.0000
  H   H1184     1.0  0.43231  0.51085  0.85301  1.0000
  H   H1185     1.0  0.38112  0.60716  0.98451  1.0000
  H   H1186     1.0  0.01838  0.67880  0.80288  1.0000
  H   H1187     1.0  0.30827  0.58364  0.98012  1.0000
  C   C676      1.0  0.21946  0.51138  0.90768  1.0000
  H   H1188     1.0  0.45767  0.85298  0.87425  1.0000
  H   H1189     1.0  0.46545  0.80486  0.95321  1.0000
  H   H1190     1.0  0.16544  0.70408  0.78425  1.0000
  S   S144      1.0  0.47345  0.52005  0.74666  1.0000
  H   H1191     1.0  0.40614  0.78833  0.93313  1.0000
  H   H1192     1.0  0.37858  0.50548  0.82589  1.0000
  C   C677      1.0  0.03245  0.86756  0.97424  1.0000
  H   H1193     1.0  0.32309  0.54990  0.96353  1.0000
  C   C678      1.0  0.38198  0.62775  0.98088  1.0000
  C   C679      1.0  0.02575  0.98216  0.98221  1.0000
  Fe  Fe73      1.0  0.39625  0.50894  0.93686  1.0000
  C   C680      1.0  0.46840  0.49883  0.79286  1.0000
  H   H1194     1.0  0.31805  0.51602  0.80275  1.0000
  C   C681      1.0  0.20108  0.52641  0.98013  1.0000
  H   H1195     1.0  0.47266  0.66365  0.88265  1.0000
  H   H1196     1.0  0.00376  0.88431  0.97995  1.0000
  C   C682      1.0  0.47903  0.61126  0.97309  1.0000
  H   H1197     1.0  0.22632  0.63988  0.74559  1.0000
  C   C683      1.0  0.22352  0.50062  0.88326  1.0000
  H   H1198     1.0  0.49053  0.68676  0.98356  1.0000
  C   C684      1.0  0.48762  0.66584  0.98067  1.0000
  H   H1199     1.0  0.46988  0.85016  0.83221  1.0000
  H   H1200     1.0  0.24549  0.51718  0.96499  1.0000
  C   C685      1.0  0.02471  0.88795  0.98685  1.0000
  H   H1201     1.0  0.20324  0.75567  0.98446  1.0000
  C   C686      1.0  0.48395  0.87224  0.92715  1.0000
  Fe  Fe74      1.0  0.40816  0.54593  0.98009  1.0000
  C   C687      1.0  0.36982  0.70723  0.98572  1.0000
  H   H1202     1.0  0.47297  0.61202  0.85549  1.0000
  C   C688      1.0  0.47411  0.84658  0.87066  1.0000
  H   H1203     1.0  0.48131  0.86895  0.94683  1.0000
  S   S145      1.0  0.22285  0.52228  0.74304  1.0000
  C   C689      1.0  0.48380  0.73819  0.78544  1.0000
  H   H1204     1.0  0.47470  0.73689  0.76722  1.0000
  H   H1205     1.0  0.04551  0.63637  0.97773  1.0000
  H   H1206     1.0  0.48184  0.56581  0.93080  1.0000
  S   S146      1.0  0.35083  0.78893  0.74900  1.0000
  H   H1207     1.0  0.16646  0.74708  0.98295  1.0000
  H   H1208     1.0  0.19213  0.54091  0.98372  1.0000
  S   S147      1.0  0.22212  0.60403  0.98583  1.0000
  H   H1209     1.0  0.99627  0.60732  0.96745  1.0000
  S   S148      1.0  0.49103  0.87984  0.76359  1.0000
  N   N40       1.0  0.48972  0.63459  0.88822  1.0000
  C   C690      1.0  0.48658  0.85847  0.84620  1.0000
  H   H1210     1.0  0.04026  0.90939  0.98167  1.0000
  C   C691      1.0  0.29593  0.51590  0.98636  1.0000
  H   H1211     1.0  0.29179  0.76882  0.74075  1.0000
  H   H1212     1.0  0.10211  0.53272  0.74252  1.0000
  H   H1213     1.0  0.35087  0.59022  0.74575  1.0000
  C   C692      1.0  0.48817  0.56499  0.91216  1.0000
  N   N41       1.0  0.48797  0.84904  0.91613  1.0000
  S   S149      1.0  0.48908  0.59222  0.78067  1.0000
  Fe  Fe75      1.0  0.05641  0.76260  0.98706  1.0000
  H   H1214     1.0  0.32987  0.49828  0.90707  1.0000
  C   C693      1.0  0.49201  0.63059  0.86187  1.0000
  C   C694      1.0  0.29941  0.56255  0.98699  1.0000
  H   H1215     1.0  0.50177  0.34175  0.13397  1.0000
  C   C695      1.0  0.97327  0.09586  0.06179  1.0000
  S   S150      1.0  0.88007  0.03934  0.01509  1.0000
  C   C696      1.0  0.91970  0.02241  0.06874  1.0000
  C   C697      1.0  0.78153  0.06316  0.04676  1.0000
  C   C698      1.0  0.75702  0.04681  0.05938  1.0000
  H   H1216     1.0  0.65286  0.01289  0.19710  1.0000
  S   S151      1.0  0.82876  0.07334  0.02289  1.0000
  C   C699      1.0  0.49537  0.32323  0.18714  1.0000
  H   H1217     1.0  0.99212  0.05783  0.01295  1.0000
  H   H1218     1.0  0.71511  0.01795  0.12895  1.0000
  Fe  Fe76      1.0  0.84998  0.05442  0.00069  1.0000
  C   C700      1.0  0.97313  0.09918  0.01835  1.0000
  H   H1219     1.0  0.96173  0.08956  0.07831  1.0000
  H   H1220     1.0  0.76766  0.99730  0.00002  1.0000
  C   C701      1.0  0.95691  0.01636  0.20145  1.0000
  H   H1221     1.0  0.93582  0.08140  0.03947  1.0000
  H   H1222     1.0  0.97605  0.05759  0.13555  1.0000
  H   H1223     1.0  0.84249  0.01310  0.11846  1.0000
  H   H1224     1.0  0.53198  0.34517  0.22572  1.0000
  S   S152      1.0  0.95552  0.09177  0.99022  1.0000
  C   C702      1.0  0.79865  0.05166  0.03909  1.0000
  C   C703      1.0  0.79154  0.02374  0.04466  1.0000
  S   S153      1.0  0.71854  0.99976  0.08079  1.0000
  H   H1225     1.0  0.50517  0.28925  0.19929  1.0000
  H   H1226     1.0  0.75486  0.07376  0.99858  1.0000
  H   H1227     1.0  0.78705  0.08473  0.04263  1.0000
  C   C704      1.0  0.67134  0.00692  0.12437  1.0000
  C   C705      1.0  0.83908  0.01667  0.09939  1.0000
  H   H1228     1.0  0.83523  0.00746  0.18135  1.0000
  H   H1229     1.0  0.83503  0.04945  0.07861  1.0000
  H   H1230     1.0  0.88219  0.03797  0.08804  1.0000
  H   H1231     1.0  0.78756  0.15119  0.00095  1.0000
  N   N42       1.0  0.73418  0.06638  0.15815  1.0000
  C   C706      1.0  0.75400  0.05361  0.16153  1.0000
  C   C707      1.0  0.74554  0.08984  0.13970  1.0000
  H   H1232     1.0  0.98685  0.03123  0.23088  1.0000
  C   C708      1.0  0.70491  0.04500  0.15146  1.0000
  C   C709      1.0  0.70182  0.02883  0.12828  1.0000
  C   C710      1.0  0.93278  0.00847  0.21889  1.0000
  H   H1233     1.0  0.81766  0.04144  0.10704  1.0000
  C   C711      1.0  0.76318  0.08723  0.11900  1.0000
  C   C712      1.0  0.76841  0.10925  0.09947  1.0000
  C   C713      1.0  0.76860  0.02086  0.18410  1.0000
  H   H1234     1.0  0.89783  0.01619  0.11575  1.0000
  H   H1235     1.0  0.74354  0.05572  0.06471  1.0000
  H   H1236     1.0  0.78189  0.10743  0.08546  1.0000
  H   H1237     1.0  0.75764  0.04574  0.14446  1.0000
  H   H1238     1.0  0.72806  0.09314  0.13161  1.0000
  H   H1239     1.0  0.85545  0.06117  0.10581  1.0000
  H   H1240     1.0  0.49425  0.32082  0.01268  1.0000
  H   H1241     1.0  0.51461  0.33600  0.17663  1.0000
  H   H1242     1.0  0.69571  0.02960  0.16620  1.0000
  H   H1243     1.0  0.69083  0.05495  0.14913  1.0000
  H   H1244     1.0  0.73799  0.03228  0.19657  1.0000
  H   H1245     1.0  0.70748  0.04317  0.11260  1.0000
  C   C714      1.0  0.93978  0.02113  0.05038  1.0000
  H   H1246     1.0  0.78579  0.03774  0.19422  1.0000
  H   H1247     1.0  0.77928  0.13055  0.10696  1.0000
  H   H1248     1.0  0.75415  0.09269  0.18853  1.0000
  H   H1249     1.0  0.78402  0.09041  0.12601  1.0000
  H   H1250     1.0  0.75299  0.06655  0.11050  1.0000
  H   H1251     1.0  0.74823  0.10606  0.09099  1.0000
  C   C715      1.0  0.83672  0.04387  0.09757  1.0000
  H   H1252     1.0  0.85820  0.02079  0.06474  1.0000
  H   H1253     1.0  0.93091  0.02721  0.22444  1.0000
  H   H1254     1.0  0.74690  0.03001  0.00601  1.0000
  H   H1255     1.0  0.91985  0.46387  0.21579  1.0000
  H   H1256     1.0  0.96078  0.03931  0.05239  1.0000
  H   H1257     1.0  0.98316  0.02339  0.00622  1.0000
  H   H1258     1.0  0.65710  0.01679  0.12353  1.0000
  H   H1259     1.0  0.93187  0.02161  0.03196  1.0000
  H   H1260     1.0  0.95156  0.02523  0.18523  1.0000
  H   H1261     1.0  0.50100  0.36497  0.15630  1.0000
  C   C716      1.0  0.74381  0.01935  0.98869  1.0000
  H   H1262     1.0  0.91736  0.04150  0.06497  1.0000
  C   C717      1.0  0.95851  0.09113  0.03984  1.0000
  C   C718      1.0  0.50387  0.30754  0.20671  1.0000
  C   C719      1.0  0.74996  0.01911  0.06535  1.0000
  C   C720      1.0  0.71872  0.10992  0.20570  1.0000
  H   H1263     1.0  0.49547  0.38131  0.11635  1.0000
  H   H1264     1.0  0.94215  0.00186  0.05317  1.0000
  C   C721      1.0  0.76734  0.00752  0.05821  1.0000
  H   H1265     1.0  0.75976  0.10997  0.14835  1.0000
  C   C722      1.0  0.93404  0.48348  0.22496  1.0000
  H   H1266     1.0  0.77501  0.06996  0.16745  1.0000
  H   H1267     1.0  0.98793  0.00938  0.04093  1.0000
  H   H1268     1.0  0.77711  0.01753  0.16722  1.0000
  H   H1269     1.0  0.98211  0.05722  0.21481  1.0000
  H   H1270     1.0  0.50345  0.29899  0.15255  1.0000
  C   C723      1.0  0.86334  0.01811  0.08368  1.0000
  C   C724      1.0  0.98486  0.03822  0.21237  1.0000
  H   H1271     1.0  0.49616  0.26506  0.11810  1.0000
  H   H1272     1.0  0.79076  0.08388  0.99451  1.0000
  C   C725      1.0  0.89063  0.99631  0.06729  1.0000
  C   C726      1.0  0.74463  0.02837  0.17907  1.0000
  H   H1273     1.0  0.72128  0.11110  0.16752  1.0000
  H   H1274     1.0  0.97640  0.01667  0.15860  1.0000
  C   C727      1.0  0.66579  0.00558  0.20708  1.0000
  H   H1275     1.0  0.92980  0.02459  0.08655  1.0000
  H   H1276     1.0  0.76603  0.11928  0.01698  1.0000
  H   H1277     1.0  0.70513  0.12052  0.20582  1.0000
  H   H1278     1.0  0.74088  0.12582  0.20835  1.0000
  H   H1279     1.0  0.72279  0.06210  0.19573  1.0000
  H   H1280     1.0  0.71247  0.09471  0.22086  1.0000
  H   H1281     1.0  0.80481  0.01483  0.03878  1.0000
  H   H1282     1.0  0.95799  0.99697  0.19688  1.0000
  C   C728      1.0  0.71508  0.09507  0.18196  1.0000
  C   C729      1.0  0.73258  0.07865  0.18182  1.0000
  C   C730      1.0  0.78382  0.12940  0.00440  1.0000
  Fe  Fe77      1.0  0.86006  0.00605  0.98752  1.0000
  H   H1283     1.0  0.69235  0.08059  0.17984  1.0000
  H   H1284     1.0  0.54929  0.33339  0.20458  1.0000
  C   C731      1.0  0.67516  0.01571  0.23019  1.0000
  C   C732      1.0  0.53234  0.32653  0.21802  1.0000
  H   H1285     1.0  0.72684  0.00997  0.17104  1.0000
  H   H1286     1.0  0.80306  0.12997  0.01284  1.0000
  H   H1287     1.0  0.97919  0.03202  0.11749  1.0000
  H   H1288     1.0  0.86078  0.00150  0.16528  1.0000
  H   H1289     1.0  0.81859  0.99954  0.09364  1.0000
  H   H1290     1.0  0.88202  0.99719  0.04924  1.0000
  H   H1291     1.0  0.92170  0.99931  0.14565  1.0000
  H   H1292     1.0  0.76068  0.00134  0.19500  1.0000
  H   H1293     1.0  0.93619  0.99794  0.23500  1.0000
  H   H1294     1.0  0.53720  0.31511  0.23267  1.0000
  C   C733      1.0  0.99001  0.04816  0.13118  1.0000
  H   H1295     1.0  0.95251  0.49549  0.21342  1.0000
  Fe  Fe78      1.0  0.66963  0.05606  0.28017  1.0000
  S   S154      1.0  0.63059  0.04431  0.30175  1.0000
  H   H1296     1.0  0.58845  0.33794  0.38651  1.0000
  Fe  Fe79      1.0  0.70695  0.09032  0.32077  1.0000
  S   S155      1.0  0.67153  0.07999  0.34617  1.0000
  S   S156      1.0  0.75154  0.11960  0.33114  1.0000
  Fe  Fe80      1.0  0.65483  0.03693  0.33175  1.0000
  H   H1297     1.0  0.56990  0.42813  0.35968  1.0000
  Fe  Fe81      1.0  0.64981  0.08844  0.31486  1.0000
  S   S157      1.0  0.62380  0.11179  0.31989  1.0000
  S   S158      1.0  0.69274  0.04591  0.30963  1.0000
  S   S159      1.0  0.68647  0.10147  0.28994  1.0000
  H   H1298     1.0  0.75977  0.48819  0.34809  1.0000
  Fe  Fe82      1.0  0.59552  0.24477  0.41057  1.0000
  S   S160      1.0  0.61690  0.28029  0.38429  1.0000
  H   H1299     1.0  0.81195  0.38121  0.36313  1.0000
  S   S161      1.0  0.62313  0.23257  0.43326  1.0000
  Fe  Fe83      1.0  0.94943  0.46132  0.32544  1.0000
  S   S162      1.0  0.93821  0.48785  0.30008  1.0000
  S   S163      1.0  0.91867  0.41486  0.32556  1.0000
  C   C734      1.0  0.69154  0.00571  0.24301  1.0000
  H   H1300     1.0  0.83472  0.49573  0.39025  1.0000
  C   C735      1.0  0.56894  0.33126  0.39696  1.0000
  H   H1301     1.0  0.76101  0.04471  0.29805  1.0000
  Fe  Fe84      1.0  0.79391  0.24517  0.40836  1.0000
  S   S164      1.0  0.83708  0.24865  0.40402  1.0000
  S   S165      1.0  0.75896  0.22724  0.38098  1.0000
  Fe  Fe85      1.0  0.80539  0.26642  0.45929  1.0000
  S   S166      1.0  0.84914  0.27105  0.45886  1.0000
  Fe  Fe86      1.0  0.85195  0.29007  0.42203  1.0000
  S   S167      1.0  0.89150  0.33079  0.41479  1.0000
  Fe  Fe87      1.0  0.82997  0.22928  0.44094  1.0000
  S   S168      1.0  0.84150  0.19474  0.45188  1.0000
  S   S169      1.0  0.80907  0.28798  0.42376  1.0000
  S   S170      1.0  0.78594  0.22348  0.44411  1.0000
  Fe  Fe88      1.0  0.53953  0.33396  0.30542  1.0000
  S   S171      1.0  0.56057  0.36313  0.33550  1.0000
  S   S172      1.0  0.53294  0.28965  0.30809  1.0000
  Fe  Fe89      1.0  0.52962  0.37656  0.27576  1.0000
  S   S173      1.0  0.55090  0.40987  0.30343  1.0000
  H   H1302     1.0  0.51846  0.46528  0.32109  1.0000
  Fe  Fe90      1.0  0.58353  0.39460  0.30696  1.0000
  S   S174      1.0  0.63020  0.42469  0.31026  1.0000
  Fe  Fe91      1.0  0.52669  0.37613  0.33019  1.0000
  S   S175      1.0  0.56480  0.36433  0.27678  1.0000
  H   H1303     1.0  0.63401  0.49091  0.39648  1.0000
  H   H1304     1.0  0.61554  0.44373  0.38604  1.0000
  C   C736      1.0  0.64762  0.42982  0.33829  1.0000
  C   C737      1.0  0.63480  0.41243  0.35789  1.0000
  H   H1305     1.0  0.61407  0.39523  0.35603  1.0000
  H   H1306     1.0  0.80390  0.34485  0.36248  1.0000
  C   C738      1.0  0.81517  0.15966  0.45210  1.0000
  C   C739      1.0  0.82234  0.13810  0.45756  1.0000
  C   C740      1.0  0.80143  0.11013  0.45908  1.0000
  H   H1307     1.0  0.75320  0.31419  0.48034  1.0000
  H   H1308     1.0  0.52193  0.28729  0.41879  1.0000
  C   C741      1.0  0.78704  0.15294  0.44766  1.0000
  H   H1309     1.0  0.84412  0.14312  0.46085  1.0000
  H   H1310     1.0  0.94136  0.47792  0.24202  1.0000
  S   S176      1.0  0.51192  0.38558  0.36469  1.0000
  S   S177      1.0  0.50305  0.34388  0.30250  1.0000
  C   C742      1.0  0.91161  0.39171  0.35047  1.0000
  C   C743      1.0  0.92839  0.39922  0.37114  1.0000
  C   C744      1.0  0.92230  0.38004  0.39035  1.0000
  C   C745      1.0  0.89896  0.35344  0.38944  1.0000
  C   C746      1.0  0.88205  0.34602  0.36885  1.0000
  C   C747      1.0  0.88856  0.36495  0.34939  1.0000
  H   H1311     1.0  0.94631  0.41963  0.37216  1.0000
  H   H1312     1.0  0.93564  0.38596  0.40612  1.0000
  H   H1313     1.0  0.86412  0.32562  0.36782  1.0000
  H   H1314     1.0  0.87559  0.35888  0.33341  1.0000
  H   H1315     1.0  0.55353  0.28857  0.38795  1.0000
  H   H1316     1.0  0.62782  0.08091  0.44489  1.0000
  C   C748      1.0  0.76615  0.12521  0.44989  1.0000
  H   H1317     1.0  0.55732  0.44141  0.38288  1.0000
  H   H1318     1.0  0.78120  0.16916  0.44316  1.0000
  C   C749      1.0  0.59478  0.28200  0.36138  1.0000
  C   C750      1.0  0.60166  0.30753  0.34975  1.0000
  C   C751      1.0  0.58313  0.30982  0.33278  1.0000
  C   C752      1.0  0.55795  0.28646  0.32702  1.0000
  C   C753      1.0  0.55189  0.26059  0.33759  1.0000
  C   C754      1.0  0.57001  0.25844  0.35507  1.0000
  H   H1319     1.0  0.62076  0.32581  0.35457  1.0000
  H   H1320     1.0  0.58816  0.32971  0.32433  1.0000
  H   H1321     1.0  0.53260  0.24245  0.33291  1.0000
  H   H1322     1.0  0.56460  0.23866  0.36385  1.0000
  C   C755      1.0  0.61972  0.12384  0.34813  1.0000
  C   C756      1.0  0.59791  0.13113  0.35136  1.0000
  C   C757      1.0  0.59486  0.14195  0.37325  1.0000
  C   C758      1.0  0.61349  0.14533  0.39223  1.0000
  C   C759      1.0  0.63512  0.13778  0.38904  1.0000
  C   C760      1.0  0.63842  0.12739  0.36707  1.0000
  H   H1323     1.0  0.58334  0.12845  0.33681  1.0000
  H   H1324     1.0  0.57791  0.14736  0.37550  1.0000
  H   H1325     1.0  0.65004  0.14100  0.40335  1.0000
  H   H1326     1.0  0.65584  0.12281  0.36454  1.0000
  Fe  Fe92      1.0  0.59145  0.18840  0.42591  1.0000
  C   C761      1.0  0.75384  0.15080  0.34263  1.0000
  C   C762      1.0  0.72966  0.15419  0.34577  1.0000
  C   C763      1.0  0.73144  0.17772  0.35752  1.0000
  C   C764      1.0  0.75737  0.19817  0.36591  1.0000
  C   C765      1.0  0.78165  0.19529  0.36197  1.0000
  C   C766      1.0  0.77990  0.17182  0.35012  1.0000
  H   H1327     1.0  0.70949  0.13843  0.33966  1.0000
  H   H1328     1.0  0.71260  0.17971  0.36067  1.0000
  H   H1329     1.0  0.80184  0.21136  0.36768  1.0000
  H   H1330     1.0  0.79875  0.17002  0.34663  1.0000
  C   C767      1.0  0.89035  0.45594  0.40818  1.0000
  H   H1331     1.0  0.79081  0.04983  0.31705  1.0000
  H   H1332     1.0  0.69879  0.25832  0.46036  1.0000
  C   C768      1.0  0.68895  0.45664  0.36330  1.0000
  H   H1333     1.0  0.70963  0.47404  0.36541  1.0000
  Fe  Fe93      1.0  0.73736  0.46101  0.42024  1.0000
  C   C769      1.0  0.75017  0.33320  0.48166  1.0000
  C   C770      1.0  0.68969  0.39281  0.47300  1.0000
  Fe  Fe94      1.0  0.95166  0.00500  0.29758  1.0000
  H   H1334     1.0  0.83510  0.06399  0.43604  1.0000
  N   N43       1.0  0.65654  0.22368  0.34169  1.0000
  C   C771      1.0  0.66347  0.25406  0.34327  1.0000
  C   C772      1.0  0.65874  0.21317  0.36645  1.0000
  C   C773      1.0  0.67689  0.22103  0.32487  1.0000
  C   C774      1.0  0.62714  0.20649  0.33222  1.0000
  C   C775      1.0  0.60340  0.20836  0.34631  1.0000
  C   C776      1.0  0.65682  0.26717  0.32061  1.0000
  C   C777      1.0  0.67425  0.19125  0.32247  1.0000
  C   C778      1.0  0.68861  0.22590  0.37777  1.0000
  C   C779      1.0  0.68815  0.21392  0.40284  1.0000
  C   C780      1.0  0.57500  0.19247  0.33372  1.0000
  C   C781      1.0  0.66543  0.29803  0.32421  1.0000
  C   C782      1.0  0.69782  0.19160  0.30726  1.0000
  H   H1335     1.0  0.68623  0.26686  0.34726  1.0000
  H   H1336     1.0  0.65248  0.25752  0.35860  1.0000
  H   H1337     1.0  0.64526  0.21725  0.37909  1.0000
  H   H1338     1.0  0.65032  0.19019  0.36660  1.0000
  H   H1339     1.0  0.69898  0.23551  0.32994  1.0000
  H   H1340     1.0  0.67414  0.22767  0.30650  1.0000
  H   H1341     1.0  0.62550  0.21167  0.31309  1.0000
  H   H1342     1.0  0.62195  0.18405  0.33237  1.0000
  H   H1343     1.0  0.60715  0.23017  0.34842  1.0000
  H   H1344     1.0  0.60178  0.19891  0.36434  1.0000
  H   H1345     1.0  0.66826  0.26552  0.30491  1.0000
  H   H1346     1.0  0.63401  0.25687  0.31635  1.0000
  H   H1347     1.0  0.65408  0.17720  0.31364  1.0000
  H   H1348     1.0  0.67524  0.18193  0.34004  1.0000
  H   H1349     1.0  0.70305  0.22125  0.36695  1.0000
  H   H1350     1.0  0.69741  0.24883  0.37935  1.0000
  H   H1351     1.0  0.70958  0.22425  0.41086  1.0000
  H   H1352     1.0  0.67352  0.21739  0.41452  1.0000
  H   H1353     1.0  0.68164  0.19125  0.40198  1.0000
  H   H1354     1.0  0.57515  0.20197  0.31588  1.0000
  H   H1355     1.0  0.56996  0.17022  0.33160  1.0000
  H   H1356     1.0  0.55825  0.19338  0.34451  1.0000
  H   H1357     1.0  0.68847  0.30990  0.32720  1.0000
  H   H1358     1.0  0.65957  0.30658  0.30804  1.0000
  H   H1359     1.0  0.65434  0.30073  0.33974  1.0000
  H   H1360     1.0  0.71865  0.20479  0.31559  1.0000
  H   H1361     1.0  0.69529  0.17003  0.30589  1.0000
  H   H1362     1.0  0.69707  0.19961  0.28896  1.0000
  H   H1363     1.0  0.59681  0.45163  0.40869  1.0000
  H   H1364     1.0  0.54258  0.30840  0.36763  1.0000
  C   C783      1.0  0.66768  0.09974  0.46286  1.0000
  C   C784      1.0  0.83990  0.40597  0.43412  1.0000
  C   C785      1.0  0.54575  0.30442  0.38667  1.0000
  H   H1365     1.0  0.83793  0.37118  0.35305  1.0000
  H   H1366     1.0  0.74435  0.12055  0.44775  1.0000
  Fe  Fe95      1.0  0.75159  0.03043  0.46170  1.0000
  C   C786      1.0  0.66569  0.12492  0.47296  1.0000
  N   N44       1.0  0.72325  0.40012  0.33971  1.0000
  C   C787      1.0  0.71639  0.38167  0.36179  1.0000
  C   C788      1.0  0.73959  0.39151  0.32296  1.0000
  C   C789      1.0  0.74013  0.43005  0.34715  1.0000
  C   C790      1.0  0.69696  0.39723  0.32700  1.0000
  C   C791      1.0  0.67567  0.36721  0.31992  1.0000
  C   C792      1.0  0.69558  0.38414  0.37938  1.0000
  C   C793      1.0  0.75107  0.45196  0.32647  1.0000
  C   C794      1.0  0.76984  0.39817  0.33124  1.0000
  C   C795      1.0  0.78376  0.38724  0.31356  1.0000
  C   C796      1.0  0.64906  0.36652  0.30881  1.0000
  C   C797      1.0  0.68907  0.36352  0.40029  1.0000
  S   S178      1.0  0.90972  0.99912  0.28364  1.0000
  H   H1367     1.0  0.73589  0.38642  0.37231  1.0000
  H   H1368     1.0  0.70792  0.35935  0.35690  1.0000
  H   H1369     1.0  0.72827  0.36861  0.32004  1.0000
  H   H1370     1.0  0.74088  0.40104  0.30490  1.0000
  H   H1371     1.0  0.75824  0.43247  0.35867  1.0000
  H   H1372     1.0  0.72747  0.43639  0.35870  1.0000
  H   H1373     1.0  0.68591  0.40614  0.33784  1.0000
  H   H1374     1.0  0.70232  0.40977  0.31013  1.0000
  H   H1375     1.0  0.66920  0.35291  0.33563  1.0000
  H   H1376     1.0  0.68499  0.35909  0.30653  1.0000
  H   H1377     1.0  0.70471  0.40536  0.38687  1.0000
  H   H1378     1.0  0.67523  0.37969  0.37064  1.0000
  H   H1379     1.0  0.73329  0.45361  0.31730  1.0000
  H   H1380     1.0  0.78927  0.48048  0.34527  1.0000
  H   H1381     1.0  0.78336  0.42098  0.33258  1.0000
  H   H1382     1.0  0.76970  0.38842  0.34891  1.0000
  H   H1383     1.0  0.78460  0.39654  0.29551  1.0000
  H   H1384     1.0  0.80564  0.39308  0.31957  1.0000
  H   H1385     1.0  0.77213  0.36414  0.31254  1.0000
  H   H1386     1.0  0.63762  0.37221  0.32225  1.0000
  H   H1387     1.0  0.65416  0.38118  0.29331  1.0000
  H   H1388     1.0  0.63495  0.34515  0.30252  1.0000
  H   H1389     1.0  0.67758  0.34171  0.39392  1.0000
  H   H1390     1.0  0.70868  0.36644  0.40970  1.0000
  H   H1391     1.0  0.67561  0.36716  0.41316  1.0000
  C   C798      1.0  0.82094  0.41822  0.47083  1.0000
  H   H1392     1.0  0.76271  0.44659  0.31308  1.0000
  H   H1393     1.0  0.60707  0.45622  0.33491  1.0000
  H   H1394     1.0  0.84121  0.19432  0.37037  1.0000
  H   H1395     1.0  0.63121  0.33594  0.43260  1.0000
  H   H1396     1.0  0.68557  0.11466  0.39467  1.0000
  C   C799      1.0  0.88114  0.49312  0.48542  1.0000
  H   H1397     1.0  0.70800  0.31303  0.46810  1.0000
  H   H1398     1.0  0.56251  0.34811  0.39595  1.0000
  H   H1399     1.0  0.86470  0.20726  0.39564  1.0000
  H   H1400     1.0  0.57346  0.32791  0.41587  1.0000
  C   C800      1.0  0.68537  0.08062  0.41792  1.0000
  Fe  Fe96      1.0  0.59581  0.23119  0.46365  1.0000
  H   H1401     1.0  0.59557  0.06271  0.37203  1.0000
  H   H1402     1.0  0.50122  0.23888  0.40261  1.0000
  C   C801      1.0  0.84946  0.06845  0.42068  1.0000
  H   H1403     1.0  0.66179  0.04810  0.45605  1.0000
  C   C802      1.0  0.89111  0.43154  0.42291  1.0000
  S   S179      1.0  0.77965  0.01935  0.48526  1.0000
  H   H1404     1.0  0.49815  0.28023  0.35143  1.0000
  S   S180      1.0  0.56529  0.20078  0.40116  1.0000
  H   H1405     1.0  0.68504  0.02024  0.37502  1.0000
  H   H1406     1.0  0.82413  0.38472  0.43993  1.0000
  C   C803      1.0  0.59449  0.43899  0.39262  1.0000
  H   H1407     1.0  0.67540  0.14311  0.46051  1.0000
  H   H1408     1.0  0.89255  0.45297  0.38888  1.0000
  S   S181      1.0  0.57087  0.24749  0.44159  1.0000
  H   H1409     1.0  0.66587  0.31072  0.46719  1.0000
  Fe  Fe97      1.0  0.77038  0.44939  0.46032  1.0000
  H   H1410     1.0  0.85177  0.36094  0.43180  1.0000
  H   H1411     1.0  0.81387  0.36350  0.40371  1.0000
  C   C804      1.0  0.57666  0.44479  0.37336  1.0000
  H   H1412     1.0  0.58372  0.48936  0.39420  1.0000
  H   H1413     1.0  0.72322  0.10793  0.37853  1.0000
  S   S182      1.0  0.95628  0.48859  0.35715  1.0000
  H   H1414     1.0  0.69467  0.43407  0.46369  1.0000
  H   H1415     1.0  0.69020  0.10569  0.46023  1.0000
  H   H1416     1.0  0.98823  0.10123  0.35006  1.0000
  H   H1417     1.0  0.89780  0.43869  0.44140  1.0000
  H   H1418     1.0  0.49370  0.30611  0.36666  1.0000
  N   N45       1.0  0.65500  0.06903  0.42515  1.0000
  H   H1419     1.0  0.51630  0.25328  0.37457  1.0000
  H   H1420     1.0  0.64202  0.08211  0.39245  1.0000
  H   H1421     1.0  0.75869  0.34621  0.46530  1.0000
  S   S183      1.0  0.51397  0.38645  0.24021  1.0000
  S   S184      1.0  0.61087  0.15902  0.42013  1.0000
  C   C805      1.0  0.58019  0.40839  0.40051  1.0000
  H   H1422     1.0  0.83817  0.35123  0.39411  1.0000
  H   H1423     1.0  0.59326  0.40460  0.41435  1.0000
  H   H1424     1.0  0.55916  0.40265  0.40805  1.0000
  H   H1425     1.0  0.57766  0.39491  0.38501  1.0000
  N   N46       1.0  0.82108  0.11024  0.38013  1.0000
  C   C806      1.0  0.83780  0.11389  0.35776  1.0000
  C   C807      1.0  0.83499  0.10257  0.40063  1.0000
  C   C808      1.0  0.79155  0.08774  0.37572  1.0000
  C   C809      1.0  0.81976  0.13673  0.38623  1.0000
  C   C810      1.0  0.84845  0.16283  0.39003  1.0000
  C   C811      1.0  0.83012  0.12768  0.33610  1.0000
  C   C812      1.0  0.77242  0.07734  0.39787  1.0000
  C   C813      1.0  0.83675  0.07480  0.39812  1.0000
  C   C814      1.0  0.63732  0.06259  0.40261  1.0000
  H   H1426     1.0  0.98466  0.00084  0.41363  1.0000
  C   C815      1.0  0.84634  0.12785  0.31389  1.0000
  C   C816      1.0  0.74233  0.05711  0.39079  1.0000
  H   H1427     1.0  0.83518  0.09329  0.35168  1.0000
  H   H1428     1.0  0.86073  0.12612  0.36138  1.0000
  H   H1429     1.0  0.85696  0.11911  0.40314  1.0000
  C   C817      1.0  0.72701  0.11826  0.39607  1.0000
  H   H1430     1.0  0.79169  0.06921  0.36748  1.0000
  H   H1431     1.0  0.78063  0.09522  0.36248  1.0000
  H   H1432     1.0  0.80716  0.14151  0.37260  1.0000
  H   H1433     1.0  0.80821  0.13414  0.40312  1.0000
  C   C818      1.0  0.86995  0.38186  0.43410  1.0000
  H   H1434     1.0  0.85715  0.16150  0.40794  1.0000
  H   H1435     1.0  0.80742  0.11634  0.33165  1.0000
  H   H1436     1.0  0.83536  0.14966  0.33988  1.0000
  H   H1437     1.0  0.77170  0.09484  0.40708  1.0000
  H   H1438     1.0  0.78012  0.06652  0.41086  1.0000
  H   H1439     1.0  0.81577  0.05689  0.39518  1.0000
  H   H1440     1.0  0.85036  0.07616  0.38293  1.0000
  H   H1441     1.0  0.80328  0.41756  0.45965  1.0000
  C   C819      1.0  0.69915  0.11108  0.40804  1.0000
  H   H1442     1.0  0.67681  0.34347  0.45280  1.0000
  C   C820      1.0  0.76875  0.04659  0.31682  1.0000
  H   H1443     1.0  0.80710  0.09370  0.46357  1.0000
  H   H1444     1.0  0.84098  0.10621  0.30867  1.0000
  C   C821      1.0  0.56844  0.47464  0.34423  1.0000
  H   H1445     1.0  0.86934  0.13965  0.31720  1.0000
  H   H1446     1.0  0.73367  0.06699  0.37765  1.0000
  H   H1447     1.0  0.74161  0.03810  0.38293  1.0000
  H   H1448     1.0  0.72888  0.05091  0.40689  1.0000
  N   N47       1.0  0.86432  0.40436  0.42242  1.0000
  H   H1449     1.0  0.54336  0.48162  0.37185  1.0000
  H   H1450     1.0  0.76823  0.06517  0.32453  1.0000
  C   C822      1.0  0.85686  0.39688  0.39648  1.0000
  C   C823      1.0  0.88364  0.36140  0.47027  1.0000
  C   C824      1.0  0.83161  0.36793  0.39161  1.0000
  H   H1451     1.0  0.87016  0.08618  0.42507  1.0000
  S   S185      1.0  0.69105  0.44634  0.41190  1.0000
  C   C825      1.0  0.67575  0.43953  0.38300  1.0000
  C   C826      1.0  0.82072  0.36625  0.36595  1.0000
  H   H1452     1.0  0.90880  0.42848  0.41569  1.0000
  C   C827      1.0  0.84514  0.18951  0.38902  1.0000
  Fe  Fe98      1.0  0.54253  0.20242  0.43419  1.0000
  H   H1453     1.0  0.85275  0.04985  0.41779  1.0000
  H   H1454     1.0  0.87526  0.39773  0.38681  1.0000
  H   H1455     1.0  0.85171  0.41257  0.38740  1.0000
  H   H1456     1.0  0.63839  0.40399  0.39528  1.0000
  C   C828      1.0  0.64874  0.41733  0.38013  1.0000
  C   C829      1.0  0.67493  0.45174  0.34100  1.0000
  H   H1457     1.0  0.68516  0.46518  0.32588  1.0000
  H   H1458     1.0  0.62596  0.03571  0.44789  1.0000
  S   S186      1.0  0.74915  0.42653  0.42707  1.0000
  C   C830      1.0  0.51814  0.29442  0.40083  1.0000
  H   H1459     1.0  0.51536  0.31335  0.40379  1.0000
  H   H1460     1.0  0.59816  0.02676  0.41464  1.0000
  H   H1461     1.0  0.50306  0.20623  0.36137  1.0000
  S   S187      1.0  0.62911  0.99895  0.35413  1.0000
  C   C831      1.0  0.65014  0.08981  0.43943  1.0000
  C   C832      1.0  0.77318  0.10372  0.45568  1.0000
  C   C833      1.0  0.84684  0.42581  0.45564  1.0000
  S   S188      1.0  0.56593  0.18591  0.45836  1.0000
  C   C834      1.0  0.64732  0.04319  0.44033  1.0000
  C   C835      1.0  0.59001  0.04254  0.38150  1.0000
  C   C836      1.0  0.66685  0.33162  0.46941  1.0000
  S   S189      1.0  0.49511  0.18525  0.43319  1.0000
  S   S190      1.0  0.80732  0.43651  0.38247  1.0000
  C   C837      1.0  0.71430  0.35120  0.48669  1.0000
  H   H1462     1.0  0.52723  0.44696  0.35968  1.0000
  H   H1463     1.0  0.85740  0.38158  0.47120  1.0000
  H   H1464     1.0  0.64281  0.04987  0.39031  1.0000
  Fe  Fe99      1.0  0.78924  0.45442  0.40887  1.0000
  H   H1465     1.0  0.62398  0.30881  0.48259  1.0000
  C   C838      1.0  0.87626  0.38428  0.46128  1.0000
  H   H1466     1.0  0.70368  0.22749  0.45672  1.0000
  H   H1467     1.0  0.51566  0.23408  0.46355  1.0000
  C   C839      1.0  0.67331  0.99838  0.37969  1.0000
  H   H1468     1.0  0.63355  0.34461  0.47572  1.0000
  C   C840      1.0  0.83786  0.46351  0.37039  1.0000
  H   H1469     1.0  0.70343  0.12603  0.42273  1.0000
  H   H1470     1.0  0.72884  0.01953  0.33178  1.0000
  H   H1471     1.0  0.73352  0.26068  0.46205  1.0000
  C   C841      1.0  0.52260  0.47744  0.33778  1.0000
  H   H1472     1.0  0.84707  0.43631  0.34854  1.0000
  H   H1473     1.0  0.62462  0.30033  0.43823  1.0000
  C   C842      1.0  0.71109  0.24738  0.46648  1.0000
  C   C843      1.0  0.63581  0.32622  0.46997  1.0000
  H   H1474     1.0  0.67230  0.38349  0.45975  1.0000
  S   S191      1.0  0.75610  0.48224  0.45507  1.0000
  C   C844      1.0  0.85379  0.45755  0.35406  1.0000
  H   H1475     1.0  0.79740  0.99863  0.39444  1.0000
  S   S192      1.0  0.81193  0.47401  0.44274  1.0000
  C   C845      1.0  0.49331  0.22635  0.46080  1.0000
  S   S193      1.0  0.77618  0.48749  0.39918  1.0000
  H   H1476     1.0  0.85426  0.44754  0.44899  1.0000
  S   S194      1.0  0.74569  0.06959  0.45932  1.0000
  C   C846      1.0  0.77098  0.48087  0.33579  1.0000
  C   C847      1.0  0.87886  0.47904  0.34519  1.0000
  H   H1477     1.0  0.82832  0.41291  0.42104  1.0000
  C   C848      1.0  0.59882  0.49620  0.37913  1.0000
  H   H1478     1.0  0.82743  0.18742  0.40034  1.0000
  H   H1479     1.0  0.63416  0.01135  0.41221  1.0000
  C   C849      1.0  0.61415  0.47503  0.34627  1.0000
  H   H1480     1.0  0.59913  0.31169  0.44670  1.0000
  H   H1481     1.0  0.69870  0.07965  0.43309  1.0000
  H   H1482     1.0  0.73995  0.11132  0.40713  1.0000
  H   H1483     1.0  0.87031  0.45694  0.41053  1.0000
  H   H1484     1.0  0.68760  0.06734  0.40397  1.0000
  H   H1485     1.0  0.75856  0.02343  0.34987  1.0000
  H   H1486     1.0  0.89124  0.47423  0.33283  1.0000
  H   H1487     1.0  0.73830  0.15494  0.47557  1.0000
  H   H1488     1.0  0.86412  0.16501  0.37647  1.0000
  C   C850      1.0  0.69177  0.42095  0.47996  1.0000
  H   H1489     1.0  0.82441  0.10187  0.41771  1.0000
  H   H1490     1.0  0.84063  0.13809  0.29880  1.0000
  C   C851      1.0  0.60501  0.04741  0.40577  1.0000
  H   H1491     1.0  0.82601  0.43413  0.48483  1.0000
  H   H1492     1.0  0.57705  0.49553  0.33535  1.0000
  H   H1493     1.0  0.65363  0.10832  0.42818  1.0000
  H   H1494     1.0  0.70948  0.39678  0.46415  1.0000
  H   H1495     1.0  0.88791  0.38104  0.42522  1.0000
  H   H1496     1.0  0.73900  0.14117  0.39342  1.0000
  H   H1497     1.0  0.86339  0.42559  0.46761  1.0000
  C   C852      1.0  0.64871  0.01851  0.42780  1.0000
  H   H1498     1.0  0.89424  0.40461  0.46573  1.0000
  H   H1499     1.0  0.64340  0.12004  0.47579  1.0000
  C   C853      1.0  0.71895  0.32495  0.48421  1.0000
  H   H1500     1.0  0.59778  0.05998  0.41640  1.0000
  C   C854      1.0  0.54005  0.46945  0.35534  1.0000
  N   N48       1.0  0.59007  0.47307  0.36117  1.0000
  C   C855      1.0  0.74999  0.02057  0.33139  1.0000
  C   C856      1.0  0.84680  0.49100  0.37754  1.0000
  H   H1501     1.0  0.49569  0.30600  0.44145  1.0000
  H   H1502     1.0  0.56346  0.45940  0.32957  1.0000
  H   H1503     1.0  0.59584  0.02936  0.37014  1.0000
  H   H1504     1.0  0.63121  0.47460  0.35757  1.0000
  S   S195      1.0  0.75585  0.00850  0.42944  1.0000
  H   H1505     1.0  0.90293  0.36342  0.46143  1.0000
  S   S196      1.0  0.66719  0.04194  0.24144  1.0000
  H   H1506     1.0  0.65952  0.08280  0.47659  1.0000
  H   H1507     1.0  0.72248  0.36385  0.47008  1.0000
  H   H1508     1.0  0.86613  0.34041  0.46652  1.0000
  C   C857      1.0  0.62193  0.31804  0.44534  1.0000
  S   S197      1.0  0.99171  0.04184  0.28518  1.0000
  H   H1509     1.0  0.50209  0.47266  0.34591  1.0000
  C   C858      1.0  0.49716  0.24710  0.38529  1.0000
  H   H1510     1.0  0.65399  0.48730  0.31018  1.0000
  H   H1511     1.0  0.87920  0.49406  0.46568  1.0000
  H   H1512     1.0  0.93507  0.48392  0.41260  1.0000
  H   H1513     1.0  0.56691  0.03171  0.38403  1.0000
  H   H1514     1.0  0.81292  0.99757  0.35292  1.0000
  H   H1515     1.0  0.70527  0.99759  0.40339  1.0000
  H   H1516     1.0  0.69896  0.01335  0.26077  1.0000
  H   H1517     1.0  0.90027  0.48748  0.24129  1.0000
  H   H1518     1.0  0.81425  0.39759  0.47973  1.0000
  C   C859      1.0  0.91456  0.48405  0.41499  1.0000
  H   H1519     1.0  0.65562  0.99932  0.46027  1.0000
  H   H1520     1.0  0.67038  0.02473  0.42167  1.0000
  H   H1521     1.0  0.98585  0.01279  0.38313  1.0000
  H   H1522     1.0  0.66763  0.20719  0.48725  1.0000
  H   H1523     1.0  0.91268  0.48899  0.43383  1.0000
  H   H1524     1.0  0.77110  0.99654  0.32205  1.0000
  H   H1525     1.0  0.77895  0.49594  0.32060  1.0000
  Fe  Fe100     1.0  0.88746  0.46513  0.65338  1.0000
  S   S198      1.0  0.88334  0.44848  0.61611  1.0000
  Fe  Fe101     1.0  0.82371  0.44156  0.65749  1.0000
  S   S199      1.0  0.81470  0.42401  0.62067  1.0000
  S   S200      1.0  0.78967  0.43855  0.68244  1.0000
  Fe  Fe102     1.0  0.84706  0.40968  0.63004  1.0000
  S   S201      1.0  0.83859  0.36794  0.61534  1.0000
  Fe  Fe103     1.0  0.85150  0.46394  0.60947  1.0000
  S   S202      1.0  0.85382  0.42443  0.66800  1.0000
  Fe  Fe104     1.0  0.62862  0.35360  0.64547  1.0000
  S   S203      1.0  0.60897  0.33015  0.67919  1.0000
  S   S204      1.0  0.66546  0.39669  0.64477  1.0000
  Fe  Fe105     1.0  0.58566  0.30902  0.61321  1.0000
  S   S205      1.0  0.56266  0.28148  0.64440  1.0000
  S   S206      1.0  0.56975  0.30073  0.57480  1.0000
  Fe  Fe106     1.0  0.56724  0.32061  0.66215  1.0000
  S   S207      1.0  0.52942  0.32372  0.67776  1.0000
  Fe  Fe107     1.0  0.60609  0.29321  0.65895  1.0000
  S   S208      1.0  0.62025  0.26469  0.67838  1.0000
  S   S209      1.0  0.58728  0.34734  0.62973  1.0000
  S   S210      1.0  0.62876  0.31753  0.62638  1.0000
  Fe  Fe108     1.0  0.74749  0.22120  0.65665  1.0000
  S   S211      1.0  0.73039  0.22216  0.61995  1.0000
  S   S212      1.0  0.77260  0.25938  0.67880  1.0000
  Fe  Fe109     1.0  0.72474  0.15789  0.65764  1.0000
  S   S213      1.0  0.70581  0.15356  0.62068  1.0000
  S   S214      1.0  0.72950  0.12287  0.67749  1.0000
  Fe  Fe110     1.0  0.74562  0.19129  0.61064  1.0000
  S   S215      1.0  0.76929  0.19215  0.57745  1.0000
  Fe  Fe111     1.0  0.69189  0.18486  0.63269  1.0000
  S   S216      1.0  0.65166  0.18416  0.61921  1.0000
  S   S217      1.0  0.76594  0.19321  0.64632  1.0000
  S   S218      1.0  0.70751  0.18623  0.67059  1.0000
  H   H1526     1.0  0.90444  0.30733  0.54149  1.0000
  H   H1527     1.0  0.68362  0.48759  0.64288  1.0000
  C   C860      1.0  0.77473  0.21688  0.55451  1.0000
  C   C861      1.0  0.79157  0.21805  0.53525  1.0000
  C   C862      1.0  0.79514  0.23611  0.51579  1.0000
  C   C863      1.0  0.78280  0.25402  0.51590  1.0000
  C   C864      1.0  0.76701  0.25388  0.53567  1.0000
  C   C865      1.0  0.76259  0.23502  0.55482  1.0000
  H   H1528     1.0  0.80205  0.20505  0.53545  1.0000
  H   H1529     1.0  0.66566  0.17529  0.56459  1.0000
  H   H1530     1.0  0.75811  0.26828  0.53607  1.0000
  H   H1531     1.0  0.74995  0.23461  0.56978  1.0000
  C   C866      1.0  0.71291  0.10549  0.70420  1.0000
  H   H1532     1.0  0.63007  0.16340  0.50595  1.0000
  C   C867      1.0  0.68895  0.10638  0.71275  1.0000
  C   C868      1.0  0.56765  0.40379  0.70394  1.0000
  H   H1533     1.0  0.68004  0.11798  0.70290  1.0000
  C   C869      1.0  0.58291  0.28532  0.55426  1.0000
  C   C870      1.0  0.57463  0.28382  0.53016  1.0000
  C   C871      1.0  0.58406  0.27107  0.51334  1.0000
  C   C872      1.0  0.60244  0.26035  0.52041  1.0000
  C   C873      1.0  0.61056  0.26163  0.54454  1.0000
  C   C874      1.0  0.60066  0.27388  0.56148  1.0000
  H   H1534     1.0  0.56099  0.29274  0.52445  1.0000
  H   H1535     1.0  0.51352  0.19447  0.57064  1.0000
  H   H1536     1.0  0.62456  0.25313  0.55023  1.0000
  H   H1537     1.0  0.60689  0.27463  0.58007  1.0000
  C   C875      1.0  0.62868  0.24259  0.66128  1.0000
  C   C876      1.0  0.64102  0.22754  0.67280  1.0000
  C   C877      1.0  0.64857  0.21007  0.65982  1.0000
  C   C878      1.0  0.64293  0.20678  0.63531  1.0000
  C   C879      1.0  0.63001  0.22138  0.62374  1.0000
  C   C880      1.0  0.62326  0.23961  0.63666  1.0000
  H   H1538     1.0  0.64469  0.22939  0.69190  1.0000
  H   H1539     1.0  0.65796  0.19846  0.66891  1.0000
  H   H1540     1.0  0.62538  0.21875  0.60482  1.0000
  H   H1541     1.0  0.61347  0.25097  0.62770  1.0000
  H   H1542     1.0  0.59069  0.00528  0.73297  1.0000
  H   H1543     1.0  0.72538  0.17274  0.49494  1.0000
  H   H1544     1.0  0.65124  0.32549  0.51667  1.0000
  C   C881      1.0  0.69752  0.40217  0.65830  1.0000
  C   C882      1.0  0.70745  0.41976  0.67797  1.0000
  C   C883      1.0  0.73548  0.42994  0.68565  1.0000
  C   C884      1.0  0.75411  0.42335  0.67330  1.0000
  C   C885      1.0  0.74406  0.40506  0.65407  1.0000
  C   C886      1.0  0.71570  0.39428  0.64671  1.0000
  H   H1545     1.0  0.69370  0.42634  0.68680  1.0000
  C   C887      1.0  0.54015  0.32676  0.72690  1.0000
  H   H1546     1.0  0.75823  0.39949  0.64476  1.0000
  H   H1547     1.0  0.70807  0.38077  0.63147  1.0000
  C   C888      1.0  0.82009  0.33839  0.63353  1.0000
  C   C889      1.0  0.82027  0.34007  0.65845  1.0000
  C   C890      1.0  0.80604  0.31569  0.67240  1.0000
  C   C891      1.0  0.79144  0.28970  0.66142  1.0000
  C   C892      1.0  0.79142  0.28821  0.63655  1.0000
  C   C893      1.0  0.80554  0.31245  0.62268  1.0000
  H   H1548     1.0  0.83174  0.36004  0.66695  1.0000
  H   H1549     1.0  0.80632  0.31698  0.69166  1.0000
  H   H1550     1.0  0.78088  0.26835  0.62793  1.0000
  H   H1551     1.0  0.80500  0.31109  0.60345  1.0000
  H   H1552     1.0  0.83413  0.27454  0.62103  1.0000
  H   H1553     1.0  0.52193  0.23579  0.51082  1.0000
  H   H1554     1.0  0.82690  0.16219  0.51270  1.0000
  C   C894      1.0  0.69026  0.33710  0.53591  1.0000
  H   H1555     1.0  0.72072  0.23084  0.49859  1.0000
  C   C895      1.0  0.74021  0.02193  0.70454  1.0000
  C   C896      1.0  0.52166  0.32526  0.70832  1.0000
  H   H1556     1.0  0.50410  0.28239  0.57011  1.0000
  C   C897      1.0  0.51781  0.19467  0.50676  1.0000
  H   H1557     1.0  0.53853  0.20315  0.49789  1.0000
  H   H1558     1.0  0.53214  0.19706  0.61129  1.0000
  C   C898      1.0  0.50829  0.20643  0.58380  1.0000
  C   C899      1.0  0.67526  0.31820  0.55711  1.0000
  C   C900      1.0  0.65364  0.01356  0.70796  1.0000
  H   H1559     1.0  0.77413  0.45017  0.58644  1.0000
  H   H1560     1.0  0.50340  0.24376  0.58650  1.0000
  H   H1561     1.0  0.71908  0.45912  0.56852  1.0000
  H   H1562     1.0  0.55189  0.22985  0.59588  1.0000
  S   S219      1.0  0.85363  0.48859  0.57568  1.0000
  C   C901      1.0  0.53098  0.21558  0.60335  1.0000
  H   H1563     1.0  0.71741  0.26240  0.50222  1.0000
  H   H1564     1.0  0.72855  0.36430  0.50111  1.0000
  H   H1565     1.0  0.71890  0.36275  0.69542  1.0000
  H   H1566     1.0  0.74905  0.01472  0.71970  1.0000
  C   C902      1.0  0.67685  0.22435  0.50041  1.0000
  C   C903      1.0  0.51692  0.21715  0.52236  1.0000
  H   H1567     1.0  0.49362  0.40725  0.68791  1.0000
  H   H1568     1.0  0.61541  0.01545  0.69440  1.0000
  H   H1569     1.0  0.86144  0.25617  0.51420  1.0000
  H   H1570     1.0  0.72742  0.33310  0.61281  1.0000
  H   H1571     1.0  0.83624  0.33148  0.51288  1.0000
  H   H1572     1.0  0.76256  0.18595  0.49092  1.0000
  H   H1573     1.0  0.70386  0.44186  0.60724  1.0000
  H   H1574     1.0  0.67660  0.13601  0.56544  1.0000
  H   H1575     1.0  0.68900  0.32474  0.57325  1.0000
  H   H1576     1.0  0.65567  0.31960  0.56101  1.0000
  H   H1577     1.0  0.67009  0.29627  0.55327  1.0000
  C   C904      1.0  0.75477  0.44434  0.59687  1.0000
  C   C905      1.0  0.73197  0.41735  0.58532  1.0000
  C   C906      1.0  0.62172  0.00485  0.70872  1.0000
  C   C907      1.0  0.72286  0.45936  0.61495  1.0000
  C   C908      1.0  0.74143  0.39452  0.58514  1.0000
  H   H1578     1.0  0.75984  0.43891  0.61499  1.0000
  H   H1579     1.0  0.88946  0.28735  0.50125  1.0000
  H   H1580     1.0  0.67529  0.31791  0.68294  1.0000
  H   H1581     1.0  0.70808  0.16779  0.55974  1.0000
  H   H1582     1.0  0.71196  0.40879  0.59520  1.0000
  H   H1583     1.0  0.72781  0.42145  0.56652  1.0000
  C   C909      1.0  0.74810  0.48562  0.53024  1.0000
  H   H1584     1.0  0.75397  0.12929  0.60247  1.0000
  H   H1585     1.0  0.68745  0.06352  0.66514  1.0000
  H   H1586     1.0  0.62119  0.18952  0.49359  1.0000
  H   H1587     1.0  0.72487  0.37552  0.57680  1.0000
  H   H1588     1.0  0.76100  0.40143  0.57487  1.0000
  H   H1589     1.0  0.74535  0.38904  0.60354  1.0000
  H   H1590     1.0  0.72127  0.34434  0.72148  1.0000
  N   N49       1.0  0.67136  0.21260  0.52564  1.0000
  C   C910      1.0  0.69566  0.01995  0.68633  1.0000
  H   H1591     1.0  0.57261  0.41623  0.68706  1.0000
  C   C911      1.0  0.82957  0.47039  0.55278  1.0000
  H   H1592     1.0  0.64869  0.15255  0.54033  1.0000
  H   H1593     1.0  0.57855  0.14728  0.50394  1.0000
  H   H1594     1.0  0.70378  0.01502  0.72446  1.0000
  C   C912      1.0  0.70828  0.00913  0.70676  1.0000
  H   H1595     1.0  0.69566  0.46389  0.65556  1.0000
  H   H1596     1.0  0.80883  0.35888  0.54360  1.0000
  N   N50       1.0  0.51613  0.42847  0.73220  1.0000
  H   H1597     1.0  0.59013  0.14885  0.53462  1.0000
  C   C913      1.0  0.71065  0.27797  0.68945  1.0000
  C   C914      1.0  0.74322  0.14863  0.51365  1.0000
  H   H1598     1.0  0.71071  0.33678  0.53405  1.0000
  C   C915      1.0  0.74641  0.32652  0.64556  1.0000
  H   H1599     1.0  0.72246  0.02289  0.52911  1.0000
  C   C916      1.0  0.68727  0.15314  0.55219  1.0000
  C   C917      1.0  0.68953  0.47094  0.63866  1.0000
  H   H1600     1.0  0.74983  0.04505  0.70502  1.0000
  H   H1601     1.0  0.75338  0.30570  0.69785  1.0000
  C   C918      1.0  0.82599  0.48528  0.53327  1.0000
  H   H1602     1.0  0.74595  0.01542  0.68767  1.0000
  N   N51       1.0  0.73409  0.33260  0.68884  1.0000
  H   H1603     1.0  0.69026  0.14409  0.53553  1.0000
  S   S220      1.0  0.78750  0.27696  0.49167  1.0000
  C   C919      1.0  0.80661  0.47125  0.51496  1.0000
  H   H1604     1.0  0.76787  0.46675  0.55232  1.0000
  H   H1605     1.0  0.52313  0.38829  0.70067  1.0000
  H   H1606     1.0  0.63271  0.21538  0.53046  1.0000
  C   C920      1.0  0.53651  0.48254  0.73138  1.0000
  C   C921      1.0  0.66755  0.33504  0.71438  1.0000
  H   H1607     1.0  0.70637  0.20390  0.53355  1.0000
  H   H1608     1.0  0.66533  0.03611  0.71198  1.0000
  H   H1609     1.0  0.81210  0.40242  0.70704  1.0000
  C   C922      1.0  0.67642  0.09207  0.73406  1.0000
  N   N52       1.0  0.77063  0.12242  0.53014  1.0000
  C   C923      1.0  0.79716  0.12005  0.52542  1.0000
  C   C924      1.0  0.74494  0.09492  0.52525  1.0000
  C   C925      1.0  0.76980  0.14398  0.51292  1.0000
  C   C926      1.0  0.77020  0.13211  0.55512  1.0000
  C   C927      1.0  0.77271  0.11393  0.57583  1.0000
  C   C928      1.0  0.82528  0.14725  0.52729  1.0000
  H   H1610     1.0  0.72317  0.16255  0.71897  1.0000
  C   C929      1.0  0.74786  0.06773  0.52936  1.0000
  H   H1611     1.0  0.70832  0.24783  0.53954  1.0000
  C   C930      1.0  0.85036  0.14119  0.52471  1.0000
  H   H1612     1.0  0.74302  0.44388  0.70067  1.0000
  H   H1613     1.0  0.66260  0.05678  0.62602  1.0000
  H   H1614     1.0  0.79905  0.10446  0.53757  1.0000
  H   H1615     1.0  0.72678  0.09315  0.53584  1.0000
  H   H1616     1.0  0.70461  0.04151  0.54042  1.0000
  H   H1617     1.0  0.58216  0.17585  0.52225  1.0000
  H   H1618     1.0  0.78781  0.16473  0.51595  1.0000
  H   H1619     1.0  0.78702  0.15382  0.55747  1.0000
  H   H1620     1.0  0.75026  0.13325  0.55816  1.0000
  H   H1621     1.0  0.79220  0.11164  0.57461  1.0000
  H   H1622     1.0  0.75419  0.09307  0.57585  1.0000
  H   H1623     1.0  0.66971  0.35417  0.70475  1.0000
  H   H1624     1.0  0.82743  0.15742  0.54474  1.0000
  H   H1625     1.0  0.74348  0.15973  0.53020  1.0000
  H   H1626     1.0  0.50979  0.45411  0.70474  1.0000
  H   H1627     1.0  0.76201  0.06627  0.51578  1.0000
  H   H1628     1.0  0.75656  0.06684  0.54726  1.0000
  C   C931      1.0  0.80697  0.38280  0.71719  1.0000
  H   H1629     1.0  0.81447  0.38829  0.73588  1.0000
  H   H1630     1.0  0.70414  0.01745  0.66904  1.0000
  H   H1631     1.0  0.51507  0.17626  0.51783  1.0000
  H   H1632     1.0  0.70135  0.38579  0.50849  1.0000
  H   H1633     1.0  0.70486  0.04280  0.68885  1.0000
  H   H1634     1.0  0.67896  0.30222  0.71091  1.0000
  H   H1635     1.0  0.70461  0.31214  0.65980  1.0000
  H   H1636     1.0  0.80255  0.18458  0.68567  1.0000
  N   N53       1.0  0.86006  0.31964  0.55601  1.0000
  C   C932      1.0  0.85695  0.30500  0.57987  1.0000
  C   C933      1.0  0.88705  0.34657  0.55636  1.0000
  C   C934      1.0  0.83493  0.32491  0.55193  1.0000
  C   C935      1.0  0.86137  0.30213  0.53585  1.0000
  H   H1637     1.0  0.53544  0.38687  0.73029  1.0000
  C   C936      1.0  0.83177  0.27537  0.58201  1.0000
  C   C937      1.0  0.83589  0.34247  0.52931  1.0000
  C   C938      1.0  0.88800  0.36916  0.57362  1.0000
  C   C939      1.0  0.91598  0.39563  0.57197  1.0000
  C   C940      1.0  0.59127  0.16152  0.51838  1.0000
  C   C941      1.0  0.83289  0.26127  0.60570  1.0000
  C   C942      1.0  0.81001  0.34747  0.52770  1.0000
  H   H1638     1.0  0.85419  0.31741  0.59429  1.0000
  H   H1639     1.0  0.87657  0.30369  0.58485  1.0000
  H   H1640     1.0  0.90499  0.34246  0.56162  1.0000
  H   H1641     1.0  0.89220  0.35603  0.53812  1.0000
  H   H1642     1.0  0.83135  0.33502  0.56775  1.0000
  H   H1643     1.0  0.81549  0.30481  0.55018  1.0000
  H   H1644     1.0  0.84035  0.28439  0.53235  1.0000
  H   H1645     1.0  0.86679  0.31440  0.51882  1.0000
  C   C943      1.0  0.66429  0.05100  0.66462  1.0000
  H   H1646     1.0  0.52825  0.24628  0.56527  1.0000
  H   H1647     1.0  0.81160  0.27653  0.58125  1.0000
  H   H1648     1.0  0.83152  0.26156  0.56755  1.0000
  H   H1649     1.0  0.81134  0.36022  0.51149  1.0000
  H   H1650     1.0  0.85461  0.36318  0.52943  1.0000
  H   H1651     1.0  0.87119  0.37524  0.56940  1.0000
  H   H1652     1.0  0.88566  0.36158  0.59242  1.0000
  H   H1653     1.0  0.93372  0.39109  0.57687  1.0000
  H   H1654     1.0  0.91908  0.40471  0.55361  1.0000
  H   H1655     1.0  0.91601  0.41130  0.58458  1.0000
  H   H1656     1.0  0.80779  0.23643  0.50082  1.0000
  H   H1657     1.0  0.67087  0.45316  0.63083  1.0000
  C   C944      1.0  0.53978  0.40008  0.71401  1.0000
  H   H1658     1.0  0.81360  0.24108  0.60757  1.0000
  H   H1659     1.0  0.85139  0.25709  0.60630  1.0000
  C   C945      1.0  0.67235  0.32731  0.51265  1.0000
  C   C946      1.0  0.49627  0.32555  0.71399  1.0000
  C   C947      1.0  0.88273  0.27363  0.51739  1.0000
  H   H1660     1.0  0.81822  0.37201  0.70932  1.0000
  H   H1661     1.0  0.79060  0.32729  0.52641  1.0000
  C   C948      1.0  0.69410  0.25619  0.58437  1.0000
  C   C949      1.0  0.74236  0.16664  0.49247  1.0000
  C   C950      1.0  0.68532  0.23686  0.54239  1.0000
  H   H1662     1.0  0.85079  0.12720  0.53940  1.0000
  H   H1663     1.0  0.69436  0.35856  0.54044  1.0000
  C   C951      1.0  0.51242  0.45368  0.72450  1.0000
  H   H1664     1.0  0.69383  0.21811  0.57458  1.0000
  H   H1665     1.0  0.68221  0.26826  0.58102  1.0000
  H   H1666     1.0  0.69216  0.25023  0.60362  1.0000
  H   H1667     1.0  0.77866  0.34950  0.68224  1.0000
  C   C952      1.0  0.62167  0.17815  0.51027  1.0000
  H   H1668     1.0  0.72353  0.34832  0.65642  1.0000
  H   H1669     1.0  0.51199  0.26384  0.53303  1.0000
  H   H1670     1.0  0.67699  0.13063  0.49038  1.0000
  C   C953      1.0  0.79418  0.42738  0.53562  1.0000
  H   H1671     1.0  0.76405  0.49154  0.51598  1.0000
  H   H1672     1.0  0.90290  0.47493  0.71198  1.0000
  H   H1673     1.0  0.73817  0.09395  0.50615  1.0000
  H   H1674     1.0  0.58497  0.41420  0.71711  1.0000
  H   H1675     1.0  0.66051  0.08337  0.64358  1.0000
  C   C954      1.0  0.68362  0.32214  0.70150  1.0000
  H   H1676     1.0  0.74235  0.08894  0.71035  1.0000
  H   H1677     1.0  0.72961  0.30561  0.71937  1.0000
  H   H1678     1.0  0.77224  0.13854  0.49449  1.0000
  H   H1679     1.0  0.71044  0.04143  0.50859  1.0000
  H   H1680     1.0  0.81807  0.22208  0.68285  1.0000
  C   C955      1.0  0.71950  0.04189  0.52671  1.0000
  C   C956      1.0  0.68202  0.22982  0.56943  1.0000
  H   H1681     1.0  0.71668  0.26940  0.58038  1.0000
  H   H1682     1.0  0.84934  0.13130  0.50726  1.0000
  C   C957      1.0  0.66939  0.16816  0.54727  1.0000
  H   H1683     1.0  0.69396  0.23367  0.69677  1.0000
  H   H1684     1.0  0.80609  0.48138  0.61314  1.0000
  C   C958      1.0  0.71386  0.48214  0.62107  1.0000
  H   H1685     1.0  0.76614  0.37481  0.68141  1.0000
  H   H1686     1.0  0.76558  0.34676  0.64324  1.0000
  H   H1687     1.0  0.79611  0.11196  0.50712  1.0000
  C   C959      1.0  0.76097  0.48306  0.55422  1.0000
  H   H1688     1.0  0.75284  0.31096  0.65263  1.0000
  H   H1689     1.0  0.66621  0.23771  0.49700  1.0000
  S   S221      1.0  0.61725  0.24710  0.49938  1.0000
  H   H1690     1.0  0.63432  0.18842  0.54721  1.0000
  H   H1691     1.0  0.65816  0.00290  0.72342  1.0000
  C   C960      1.0  0.68363  0.19237  0.52877  1.0000
  C   C961      1.0  0.73962  0.47608  0.57463  1.0000
  H   H1692     1.0  0.77087  0.34554  0.72830  1.0000
  H   H1693     1.0  0.51055  0.31014  0.53254  1.0000
  H   H1694     1.0  0.73011  0.46537  0.52545  1.0000
  C   C962      1.0  0.76389  0.35561  0.69102  1.0000
  H   H1695     1.0  0.66551  0.01646  0.64729  1.0000
  H   H1696     1.0  0.74847  0.31514  0.60903  1.0000
  C   C963      1.0  0.81070  0.20431  0.69581  1.0000
  H   H1697     1.0  0.55976  0.32660  0.72285  1.0000
  H   H1698     1.0  0.56621  0.38305  0.70000  1.0000
  H   H1699     1.0  0.71412  0.29696  0.62218  1.0000
  C   C964      1.0  0.72576  0.32979  0.66274  1.0000
  C   C965      1.0  0.65579  0.01932  0.66369  1.0000
  C   C966      1.0  0.64001  0.19914  0.52956  1.0000
  H   H1700     1.0  0.68981  0.27727  0.68691  1.0000
  S   S222      1.0  0.93234  0.49305  0.66636  1.0000
  H   H1701     1.0  0.87770  0.27606  0.55491  1.0000
  H   H1702     1.0  0.71011  0.43207  0.49202  1.0000
  H   H1703     1.0  0.67744  0.25249  0.53854  1.0000
  H   H1704     1.0  0.65970  0.21755  0.57441  1.0000
  H   H1705     1.0  0.89762  0.26474  0.52042  1.0000
  N   N54       1.0  0.74777  0.46842  0.59857  1.0000
  H   H1706     1.0  0.63274  0.00787  0.66030  1.0000
  C   C967      1.0  0.77340  0.12705  0.59997  1.0000
  C   C968      1.0  0.81383  0.44137  0.55377  1.0000
  H   H1707     1.0  0.81689  0.42966  0.56845  1.0000
  H   H1708     1.0  0.78209  0.40492  0.53640  1.0000
  C   C969      1.0  0.72384  0.08976  0.71686  1.0000
  H   H1709     1.0  0.77493  0.11362  0.61467  1.0000
  H   H1710     1.0  0.63040  0.04958  0.64144  1.0000
  H   H1711     1.0  0.71741  0.27436  0.67178  1.0000
  H   H1712     1.0  0.99159  0.47911  0.68183  1.0000
  H   H1713     1.0  0.72729  0.45129  0.63217  1.0000
  C   C970      1.0  0.73320  0.31738  0.62084  1.0000
  C   C971      1.0  0.54060  0.42876  0.71886  1.0000
  H   H1714     1.0  0.54278  0.43896  0.70096  1.0000
  C   C972      1.0  0.79029  0.44231  0.51636  1.0000
  C   C973      1.0  0.77202  0.49331  0.60989  1.0000
  H   H1715     1.0  0.72353  0.12875  0.51318  1.0000
  H   H1716     1.0  0.52602  0.22642  0.61777  1.0000
  H   H1717     1.0  0.79185  0.14797  0.60122  1.0000
  H   H1718     1.0  0.72767  0.25432  0.71042  1.0000
  C   C974      1.0  0.71556  0.34182  0.70218  1.0000
  C   C975      1.0  0.65371  0.06061  0.64250  1.0000
  H   H1719     1.0  0.68303  0.18210  0.51155  1.0000
  H   H1720     1.0  0.87018  0.16103  0.52547  1.0000
  C   C976      1.0  0.50698  0.23206  0.57190  1.0000
  H   H1721     1.0  0.80394  0.48290  0.49999  1.0000
  C   C977      1.0  0.78764  0.20468  0.71126  1.0000
  C   C978      1.0  0.73287  0.30613  0.69974  1.0000
  H   H1722     1.0  0.65552  0.05620  0.68043  1.0000
  H   H1723     1.0  0.50113  0.18797  0.49274  1.0000
  C   C979      1.0  0.77571  0.17928  0.72871  1.0000
  N   N55       1.0  0.66405  0.00719  0.68520  1.0000
  H   H1724     1.0  0.73606  0.49474  0.57615  1.0000
  S   S223      1.0  0.85777  0.48337  0.64561  1.0000
  H   H1725     1.0  0.53382  0.22256  0.53598  1.0000
  H   H1726     1.0  0.76549  0.37619  0.72494  1.0000
  C   C980      1.0  0.88280  0.29029  0.53916  1.0000
  H   H1727     1.0  0.77087  0.20429  0.69908  1.0000
  C   C981      1.0  0.70705  0.25359  0.70591  1.0000
  C   C982      1.0  0.70816  0.24179  0.49343  1.0000
  H   H1728     1.0  0.66469  0.37051  0.50359  1.0000
  H   H1729     1.0  0.71127  0.31090  0.50004  1.0000
  H   H1730     1.0  0.57759  0.27013  0.49482  1.0000
  H   H1731     1.0  0.88756  0.36322  0.48985  1.0000
  H   H1732     1.0  0.62447  0.03549  0.73481  1.0000
  H   H1733     1.0  0.64493  0.31979  0.71499  1.0000
  C   C983      1.0  0.77526  0.36411  0.71686  1.0000
  H   H1734     1.0  0.67369  0.15695  0.71876  1.0000
  H   H1735     1.0  0.76575  0.16009  0.71769  1.0000
  H   H1736     1.0  0.67532  0.34034  0.73304  1.0000
  H   H1737     1.0  0.82888  0.20640  0.70706  1.0000
  C   C984      1.0  0.61373  0.01252  0.73252  1.0000
  H   H1738     1.0  0.56067  0.44189  0.72844  1.0000
  H   H1739     1.0  0.55737  0.48403  0.72731  1.0000
  H   H1740     1.0  0.67229  0.41814  0.48892  1.0000
  H   H1741     1.0  0.70659  0.48919  0.60482  1.0000
  H   H1742     1.0  0.49275  0.45235  0.73203  1.0000
  S   S224      1.0  0.76475  0.42444  0.49441  1.0000
  H   H1743     1.0  0.77074  0.49150  0.62979  1.0000
  H   H1744     1.0  0.88571  0.47552  0.49032  1.0000
  H   H1745     1.0  0.79694  0.22468  0.72095  1.0000
  H   H1746     1.0  0.68773  0.19413  0.72291  1.0000
  H   H1747     1.0  0.86080  0.48939  0.49321  1.0000
  H   H1748     1.0  0.73644  0.19888  0.72336  1.0000
  H   H1749     1.0  0.66827  0.30552  0.50908  1.0000
  C   C985      1.0  0.68464  0.37352  0.49526  1.0000
  C   C986      1.0  0.92435  0.49025  0.71550  1.0000
  C   C987      1.0  0.73024  0.17869  0.73307  1.0000
  C   C988      1.0  0.68058  0.17369  0.73223  1.0000
  H   H1750     1.0  0.69645  0.25408  0.72263  1.0000
  H   H1751     1.0  0.76212  0.34513  0.49746  1.0000
  N   N56       1.0  0.68447  0.34585  0.49098  1.0000
  H   H1752     1.0  0.53569  0.48615  0.75076  1.0000
  Fe  Fe112     1.0  0.67928  0.02411  0.78988  1.0000
  H   H1753     1.0  0.78627  0.15690  0.77387  1.0000
  H   H1754     1.0  0.72162  0.01745  0.93962  1.0000
  H   H1755     1.0  0.82962  0.09644  0.91246  1.0000
  H   H1756     1.0  0.95918  0.01276  0.96538  1.0000
  H   H1757     1.0  0.52992  0.39117  0.80616  1.0000
  H   H1758     1.0  0.73604  0.04549  0.91795  1.0000
  C   C989      1.0  0.77192  0.08314  0.98519  1.0000
  H   H1759     1.0  0.72209  0.01326  0.98227  1.0000
  H   H1760     1.0  0.78052  0.06519  0.92804  1.0000
  S   S225      1.0  0.72169  0.02571  0.79610  1.0000
  Fe  Fe113     1.0  0.85837  0.04520  0.94865  1.0000
  C   C990      1.0  0.83568  0.10708  0.92994  1.0000
  S   S226      1.0  0.84636  0.04997  0.91005  1.0000
  C   C991      1.0  0.80663  0.23919  0.78786  1.0000
  H   H1761     1.0  0.76841  0.13062  0.75206  1.0000
  C   C992      1.0  0.75648  0.01842  0.87937  1.0000
  H   H1762     1.0  0.78308  0.09759  0.93634  1.0000
  C   C993      1.0  0.78820  0.01869  0.91171  1.0000
  C   C994      1.0  0.81156  0.03656  0.89834  1.0000
  H   H1763     1.0  0.79528  0.12508  0.96894  1.0000
  H   H1764     1.0  0.72663  0.13517  0.75299  1.0000
  S   S227      1.0  0.82700  0.01870  0.97601  1.0000
  N   N57       1.0  0.76474  0.06507  0.96340  1.0000
  H   H1765     1.0  0.75276  0.12806  0.80505  1.0000
  H   H1766     1.0  0.66222  0.17002  0.74336  1.0000
  H   H1767     1.0  0.82036  0.06986  0.95165  1.0000
  C   C995      1.0  0.76711  0.20455  0.76216  1.0000
  S   S228      1.0  0.67117  0.05884  0.77348  1.0000
  H   H1768     1.0  0.75180  0.20299  0.77598  1.0000
  H   H1769     1.0  0.82338  0.10029  0.96660  1.0000
  C   C996      1.0  0.81666  0.08847  0.94976  1.0000
  H   H1770     1.0  0.81109  0.21111  0.76397  1.0000
  N   N58       1.0  0.75498  0.17892  0.74681  1.0000
  C   C997      1.0  0.77714  0.11362  0.98087  1.0000
  H   H1771     1.0  0.82517  0.05815  0.86458  1.0000
  H   H1772     1.0  0.69383  0.05315  0.92118  1.0000
  H   H1773     1.0  0.82603  0.24292  0.79803  1.0000
  C   C998      1.0  0.50775  0.32853  0.75650  1.0000
  C   C999      1.0  0.79465  0.21076  0.77591  1.0000
  H   H1774     1.0  0.49547  0.49034  0.87069  1.0000
  C   C1000     1.0  0.53318  0.32834  0.75084  1.0000
  C   C1001     1.0  0.72312  0.03800  0.93427  1.0000
  H   H1775     1.0  0.79124  0.23998  0.80048  1.0000
  H   H1776     1.0  0.81209  0.25611  0.77421  1.0000
  H   H1777     1.0  0.54756  0.32930  0.76507  1.0000
  C   C1002     1.0  0.68737  0.07631  0.74671  1.0000
  C   C1003     1.0  0.52159  0.43028  0.75884  1.0000
  H   H1778     1.0  0.76872  0.10913  0.79093  1.0000
  H   H1779     1.0  0.68526  0.01813  0.91268  1.0000
  S   S229      1.0  0.89023  0.02999  0.95849  1.0000
  H   H1780     1.0  0.50405  0.43176  0.76816  1.0000
  H   H1781     1.0  0.77689  0.04230  0.84800  1.0000
  H   H1782     1.0  0.79042  0.19495  0.79032  1.0000
  H   H1783     1.0  0.77051  0.22339  0.75133  1.0000
  H   H1784     1.0  0.85780  0.11174  0.93392  1.0000
  C   C1004     1.0  0.77986  0.03543  0.86564  1.0000
  S   S230      1.0  0.49981  0.33030  0.78697  1.0000
  H   H1785     1.0  0.73571  0.15549  0.77914  1.0000
  C   C1005     1.0  0.80723  0.04452  0.87514  1.0000
  C   C1006     1.0  0.70408  0.17350  0.74808  1.0000
  C   C1007     1.0  0.76594  0.03845  0.97032  1.0000
  C   C1008     1.0  0.52682  0.40857  0.79801  1.0000
  H   H1786     1.0  0.65803  0.09305  0.74070  1.0000
  H   H1787     1.0  0.70938  0.18997  0.76156  1.0000
  C   C1009     1.0  0.74446  0.15262  0.76211  1.0000
  H   H1788     1.0  0.91937  0.48824  0.75381  1.0000
  H   H1789     1.0  0.71973  0.06306  0.74751  1.0000
  H   H1790     1.0  0.54435  0.42861  0.80387  1.0000
  S   S231      1.0  0.87931  0.08236  0.97264  1.0000
  H   H1791     1.0  0.73319  0.10170  0.78331  1.0000
  S   S232      1.0  0.66311  0.00548  0.82632  1.0000
  C   C1010     1.0  0.78530  0.07928  0.94352  1.0000
  C   C1011     1.0  0.52609  0.40645  0.77079  1.0000
  H   H1792     1.0  0.67921  0.02481  0.94292  1.0000
  C   C1012     1.0  0.75426  0.11858  0.78806  1.0000
  H   H1793     1.0  0.96278  0.04335  0.94896  1.0000
  S   S233      1.0  0.72163  0.00974  0.86976  1.0000
  H   H1794     1.0  0.69538  0.15297  0.75746  1.0000
  H   H1795     1.0  0.79133  0.01186  0.92930  1.0000
  H   H1796     1.0  0.50668  0.40701  0.80459  1.0000
  Fe  Fe114     1.0  0.70430  0.00379  0.83135  1.0000
  C   C1013     1.0  0.96523  0.03531  0.96683  1.0000
  H   H1797     1.0  0.76425  0.02602  0.95427  1.0000
  H   H1798     1.0  0.83442  0.12706  0.92864  1.0000
  H   H1799     1.0  0.50921  0.38565  0.76613  1.0000
  C   C1014     1.0  0.76083  0.00982  0.90232  1.0000
  H   H1800     1.0  0.54657  0.40792  0.76535  1.0000
  H   H1801     1.0  0.54093  0.44956  0.76336  1.0000
  C   C1015     1.0  0.76540  0.14069  0.76815  1.0000
  H   H1802     1.0  0.72066  0.05256  0.96968  1.0000
  C   C1016     1.0  0.69351  0.03332  0.92746  1.0000
  H   H1803     1.0  0.73604  0.07911  0.94779  1.0000
  C   C1017     1.0  0.73580  0.05948  0.95466  1.0000
  Fe  Fe115     1.0  0.90819  0.06473  0.98535  1.0000
  C   C1018     1.0  0.71106  0.07507  0.73791  1.0000
  H   H1804     1.0  0.75835  0.11425  0.97278  1.0000
  H   H1805     1.0  0.95070  0.03781  0.97932  1.0000
  H   H1806     1.0  0.78685  0.04329  0.97837  1.0000
  H   H1807     1.0  0.61958  0.00257  0.74772  1.0000
  H   H1808     1.0  0.74294  0.99633  0.91295  1.0000
  H   H1809     1.0  0.79403  0.17837  0.73745  1.0000
  H   H1810     1.0  0.96503  0.61217  0.02894  1.0000
  C   C1019     1.0  0.90703  0.83919  0.18524  1.0000
  S   S234      1.0  0.52969  0.74698  0.99766  1.0000
  H   H1811     1.0  0.71216  0.90697  0.23082  1.0000
  H   H1812     1.0  0.98003  0.87210  0.23177  1.0000
  Fe  Fe116     1.0  0.67967  0.90254  0.11376  1.0000
  S   S235      1.0  0.70423  0.90375  0.14748  1.0000
  S   S236      1.0  0.64286  0.86178  0.10186  1.0000
  Fe  Fe117     1.0  0.71412  0.96374  0.10436  1.0000
  S   S237      1.0  0.74131  0.97032  0.13675  1.0000
  Fe  Fe118     1.0  0.74234  0.93089  0.12612  1.0000
  S   S238      1.0  0.78560  0.93390  0.13235  1.0000
  Fe  Fe119     1.0  0.70177  0.94325  0.15652  1.0000
  H   H1813     1.0  0.66953  0.82430  0.12186  1.0000
  S   S239      1.0  0.71836  0.92669  0.09173  1.0000
  S   S240      1.0  0.67396  0.93965  0.12462  1.0000
  H   H1814     1.0  0.95277  0.69856  0.03515  1.0000
  C   C1020     1.0  0.64734  0.78624  0.01744  1.0000
  H   H1815     1.0  0.66457  0.99102  0.13894  1.0000
  H   H1816     1.0  0.77013  0.80341  0.02380  1.0000
  H   H1817     1.0  0.82012  0.97961  0.05785  1.0000
  Fe  Fe120     1.0  0.88044  0.87092  0.09349  1.0000
  S   S241      1.0  0.90810  0.91652  0.09937  1.0000
  S   S242      1.0  0.83304  0.85428  0.09281  1.0000
  Fe  Fe121     1.0  0.93029  0.85800  0.08640  1.0000
  S   S243      1.0  0.96123  0.90288  0.09223  1.0000
  S   S244      1.0  0.95018  0.82868  0.08191  1.0000
  Fe  Fe122     1.0  0.93388  0.90221  0.12230  1.0000
  S   S245      1.0  0.95562  0.92363  0.15640  1.0000
  Fe  Fe123     1.0  0.93262  0.91292  0.06890  1.0000
  S   S246      1.0  0.94930  0.94639  0.04052  1.0000
  S   S247      1.0  0.90478  0.85647  0.11870  1.0000
  S   S248      1.0  0.90325  0.86827  0.06084  1.0000
  C   C1021     1.0  0.96607  0.79536  0.01141  1.0000
  C   C1022     1.0  0.94375  0.80225  0.01294  1.0000
  C   C1023     1.0  0.93862  0.81258  0.03429  1.0000
  C   C1024     1.0  0.95603  0.81648  0.05428  1.0000
  C   C1025     1.0  0.97868  0.81014  0.05254  1.0000
  H   H1818     1.0  0.77536  0.83489  0.00800  1.0000
  H   H1819     1.0  0.95808  0.84583  0.16629  1.0000
  H   H1820     1.0  0.92108  0.81732  0.03528  1.0000
  H   H1821     1.0  0.95707  0.53963  0.23104  1.0000
  H   H1822     1.0  0.91905  0.96501  0.14314  1.0000
  C   C1026     1.0  0.92060  0.94920  0.02732  1.0000
  C   C1027     1.0  0.92512  0.96933  0.00949  1.0000
  H   H1823     1.0  0.83922  0.95228  0.17901  1.0000
  C   C1028     1.0  0.87528  0.95621  0.00809  1.0000
  C   C1029     1.0  0.87057  0.93526  0.02521  1.0000
  C   C1030     1.0  0.89323  0.93200  0.03504  1.0000
  H   H1824     1.0  0.98623  0.82345  0.13357  1.0000
  H   H1825     1.0  0.96895  0.86325  0.00890  1.0000
  H   H1826     1.0  0.84945  0.92186  0.03121  1.0000
  H   H1827     1.0  0.88939  0.91611  0.04856  1.0000
  C   C1031     1.0  0.91835  0.50047  0.22975  1.0000
  H   H1828     1.0  0.71066  0.88242  0.01058  1.0000
  C   C1032     1.0  0.94434  0.88465  0.00237  1.0000
  H   H1829     1.0  0.74793  0.93582  0.20075  1.0000
  H   H1830     1.0  0.76174  0.89683  0.23351  1.0000
  C   C1033     1.0  0.79738  0.91032  0.12219  1.0000
  C   C1034     1.0  0.78071  0.88775  0.10777  1.0000
  C   C1035     1.0  0.79172  0.87044  0.09902  1.0000
  C   C1036     1.0  0.81939  0.87569  0.10464  1.0000
  C   C1037     1.0  0.83568  0.89782  0.11962  1.0000
  C   C1038     1.0  0.82473  0.91506  0.12831  1.0000
  H   H1831     1.0  0.75960  0.88404  0.10320  1.0000
  H   H1832     1.0  0.77906  0.85313  0.08764  1.0000
  H   H1833     1.0  0.85663  0.90148  0.12473  1.0000
  H   H1834     1.0  0.83762  0.93226  0.13972  1.0000
  C   C1039     1.0  0.68427  0.82056  0.11052  1.0000
  C   C1040     1.0  0.97981  0.74180  0.08485  1.0000
  H   H1835     1.0  0.67439  0.79807  0.10609  1.0000
  H   H1836     1.0  0.97571  0.70016  0.11537  1.0000
  C   C1041     1.0  0.63010  0.85293  0.07207  1.0000
  C   C1042     1.0  0.60725  0.82668  0.06771  1.0000
  C   C1043     1.0  0.59668  0.81863  0.04433  1.0000
  C   C1044     1.0  0.60906  0.83670  0.02497  1.0000
  C   C1045     1.0  0.63217  0.86284  0.02929  1.0000
  C   C1046     1.0  0.64254  0.87099  0.05270  1.0000
  H   H1837     1.0  0.59752  0.81252  0.08255  1.0000
  H   H1838     1.0  0.64191  0.87699  0.01446  1.0000
  H   H1839     1.0  0.65998  0.89129  0.05581  1.0000
  H   H1840     1.0  0.79911  0.96937  0.20534  1.0000
  H   H1841     1.0  0.93985  0.90084  0.01031  1.0000
  C   C1047     1.0  0.68990  0.97662  0.20921  1.0000
  C   C1048     1.0  0.91542  0.56900  0.18211  1.0000
  C   C1049     1.0  0.88225  0.99456  0.11107  1.0000
  N   N59       1.0  0.79865  0.93118  0.21836  1.0000
  C   C1050     1.0  0.94688  0.93676  0.20130  1.0000
  C   C1051     1.0  0.93473  0.92666  0.17892  1.0000
  C   C1052     1.0  0.90651  0.91985  0.17474  1.0000
  C   C1053     1.0  0.89078  0.92385  0.19271  1.0000
  H   H1842     1.0  0.96857  0.94176  0.20472  1.0000
  H   H1843     1.0  0.89694  0.91194  0.15753  1.0000
  H   H1844     1.0  0.86924  0.91919  0.18914  1.0000
  H   H1845     1.0  0.88147  0.95333  0.11199  1.0000
  C   C1054     1.0  0.96616  0.88018  0.01733  1.0000
  H   H1846     1.0  0.86551  0.98831  0.12467  1.0000
  C   C1055     1.0  0.80713  0.90931  0.21116  1.0000
  H   H1847     1.0  0.98663  0.59372  0.05913  1.0000
  N   N60       1.0  0.71427  0.84683  0.04667  1.0000
  C   C1056     1.0  0.71147  0.83487  0.07168  1.0000
  C   C1057     1.0  0.73994  0.84736  0.03535  1.0000
  C   C1058     1.0  0.71953  0.87680  0.04852  1.0000
  C   C1059     1.0  0.68820  0.83127  0.03143  1.0000
  C   C1060     1.0  0.67066  0.79948  0.03622  1.0000
  C   C1061     1.0  0.69019  0.83845  0.08778  1.0000
  C   C1062     1.0  0.72633  0.89386  0.02470  1.0000
  C   C1063     1.0  0.74101  0.81922  0.03364  1.0000
  C   C1064     1.0  0.89647  0.97536  0.11538  1.0000
  H   H1848     1.0  0.82424  0.98380  0.15650  1.0000
  C   C1065     1.0  0.72643  0.92201  0.02771  1.0000
  H   H1849     1.0  0.73208  0.84460  0.08114  1.0000
  H   H1850     1.0  0.70568  0.81234  0.07149  1.0000
  H   H1851     1.0  0.94062  0.94809  0.23649  1.0000
  H   H1852     1.0  0.75923  0.86209  0.04522  1.0000
  H   H1853     1.0  0.73713  0.88833  0.06133  1.0000
  H   H1854     1.0  0.70079  0.87769  0.05590  1.0000
  H   H1855     1.0  0.67316  0.84011  0.03356  1.0000
  H   H1856     1.0  0.93921  0.54989  0.19783  1.0000
  H   H1857     1.0  0.66032  0.79559  0.05386  1.0000
  H   H1858     1.0  0.97911  0.89735  0.21169  1.0000
  H   H1859     1.0  0.69874  0.86050  0.09340  1.0000
  H   H1860     1.0  0.67007  0.83261  0.07810  1.0000
  H   H1861     1.0  0.90440  0.56883  0.22941  1.0000
  H   H1862     1.0  0.74754  0.89832  0.01838  1.0000
  H   H1863     1.0  0.73700  0.80789  0.05099  1.0000
  C   C1066     1.0  0.98395  0.62635  0.03821  1.0000
  H   H1864     1.0  0.80357  0.89409  0.22603  1.0000
  C   C1067     1.0  0.98363  0.79950  0.03134  1.0000
  H   H1865     1.0  0.97203  0.82932  0.21815  1.0000
  C   C1068     1.0  0.93101  0.94033  0.21938  1.0000
  C   C1069     1.0  0.97806  0.72051  0.06581  1.0000
  C   C1070     1.0  0.76800  0.91791  0.22547  1.0000
  H   H1866     1.0  0.79166  0.85986  0.16637  1.0000
  H   H1867     1.0  0.73169  0.93362  0.01041  1.0000
  H   H1868     1.0  0.74231  0.85548  0.01667  1.0000
  C   C1071     1.0  0.91177  0.55312  0.22553  1.0000
  H   H1869     1.0  0.93042  0.81973  0.20129  1.0000
  C   C1072     1.0  0.99199  0.80649  0.13802  1.0000
  H   H1870     1.0  0.90765  0.58429  0.18642  1.0000
  H   H1871     1.0  0.80451  0.85926  0.19633  1.0000
  H   H1872     1.0  0.85104  0.97643  0.20323  1.0000
  H   H1873     1.0  0.83953  0.96381  0.04481  1.0000
  H   H1874     1.0  0.69372  0.83432  0.01214  1.0000
  H   H1875     1.0  0.70061  0.89587  0.20084  1.0000
  H   H1876     1.0  0.98973  0.92133  0.03092  1.0000
  H   H1877     1.0  0.63463  0.76368  0.02158  1.0000
  H   H1878     1.0  0.63314  0.79619  0.01741  1.0000
  C   C1073     1.0  0.67292  0.98603  0.19674  1.0000
  H   H1879     1.0  0.98152  0.82418  0.18900  1.0000
  C   C1074     1.0  0.98791  0.83937  0.20388  1.0000
  H   H1880     1.0  0.98548  0.75409  0.13110  1.0000
  C   C1075     1.0  0.69883  0.98626  0.23257  1.0000
  H   H1881     1.0  0.74244  0.93471  0.04119  1.0000
  H   H1882     1.0  0.91476  0.98114  0.10358  1.0000
  H   H1883     1.0  0.84948  0.94885  0.08433  1.0000
  H   H1884     1.0  0.89252  0.53417  0.22000  1.0000
  C   C1076     1.0  0.93120  0.56452  0.20347  1.0000
  H   H1885     1.0  0.97453  0.70045  0.07444  1.0000
  H   H1886     1.0  0.78639  0.83624  0.03896  1.0000
  S   S249      1.0  0.84695  0.96117  0.99701  1.0000
  H   H1887     1.0  0.89738  0.54898  0.17684  1.0000
  C   C1077     1.0  0.90724  0.97735  0.14112  1.0000
  H   H1888     1.0  0.82597  0.88588  0.17499  1.0000
  C   C1078     1.0  0.79138  0.89167  0.18931  1.0000
  C   C1079     1.0  0.77000  0.82384  0.02557  1.0000
  H   H1889     1.0  0.96185  0.73070  0.09717  1.0000
  S   S250      1.0  0.59707  0.82745  0.99505  1.0000
  H   H1890     1.0  0.72549  0.80591  0.02013  1.0000
  H   H1891     1.0  0.66938  0.99615  0.10723  1.0000
  H   H1892     1.0  0.74840  0.90516  0.18946  1.0000
  S   S251      1.0  0.88253  0.93908  0.23717  1.0000
  H   H1893     1.0  0.90864  0.86028  0.18189  1.0000
  H   H1894     1.0  0.91682  0.57052  0.00523  1.0000
  C   C1080     1.0  0.80046  0.93502  0.05977  1.0000
  H   H1895     1.0  0.68369  0.78841  0.03616  1.0000
  H   H1896     1.0  0.91272  0.99387  0.21019  1.0000
  H   H1897     1.0  0.49276  0.55933  0.03240  1.0000
  C   C1081     1.0  0.74624  0.99251  0.99341  1.0000
  H   H1898     1.0  0.97515  0.75776  0.07559  1.0000
  H   H1899     1.0  0.78594  0.93380  0.07419  1.0000
  H   H1900     1.0  0.88944  0.96887  0.15380  1.0000
  H   H1901     1.0  0.80608  0.91763  0.06193  1.0000
  C   C1082     1.0  0.83487  0.96744  0.18902  1.0000
  H   H1902     1.0  0.79073  0.94407  0.18307  1.0000
  H   H1903     1.0  0.95856  0.87704  0.17625  1.0000
  C   C1083     1.0  0.84400  0.96646  0.08364  1.0000
  H   H1904     1.0  0.79193  0.90501  0.17389  1.0000
  H   H1905     1.0  0.92980  0.57728  0.16665  1.0000
  H   H1906     1.0  0.93362  0.70633  0.05750  1.0000
  H   H1907     1.0  0.76919  0.87773  0.19396  1.0000
  H   H1908     1.0  0.82965  0.96276  0.09884  1.0000
  C   C1084     1.0  0.80447  0.95297  0.19890  1.0000
  C   C1085     1.0  0.99058  0.88487  0.21572  1.0000
  H   H1909     1.0  0.66525  0.97818  0.17910  1.0000
  H   H1910     1.0  0.94601  0.98193  0.00296  1.0000
  C   C1086     1.0  0.96000  0.85809  0.18264  1.0000
  H   H1911     1.0  0.83010  0.91893  0.20796  1.0000
  C   C1087     1.0  0.71606  0.89727  0.21494  1.0000
  H   H1912     1.0  0.73093  0.97984  0.00731  1.0000
  H   H1913     1.0  0.88840  0.82715  0.19657  1.0000
  H   H1914     1.0  0.57899  0.79843  0.04131  1.0000
  S   S252      1.0  0.97990  0.66638  0.01083  1.0000
  C   C1088     1.0  0.95397  0.71446  0.04805  1.0000
  H   H1915     1.0  0.78959  0.93278  0.04227  1.0000
  S   S253      1.0  0.70088  0.95332  0.19620  1.0000
  H   H1916     1.0  0.93512  0.85133  0.21545  1.0000
  H   H1917     1.0  0.70401  0.82614  0.12085  1.0000
  H   H1918     1.0  0.89373  0.97722  0.06707  1.0000
  H   H1919     1.0  0.90385  0.82834  0.16796  1.0000
  H   H1920     1.0  0.94946  0.58488  0.20736  1.0000
  H   H1921     1.0  0.93016  0.79932  0.99757  1.0000
  C   C1089     1.0  0.93346  0.84132  0.19798  1.0000
  H   H1922     1.0  0.92443  0.86488  0.00178  1.0000
  H   H1923     1.0  0.71256  0.87579  0.21958  1.0000
  C   C1090     1.0  0.80424  0.87306  0.18141  1.0000
  H   H1924     1.0  0.97549  0.78641  0.10465  1.0000
  C   C1091     1.0  0.90289  0.93400  0.21513  1.0000
  H   H1925     1.0  0.70544  0.91912  0.03327  1.0000
  H   H1926     1.0  0.95731  0.87293  0.03541  1.0000
  H   H1927     1.0  0.76183  0.98603  0.06266  1.0000
  C   C1092     1.0  0.74591  0.91492  0.20583  1.0000
  C   C1093     1.0  0.82682  0.96307  0.06027  1.0000
  H   H1928     1.0  0.91022  0.50408  0.21236  1.0000
  C   C1094     1.0  0.90260  0.97329  0.00025  1.0000
  H   H1929     1.0  0.95752  0.73366  0.03779  1.0000
  N   N61       1.0  0.98792  0.86609  0.19509  1.0000
  H   H1930     1.0  0.65636  0.78846  0.99935  1.0000
  H   H1931     1.0  0.97494  0.79046  0.14897  1.0000
  C   C1095     1.0  0.83892  0.99149  0.17198  1.0000
  N   N62       1.0  0.87008  0.99388  0.08637  1.0000
  H   H1932     1.0  0.83880  0.95552  0.23623  1.0000
  Fe  Fe124     1.0  0.92663  0.94714  0.31980  1.0000
  H   H1933     1.0  0.82369  0.93277  0.30043  1.0000
  S   S254      1.0  0.93772  0.91674  0.33999  1.0000
  H   H1934     1.0  0.90957  0.52324  0.28064  1.0000
  C   C1096     1.0  0.75609  0.93962  0.31941  1.0000
  H   H1935     1.0  0.97440  0.56113  0.27784  1.0000
  Fe  Fe125     1.0  0.90297  0.95666  0.27291  1.0000
  C   C1097     1.0  0.64588  0.98310  0.37097  1.0000
  H   H1936     1.0  0.87236  0.59815  0.46143  1.0000
  C   C1098     1.0  0.94474  0.89533  0.29759  1.0000
  S   S255      1.0  0.88272  0.93656  0.30767  1.0000
  C   C1099     1.0  0.87169  0.51249  0.36847  1.0000
  H   H1937     1.0  0.88553  0.60815  0.35221  1.0000
  H   H1938     1.0  0.65004  0.96637  0.29141  1.0000
  H   H1939     1.0  0.96490  0.58724  0.35693  1.0000
  H   H1940     1.0  0.85453  0.55827  0.38642  1.0000
  H   H1941     1.0  0.92862  0.57996  0.38760  1.0000
  Fe  Fe126     1.0  0.94764  0.51608  0.33122  1.0000
  S   S256      1.0  0.82074  0.99314  0.44106  1.0000
  H   H1942     1.0  0.94310  0.65868  0.45954  1.0000
  H   H1943     1.0  0.77416  0.95806  0.31166  1.0000
  S   S257      1.0  0.82535  0.55129  0.44030  1.0000
  H   H1944     1.0  0.84788  0.96021  0.28137  1.0000
  H   H1945     1.0  0.67080  0.50935  0.33555  1.0000
  C   C1100     1.0  0.96129  0.88173  0.33360  1.0000
  H   H1946     1.0  0.82307  0.91455  0.26059  1.0000
  C   C1101     1.0  0.95471  0.88013  0.28397  1.0000
  Fe  Fe127     1.0  0.71909  0.97093  0.44430  1.0000
  C   C1102     1.0  0.90208  0.53249  0.26589  1.0000
  S   S258      1.0  0.68151  0.94140  0.42334  1.0000
  C   C1103     1.0  0.93639  0.67177  0.44824  1.0000
  H   H1947     1.0  0.72435  0.91788  0.40478  1.0000
  H   H1948     1.0  0.67332  0.85560  0.46818  1.0000
  S   S259      1.0  0.74417  0.95489  0.46642  1.0000
  C   C1104     1.0  0.86122  0.55966  0.44316  1.0000
  C   C1105     1.0  0.88002  0.58434  0.45446  1.0000
  H   H1949     1.0  0.62935  0.54487  0.40480  1.0000
  C   C1106     1.0  0.91832  0.57264  0.44889  1.0000
  C   C1107     1.0  0.89967  0.54840  0.43710  1.0000
  C   C1108     1.0  0.87129  0.54197  0.43419  1.0000
  H   H1950     1.0  0.70100  0.98852  0.29965  1.0000
  H   H1951     1.0  0.74891  0.91635  0.28645  1.0000
  H   H1952     1.0  0.90716  0.53436  0.43037  1.0000
  H   H1953     1.0  0.85729  0.52338  0.42484  1.0000
  H   H1954     1.0  0.70052  0.93421  0.37519  1.0000
  C   C1109     1.0  0.96182  0.57239  0.28068  1.0000
  C   C1110     1.0  0.95420  0.68496  0.37086  1.0000
  C   C1111     1.0  0.94741  0.57430  0.25692  1.0000
  S   S260      1.0  0.85777  0.98931  0.33366  1.0000
  C   C1112     1.0  0.72213  0.93771  0.37116  1.0000
  H   H1955     1.0  0.73967  0.95525  0.40591  1.0000
  H   H1956     1.0  0.65507  0.53543  0.41762  1.0000
  H   H1957     1.0  0.92185  0.67672  0.45870  1.0000
  C   C1113     1.0  0.92745  0.65632  0.37125  1.0000
  H   H1958     1.0  0.96338  0.88177  0.35284  1.0000
  H   H1959     1.0  0.84237  0.58244  0.37507  1.0000
  H   H1960     1.0  0.94911  0.69615  0.33401  1.0000
  C   C1114     1.0  0.90853  0.59077  0.45741  1.0000
  H   H1961     1.0  0.93907  0.58964  0.25901  1.0000
  S   S261      1.0  0.93561  0.98914  0.33457  1.0000
  H   H1962     1.0  0.77155  0.91095  0.30810  1.0000
  H   H1963     1.0  0.63022  0.92014  0.39697  1.0000
  S   S262      1.0  0.98175  0.84800  0.27775  1.0000
  H   H1964     1.0  0.75805  0.93892  0.39130  1.0000
  C   C1115     1.0  0.98341  0.99477  0.39464  1.0000
  H   H1965     1.0  0.93404  0.90589  0.28885  1.0000
  C   C1116     1.0  0.64228  0.94197  0.39224  1.0000
  H   H1966     1.0  0.91406  0.50071  0.40323  1.0000
  H   H1967     1.0  0.63214  0.91097  0.45559  1.0000
  C   C1117     1.0  0.97204  0.86728  0.31995  1.0000
  H   H1968     1.0  0.95783  0.69530  0.38842  1.0000
  H   H1969     1.0  0.94050  0.62916  0.42377  1.0000
  H   H1970     1.0  0.96174  0.66211  0.41125  1.0000
  H   H1971     1.0  0.93311  0.70838  0.35614  1.0000
  H   H1972     1.0  0.90931  0.66009  0.37579  1.0000
  C   C1118     1.0  0.74925  0.99395  0.32062  1.0000
  C   C1119     1.0  0.95145  0.70475  0.35224  1.0000
  C   C1120     1.0  0.94814  0.89629  0.32246  1.0000
  H   H1973     1.0  0.88486  0.61799  0.39631  1.0000
  H   H1974     1.0  0.56986  0.89074  0.43910  1.0000
  H   H1975     1.0  0.92340  0.64904  0.35247  1.0000
  H   H1976     1.0  0.78993  0.91386  0.26667  1.0000
  H   H1977     1.0  0.65830  0.98113  0.32069  1.0000
  H   H1978     1.0  0.89783  0.58313  0.36017  1.0000
  H   H1979     1.0  0.59994  0.92264  0.42988  1.0000
  C   C1121     1.0  0.98173  0.60139  0.28988  1.0000
  H   H1980     1.0  0.99185  0.59937  0.30679  1.0000
  C   C1122     1.0  0.73820  0.96590  0.35754  1.0000
  H   H1981     1.0  0.90602  0.56675  0.28902  1.0000
  H   H1982     1.0  0.64370  0.94377  0.31727  1.0000
  H   H1983     1.0  0.97306  0.68252  0.36644  1.0000
  H   H1984     1.0  0.63058  0.85990  0.48521  1.0000
  C   C1123     1.0  0.58356  0.91287  0.44373  1.0000
  H   H1985     1.0  0.84707  0.55917  0.35498  1.0000
  C   C1124     1.0  0.73703  0.93752  0.39468  1.0000
  S   S263      1.0  0.95275  0.57779  0.45480  1.0000
  H   H1986     1.0  0.86482  0.98354  0.42171  1.0000
  C   C1125     1.0  0.89957  0.61031  0.38983  1.0000
  H   H1987     1.0  0.81444  0.95875  0.28829  1.0000
  H   H1988     1.0  0.68692  0.95168  0.29453  1.0000
  C   C1126     1.0  0.85569  0.57218  0.37109  1.0000
  C   C1127     1.0  0.84739  0.98944  0.36367  1.0000
  C   C1128     1.0  0.94934  0.59870  0.38851  1.0000
  C   C1129     1.0  0.96874  0.86640  0.29510  1.0000
  N   N63       1.0  0.92480  0.54708  0.24762  1.0000
  S   S264      1.0  0.94605  0.96393  0.28427  1.0000
  H   H1989     1.0  0.94560  0.52259  0.25875  1.0000
  C   C1130     1.0  0.68783  0.96749  0.30735  1.0000
  H   H1990     1.0  0.95575  0.60245  0.40749  1.0000
  H   H1991     1.0  0.73568  0.98172  0.36833  1.0000
  H   H1992     1.0  0.87063  0.52111  0.30695  1.0000
  H   H1993     1.0  0.92276  0.60926  0.46685  1.0000
  H   H1994     1.0  0.76160  0.93680  0.33812  1.0000
  H   H1995     1.0  0.89924  0.59511  0.40376  1.0000
  H   H1996     1.0  0.72039  0.91969  0.36086  1.0000
  H   H1997     1.0  0.88283  0.56115  0.26379  1.0000
  H   H1998     1.0  0.95172  0.87923  0.26480  1.0000
  H   H1999     1.0  0.81166  0.96367  0.24465  1.0000
  C   C1131     1.0  0.81522  0.99479  0.39143  1.0000
  H   H2000     1.0  0.71074  0.92299  0.32262  1.0000
  H   H2001     1.0  0.61025  0.93742  0.47180  1.0000
  C   C1132     1.0  0.63315  0.52705  0.41070  1.0000
  C   C1133     1.0  0.75240  0.91388  0.30579  1.0000
  H   H2002     1.0  0.90132  0.63915  0.43080  1.0000
  N   N64       1.0  0.72896  0.96667  0.33202  1.0000
  C   C1134     1.0  0.97050  0.59171  0.37610  1.0000
  H   H2003     1.0  0.74508  0.99403  0.30105  1.0000
  C   C1135     1.0  0.72892  0.94324  0.31771  1.0000
  H   H2004     1.0  0.69764  0.97817  0.34482  1.0000
  C   C1136     1.0  0.94854  0.62465  0.37665  1.0000
  C   C1137     1.0  0.81227  0.92775  0.26273  1.0000
  C   C1138     1.0  0.65814  0.96440  0.30942  1.0000
  C   C1139     1.0  0.93956  0.64552  0.41199  1.0000
  H   H2005     1.0  0.97046  0.64173  0.37731  1.0000
  N   N65       1.0  0.92876  0.63415  0.38745  1.0000
  H   H2006     1.0  0.98234  0.85634  0.32873  1.0000
  Fe  Fe128     1.0  0.79631  0.50549  0.43461  1.0000
  C   C1140     1.0  0.69946  0.96358  0.33203  1.0000
  H   H2007     1.0  0.72557  0.94621  0.29838  1.0000
  H   H2008     1.0  0.73434  0.89486  0.31288  1.0000
  H   H2009     1.0  0.59748  0.51466  0.37108  1.0000
  C   C1141     1.0  0.82533  0.94602  0.28448  1.0000
  H   H2010     1.0  0.94360  0.62005  0.35735  1.0000
  H   H2011     1.0  0.76109  0.97208  0.35847  1.0000
  C   C1142     1.0  0.68628  0.87835  0.47085  1.0000
  H   H2012     1.0  0.65793  0.88948  0.45188  1.0000
  H   H2013     1.0  0.57052  0.92405  0.44363  1.0000
  Fe  Fe129     1.0  0.99014  0.62035  0.45774  1.0000
  C   C1143     1.0  0.62903  0.50764  0.38987  1.0000
  H   H2014     1.0  0.94647  0.56129  0.29492  1.0000
  C   C1144     1.0  0.92169  0.65670  0.42545  1.0000
  C   C1145     1.0  0.88605  0.59403  0.36667  1.0000
  H   H2015     1.0  0.97066  0.72515  0.35263  1.0000
  H   H2016     1.0  0.95499  0.69165  0.44372  1.0000
  C   C1146     1.0  0.66788  0.89326  0.46990  1.0000
  H   H2017     1.0  0.60935  0.94304  0.37022  1.0000
  C   C1147     1.0  0.63054  0.95488  0.37707  1.0000
  S   S265      1.0  0.91864  0.53377  0.34087  1.0000
  H   H2018     1.0  0.96997  0.61334  0.29356  1.0000
  H   H2019     1.0  0.87899  0.53356  0.37451  1.0000
  H   H2020     1.0  0.91732  0.67153  0.41431  1.0000
  C   C1148     1.0  0.66901  0.95749  0.40212  1.0000
  H   H2021     1.0  0.68167  0.91592  0.47198  1.0000
  H   H2022     1.0  0.68451  0.94252  0.33891  1.0000
  H   H2023     1.0  0.97042  0.57291  0.38473  1.0000
  H   H2024     1.0  0.64150  0.97615  0.43545  1.0000
  C   C1149     1.0  0.68471  0.98562  0.39567  1.0000
  C   C1150     1.0  0.86188  0.98544  0.38323  1.0000
  H   H2025     1.0  0.99202  0.60927  0.37755  1.0000
  H   H2026     1.0  0.62955  0.51995  0.33785  1.0000
  C   C1151     1.0  0.85325  0.98638  0.40672  1.0000
  Fe  Fe130     1.0  0.89259  0.97979  0.31969  1.0000
  H   H2027     1.0  0.87989  0.98184  0.38028  1.0000
  H   H2028     1.0  0.60287  0.87822  0.46211  1.0000
  H   H2029     1.0  0.66471  0.52416  0.30819  1.0000
  C   C1152     1.0  0.81602  0.94602  0.23996  1.0000
  C   C1153     1.0  0.62720  0.50071  0.32914  1.0000
  H   H2030     1.0  0.71179  0.97897  0.24249  1.0000
  Fe  Fe131     1.0  0.78103  0.99439  0.45356  1.0000
  H   H2031     1.0  0.70210  0.88673  0.45641  1.0000
  C   C1154     1.0  0.65596  0.50562  0.32030  1.0000
  H   H2032     1.0  0.92413  0.52394  0.48487  1.0000
  C   C1155     1.0  0.59709  0.91491  0.46839  1.0000
  C   C1156     1.0  0.61561  0.89968  0.46908  1.0000
  H   H2033     1.0  0.61898  0.98639  0.45153  1.0000
  H   H2034     1.0  0.96471  0.58400  0.24379  1.0000
  H   H2035     1.0  0.61338  0.49717  0.31316  1.0000
  C   C1157     1.0  0.88998  0.55059  0.27749  1.0000
  C   C1158     1.0  0.64067  0.99363  0.44492  1.0000
  H   H2036     1.0  0.85760  0.54631  0.30246  1.0000
  H   H2037     1.0  0.76463  0.93020  0.23972  1.0000
  C   C1159     1.0  0.82988  0.99098  0.41101  1.0000
  H   H2038     1.0  0.96234  0.97702  0.39129  1.0000
  H   H2039     1.0  0.53363  0.50008  0.33335  1.0000
  C   C1160     1.0  0.88772  0.50658  0.35228  1.0000
  H   H2040     1.0  0.98345  0.96353  0.35849  1.0000
  H   H2041     1.0  0.64490  0.51980  0.37622  1.0000
  C   C1161     1.0  0.86480  0.53274  0.29319  1.0000
  C   C1162     1.0  0.93790  0.52837  0.24206  1.0000
  Fe  Fe132     1.0  0.98428  0.51247  0.29185  1.0000
  H   H2042     1.0  0.61866  0.51553  0.42548  1.0000
  H   H2043     1.0  0.57992  0.90597  0.48156  1.0000
  H   H2044     1.0  0.65864  0.94128  0.48573  1.0000
  H   H2045     1.0  0.84713  0.51759  0.28219  1.0000
  H   H2046     1.0  0.88401  0.51439  0.25771  1.0000
  S   S266      1.0  0.71247  0.99359  0.47437  1.0000
  C   C1163     1.0  0.82405  0.99418  0.36793  1.0000
  H   H2047     1.0  0.73897  0.85093  0.62552  1.0000
  H   H2048     1.0  0.67997  0.80507  0.63886  1.0000
  N   N66       1.0  0.53813  0.88046  0.69824  1.0000
  H   H2049     1.0  0.98511  0.53129  0.68682  1.0000
  S   S267      1.0  0.72669  0.96920  0.53495  1.0000
  Fe  Fe133     1.0  0.61428  0.84254  0.66979  1.0000
  S   S268      1.0  0.60394  0.85823  0.63526  1.0000
  S   S269      1.0  0.61864  0.86212  0.70566  1.0000
  Fe  Fe134     1.0  0.59787  0.78425  0.65083  1.0000
  S   S270      1.0  0.58694  0.79556  0.61458  1.0000
  S   S271      1.0  0.59079  0.73970  0.65755  1.0000
  Fe  Fe135     1.0  0.62623  0.83653  0.61798  1.0000
  S   S272      1.0  0.65378  0.84996  0.58459  1.0000
  Fe  Fe136     1.0  0.56597  0.81625  0.63453  1.0000
  S   S273      1.0  0.52228  0.81055  0.62678  1.0000
  S   S274      1.0  0.63908  0.82341  0.65296  1.0000
  S   S275      1.0  0.57440  0.80244  0.67027  1.0000
  C   C1164     1.0  0.97989  0.53000  0.72506  1.0000
  H   H2050     1.0  0.66647  0.92722  0.51173  1.0000
  C   C1165     1.0  0.57203  0.71972  0.68274  1.0000
  C   C1166     1.0  0.56293  0.69075  0.68335  1.0000
  C   C1167     1.0  0.54917  0.67446  0.70356  1.0000
  C   C1168     1.0  0.64856  0.92733  0.50136  1.0000
  H   H2051     1.0  0.72000  0.80205  0.57381  1.0000
  C   C1169     1.0  0.56671  0.73215  0.70239  1.0000
  H   H2052     1.0  0.56689  0.68090  0.66825  1.0000
  C   C1170     1.0  0.74076  0.85719  0.55832  1.0000
  H   H2053     1.0  0.50276  0.64512  0.64246  1.0000
  H   H2054     1.0  0.59322  0.89306  0.51457  1.0000
  C   C1171     1.0  0.64781  0.89079  0.71768  1.0000
  H   H2055     1.0  0.94216  0.50663  0.60536  1.0000
  H   H2056     1.0  0.65235  0.96577  0.69994  1.0000
  C   C1172     1.0  0.66929  0.78573  0.59282  1.0000
  C   C1173     1.0  0.67355  0.90454  0.70594  1.0000
  C   C1174     1.0  0.90469  0.52069  0.49410  1.0000
  H   H2057     1.0  0.68519  0.83101  0.61701  1.0000
  H   H2058     1.0  0.67629  0.89725  0.68880  1.0000
  C   C1175     1.0  0.70626  0.93587  0.54842  1.0000
  C   C1176     1.0  0.70309  0.91128  0.53796  1.0000
  C   C1177     1.0  0.68699  0.88527  0.54932  1.0000
  C   C1178     1.0  0.67382  0.88346  0.57128  1.0000
  C   C1179     1.0  0.67685  0.90805  0.58172  1.0000
  C   C1180     1.0  0.69308  0.93409  0.57038  1.0000
  H   H2059     1.0  0.71344  0.91242  0.52130  1.0000
  H   H2060     1.0  0.68470  0.86643  0.54098  1.0000
  H   H2061     1.0  0.66688  0.90704  0.59859  1.0000
  H   H2062     1.0  0.69552  0.95300  0.57871  1.0000
  H   H2063     1.0  0.74354  0.78373  0.60278  1.0000
  C   C1181     1.0  0.54028  0.84255  0.72651  1.0000
  H   H2064     1.0  0.65614  0.88144  0.50632  1.0000
  C   C1182     1.0  0.64509  0.88205  0.48947  1.0000
  N   N67       1.0  0.93047  0.54716  0.53230  1.0000
  C   C1183     1.0  0.55338  0.71593  0.72272  1.0000
  C   C1184     1.0  0.92552  0.57169  0.52501  1.0000
  H   H2065     1.0  0.51862  0.76437  0.65585  1.0000
  H   H2066     1.0  0.60093  0.85987  0.57051  1.0000
  C   C1185     1.0  0.98444  0.57816  0.53403  1.0000
  H   H2067     1.0  0.61248  0.76612  0.58261  1.0000
  H   H2068     1.0  0.54639  0.91175  0.62699  1.0000
  H   H2069     1.0  0.91858  0.53785  0.64493  1.0000
  H   H2070     1.0  0.63880  0.77765  0.62151  1.0000
  H   H2071     1.0  0.54946  0.91486  0.67289  1.0000
  H   H2072     1.0  0.59512  0.92648  0.70071  1.0000
  H   H2073     1.0  0.89979  0.60240  0.50560  1.0000
  H   H2074     1.0  0.62074  0.73729  0.57932  1.0000
  C   C1186     1.0  0.64375  0.76577  0.60806  1.0000
  C   C1187     1.0  0.92881  0.54408  0.55920  1.0000
  C   C1188     1.0  0.97067  0.52201  0.70142  1.0000
  C   C1189     1.0  0.96741  0.60375  0.66518  1.0000
  H   H2075     1.0  0.69349  0.75786  0.60626  1.0000
  H   H2076     1.0  0.91305  0.51466  0.60250  1.0000
  H   H2077     1.0  0.57038  0.89723  0.67144  1.0000
  C   C1190     1.0  0.50712  0.87133  0.70089  1.0000
  H   H2078     1.0  0.87983  0.55198  0.51776  1.0000
  H   H2079     1.0  0.70146  0.84543  0.66823  1.0000
  H   H2080     1.0  0.90682  0.53678  0.56509  1.0000
  H   H2081     1.0  0.89914  0.53731  0.48828  1.0000
  H   H2082     1.0  0.53006  0.85583  0.65308  1.0000
  H   H2083     1.0  0.95823  0.56004  0.67329  1.0000
  H   H2084     1.0  0.70958  0.87044  0.64381  1.0000
  H   H2085     1.0  0.69272  0.77071  0.63495  1.0000
  C   C1191     1.0  0.54843  0.89377  0.67407  1.0000
  H   H2086     1.0  0.50014  0.86260  0.71907  1.0000
  H   H2087     1.0  0.94856  0.54246  0.60562  1.0000
  H   H2088     1.0  0.52569  0.73502  0.62876  1.0000
  H   H2089     1.0  0.91203  0.55964  0.66510  1.0000
  H   H2090     1.0  0.71561  0.93883  0.70746  1.0000
  C   C1192     1.0  0.61755  0.75079  0.59237  1.0000
  H   H2091     1.0  0.66511  0.97580  0.64576  1.0000
  H   H2092     1.0  0.97041  0.61594  0.64820  1.0000
  H   H2093     1.0  0.53604  0.50475  0.69842  1.0000
  H   H2094     1.0  0.50539  0.61086  0.67138  1.0000
  H   H2095     1.0  0.72945  0.82537  0.64963  1.0000
  H   H2096     1.0  0.82203  0.54353  0.60561  1.0000
  Fe  Fe137     1.0  0.74033  0.98055  0.49596  1.0000
  H   H2097     1.0  0.52001  0.83840  0.73467  1.0000
  H   H2098     1.0  0.64761  0.74957  0.61759  1.0000
  H   H2099     1.0  0.94081  0.56463  0.56791  1.0000
  H   H2100     1.0  0.94045  0.59066  0.53472  1.0000
  H   H2101     1.0  0.50064  0.69774  0.70433  1.0000
  C   C1193     1.0  0.60568  0.88199  0.51053  1.0000
  H   H2102     1.0  0.57342  0.75436  0.70216  1.0000
  C   C1194     1.0  0.96193  0.59153  0.71647  1.0000
  H   H2103     1.0  0.74330  0.84377  0.54478  1.0000
  H   H2104     1.0  0.84560  0.52838  0.61044  1.0000
  H   H2105     1.0  0.73135  0.50051  0.62939  1.0000
  C   C1195     1.0  0.63610  0.94198  0.51754  1.0000
  C   C1196     1.0  0.70307  0.77712  0.61721  1.0000
  H   H2106     1.0  0.51060  0.69291  0.66477  1.0000
  H   H2107     1.0  0.52473  0.79941  0.71551  1.0000
  H   H2108     1.0  0.67657  0.97582  0.52789  1.0000
  H   H2109     1.0  0.90806  0.61197  0.53657  1.0000
  H   H2110     1.0  0.76032  0.86739  0.56922  1.0000
  H   H2111     1.0  0.59937  0.73746  0.60375  1.0000
  H   H2112     1.0  0.63501  0.89225  0.54135  1.0000
  H   H2113     1.0  0.77070  0.51285  0.60511  1.0000
  C   C1197     1.0  0.71715  0.85742  0.65435  1.0000
  H   H2114     1.0  0.50432  0.90490  0.67921  1.0000
  C   C1198     1.0  0.53130  0.87680  0.65238  1.0000
  N   N68       1.0  0.62869  0.89832  0.49292  1.0000
  H   H2115     1.0  0.92276  0.57145  0.63465  1.0000
  H   H2116     1.0  0.91349  0.50294  0.52588  1.0000
  C   C1199     1.0  0.71559  0.84004  0.57425  1.0000
  C   C1200     1.0  0.69477  0.81810  0.62475  1.0000
  H   H2117     1.0  0.72898  0.76042  0.65413  1.0000
  C   C1201     1.0  0.54512  0.89065  0.62883  1.0000
  C   C1202     1.0  0.54290  0.85495  0.70084  1.0000
  H   H2118     1.0  0.73744  0.87379  0.54883  1.0000
  C   C1203     1.0  0.95894  0.55239  0.52348  1.0000
  C   C1204     1.0  0.72213  0.83773  0.63805  1.0000
  H   H2119     1.0  0.53240  0.87771  0.61371  1.0000
  H   H2120     1.0  0.96394  0.64757  0.68739  1.0000
  H   H2121     1.0  0.56389  0.85915  0.69403  1.0000
  C   C1205     1.0  0.73430  0.78339  0.62048  1.0000
  C   C1206     1.0  0.69573  0.92796  0.71650  1.0000
  H   H2122     1.0  0.52776  0.83787  0.68940  1.0000
  H   H2123     1.0  0.69668  0.83138  0.56250  1.0000
  H   H2124     1.0  0.59246  0.89603  0.71637  1.0000
  H   H2125     1.0  0.52247  0.71623  0.60174  1.0000
  H   H2126     1.0  0.74057  0.82617  0.59575  1.0000
  H   H2127     1.0  0.55025  0.92010  0.71526  1.0000
  C   C1207     1.0  0.92554  0.55978  0.65022  1.0000
  C   C1208     1.0  0.50075  0.79271  0.65108  1.0000
  H   H2128     1.0  0.62044  0.85666  0.53221  1.0000
  H   H2129     1.0  0.50964  0.87457  0.65213  1.0000
  H   H2130     1.0  0.87201  0.59203  0.52697  1.0000
  H   H2131     1.0  0.75938  0.76550  0.63733  1.0000
  H   H2132     1.0  0.58868  0.88346  0.55796  1.0000
  H   H2133     1.0  0.73711  0.87152  0.66348  1.0000
  H   H2134     1.0  0.93042  0.57713  0.50577  1.0000
  C   C1209     1.0  0.64489  0.93376  0.65913  1.0000
  H   H2135     1.0  0.62817  0.96746  0.67875  1.0000
  H   H2136     1.0  0.56249  0.81824  0.71920  1.0000
  H   H2137     1.0  0.94717  0.57067  0.70957  1.0000
  C   C1210     1.0  0.66339  0.96493  0.66312  1.0000
  H   H2138     1.0  0.98349  0.69438  0.70467  1.0000
  C   C1211     1.0  0.93857  0.52335  0.57049  1.0000
  H   H2139     1.0  0.71370  0.85460  0.58695  1.0000
  H   H2140     1.0  0.96026  0.55596  0.50379  1.0000
  H   H2141     1.0  0.96874  0.57113  0.64317  1.0000
  H   H2142     1.0  0.55010  0.52659  0.72418  1.0000
  N   N69       1.0  0.69721  0.79978  0.60588  1.0000
  H   H2143     1.0  0.74087  0.50191  0.53091  1.0000
  H   H2144     1.0  0.54275  0.65229  0.70396  1.0000
  H   H2145     1.0  0.57359  0.84767  0.54799  1.0000
  H   H2146     1.0  0.63232  0.93254  0.53575  1.0000
  H   H2147     1.0  0.83801  0.50773  0.53240  1.0000
  H   H2148     1.0  0.74717  0.80373  0.62895  1.0000
  H   H2149     1.0  0.69974  0.98616  0.70648  1.0000
  H   H2150     1.0  0.64707  0.98262  0.53233  1.0000
  C   C1212     1.0  0.73695  0.76091  0.63585  1.0000
  H   H2151     1.0  0.88768  0.51424  0.52988  1.0000
  H   H2152     1.0  0.62426  0.92998  0.65125  1.0000
  H   H2153     1.0  0.65536  0.92576  0.64668  1.0000
  H   H2154     1.0  0.64124  0.92188  0.67624  1.0000
  H   H2155     1.0  0.98517  0.59765  0.52627  1.0000
  C   C1213     1.0  0.54206  0.81507  0.72641  1.0000
  H   H2156     1.0  0.53841  0.70920  0.62793  1.0000
  C   C1214     1.0  0.89386  0.59537  0.52432  1.0000
  H   H2157     1.0  0.88910  0.56213  0.54827  1.0000
  H   H2158     1.0  0.68466  0.96789  0.66848  1.0000
  H   H2159     1.0  0.67090  0.77372  0.57745  1.0000
  C   C1215     1.0  0.58639  0.91304  0.71674  1.0000
  C   C1216     1.0  0.89549  0.56819  0.52948  1.0000
  C   C1217     1.0  0.71926  0.81633  0.58758  1.0000
  C   C1218     1.0  0.61567  0.87448  0.53463  1.0000
  H   H2160     1.0  0.56653  0.89224  0.62780  1.0000
  H   H2161     1.0  0.66331  0.80142  0.58501  1.0000
  C   C1219     1.0  0.59323  0.86587  0.55386  1.0000
  C   C1220     1.0  0.93536  0.52177  0.59763  1.0000
  C   C1221     1.0  0.95633  0.57273  0.65822  1.0000
  C   C1222     1.0  0.90849  0.52044  0.52162  1.0000
  H   H2162     1.0  0.82223  0.52652  0.63392  1.0000
  C   C1223     1.0  0.50403  0.77113  0.66266  1.0000
  C   C1224     1.0  0.54477  0.68708  0.72354  1.0000
  C   C1225     1.0  0.55405  0.90155  0.71716  1.0000
  H   H2163     1.0  0.72497  0.74006  0.62769  1.0000
  H   H2164     1.0  0.49459  0.85369  0.68880  1.0000
  H   H2165     1.0  0.59019  0.86194  0.50252  1.0000
  H   H2166     1.0  0.95205  0.60540  0.71337  1.0000
  H   H2167     1.0  0.96219  0.53355  0.52634  1.0000
  C   C1226     1.0  0.52160  0.71448  0.62154  1.0000
  C   C1227     1.0  0.65619  0.97297  0.52016  1.0000
  H   H2168     1.0  0.98391  0.65003  0.71455  1.0000
  H   H2169     1.0  0.95024  0.60574  0.67425  1.0000
  H   H2170     1.0  0.80563  0.49797  0.58510  1.0000
  C   C1228     1.0  0.82426  0.52589  0.61425  1.0000
  H   H2171     1.0  0.49365  0.59612  0.64223  1.0000
  H   H2172     1.0  0.50620  0.91025  0.71096  1.0000
  C   C1229     1.0  0.94282  0.50222  0.69649  1.0000
  C   C1230     1.0  0.49756  0.89434  0.69680  1.0000
  H   H2173     1.0  0.98359  0.57907  0.55371  1.0000
  H   H2174     1.0  0.92582  0.50202  0.56357  1.0000
  H   H2175     1.0  0.65985  0.98388  0.50257  1.0000
  H   H2176     1.0  0.96102  0.52991  0.56676  1.0000
  H   H2177     1.0  0.61588  0.94024  0.51065  1.0000
  C   C1231     1.0  0.53363  0.50611  0.71794  1.0000
  H   H2178     1.0  0.51277  0.50508  0.72129  1.0000
  C   C1232     1.0  0.98529  0.65632  0.69542  1.0000
  C   C1233     1.0  0.65101  0.97592  0.68272  1.0000
  H   H2179     1.0  0.49476  0.64994  0.68380  1.0000
  H   H2180     1.0  0.60918  0.98201  0.70668  1.0000
  H   H2181     1.0  0.77951  0.50342  0.55747  1.0000
  C   C1234     1.0  0.80220  0.49807  0.60446  1.0000
  C   C1235     1.0  0.99097  0.60215  0.70423  1.0000
  H   H2182     1.0  0.62347  0.94141  0.73615  1.0000
  H   H2183     1.0  0.54621  0.89291  0.73524  1.0000
  H   H2184     1.0  0.69763  0.88178  0.48822  1.0000
  C   C1236     1.0  0.49282  0.69181  0.62925  1.0000
  H   H2185     1.0  0.93083  0.68059  0.93127  1.0000
  C   C1237     1.0  0.54475  0.66103  0.88788  1.0000
  C   C1238     1.0  0.56714  0.78184  0.83873  1.0000
  C   C1239     1.0  0.56976  0.67941  0.90369  1.0000
  S   S276      1.0  0.52136  0.79528  0.96667  1.0000
  H   H2186     1.0  0.51065  0.84582  0.88555  1.0000
  C   C1240     1.0  0.59686  0.83048  0.80762  1.0000
  H   H2187     1.0  0.58409  0.95192  0.78821  1.0000
  H   H2188     1.0  0.91657  0.66090  0.90423  1.0000
  H   H2189     1.0  0.56332  0.84618  0.93440  1.0000
  H   H2190     1.0  0.53499  0.74501  0.85692  1.0000
  C   C1241     1.0  0.50797  0.66159  0.96882  1.0000
  H   H2191     1.0  0.59306  0.94661  0.74122  1.0000
  C   C1242     1.0  0.93375  0.49784  0.73920  1.0000
  H   H2192     1.0  0.57006  0.69985  0.90669  1.0000
  H   H2193     1.0  0.95178  0.89096  0.98379  1.0000
  S   S277      1.0  0.68696  0.96083  0.81596  1.0000
  H   H2194     1.0  0.69654  0.89913  0.91474  1.0000
  H   H2195     1.0  0.97616  0.67901  0.92428  1.0000
  H   H2196     1.0  0.54141  0.88987  0.93660  1.0000
  S   S278      1.0  0.98190  0.71850  0.96332  1.0000
  H   H2197     1.0  0.62093  0.76464  0.77511  1.0000
  H   H2198     1.0  0.51401  0.85223  0.79632  1.0000
  H   H2199     1.0  0.56861  0.66904  0.92131  1.0000
  C   C1243     1.0  0.57521  0.91223  0.80438  1.0000
  H   H2200     1.0  0.59581  0.91703  0.75472  1.0000
  H   H2201     1.0  0.50372  0.55668  0.91261  1.0000
  Fe  Fe138     1.0  0.53275  0.72968  0.96222  1.0000
  Fe  Fe139     1.0  0.52575  0.77480  0.93364  1.0000
  Fe  Fe140     1.0  0.64689  0.96371  0.80890  1.0000
  H   H2202     1.0  0.67760  0.89038  0.87722  1.0000
  H   H2203     1.0  0.61896  0.96222  0.86409  1.0000
  H   H2204     1.0  0.50679  0.59179  0.88200  1.0000
  S   S279      1.0  0.53750  0.69054  0.95731  1.0000
  H   H2205     1.0  0.55759  0.85701  0.73821  1.0000
  C   C1244     1.0  0.52293  0.89186  0.78002  1.0000
  C   C1245     1.0  0.55503  0.88419  0.80696  1.0000
  C   C1246     1.0  0.52916  0.87393  0.79455  1.0000
  H   H2206     1.0  0.55958  0.87026  0.81834  1.0000
  H   H2207     1.0  0.51700  0.67774  0.89785  1.0000
  H   H2208     1.0  0.56172  0.73869  0.84320  1.0000
  C   C1247     1.0  0.56662  0.80735  0.80235  1.0000
  H   H2209     1.0  0.51020  0.67570  0.85333  1.0000
  H   H2210     1.0  0.54777  0.67143  0.87010  1.0000
  S   S280      1.0  0.71883  0.96739  0.75168  1.0000
  N   N70       1.0  0.55999  0.77881  0.81232  1.0000
  H   H2211     1.0  0.64688  0.93615  0.86133  1.0000
  C   C1248     1.0  0.72465  0.92522  0.85326  1.0000
  H   H2212     1.0  0.97120  0.58455  0.87268  1.0000
  H   H2213     1.0  0.59595  0.76521  0.87444  1.0000
  H   H2214     1.0  0.50157  0.51213  0.89630  1.0000
  H   H2215     1.0  0.59021  0.79429  0.84155  1.0000
  C   C1249     1.0  0.69680  0.91369  0.95009  1.0000
  Fe  Fe141     1.0  0.49458  0.62319  0.75076  1.0000
  C   C1250     1.0  0.56887  0.93021  0.79005  1.0000
  H   H2216     1.0  0.98241  0.60296  0.91414  1.0000
  S   S281      1.0  0.52974  0.79405  0.89667  1.0000
  H   H2217     1.0  0.54555  0.64110  0.88546  1.0000
  H   H2218     1.0  0.64408  0.95597  0.91236  1.0000
  S   S282      1.0  0.56358  0.77134  0.94761  1.0000
  H   H2219     1.0  0.56419  0.73926  0.88799  1.0000
  H   H2220     1.0  0.56480  0.74276  0.80146  1.0000
  H   H2221     1.0  0.96122  0.65875  0.89796  1.0000
  H   H2222     1.0  0.57128  0.77524  0.88740  1.0000
  C   C1251     1.0  0.66642  0.92339  0.75036  1.0000
  H   H2223     1.0  0.52287  0.81196  0.84979  1.0000
  H   H2224     1.0  0.52417  0.74603  0.77291  1.0000
  H   H2225     1.0  0.60631  0.76429  0.74579  1.0000
  H   H2226     1.0  0.94325  0.57802  0.75147  1.0000
  H   H2227     1.0  0.62667  0.87163  0.79482  1.0000
  S   S283      1.0  0.97252  0.52649  0.77426  1.0000
  H   H2228     1.0  0.60743  0.84747  0.77153  1.0000
  C   C1252     1.0  0.51560  0.75648  0.78468  1.0000
  Fe  Fe142     1.0  0.70071  0.98257  0.78059  1.0000
  C   C1253     1.0  0.52876  0.76008  0.81003  1.0000
  H   H2229     1.0  0.59049  0.86322  0.78896  1.0000
  H   H2230     1.0  0.55758  0.79382  0.84750  1.0000
  S   S284      1.0  0.65951  0.98238  0.77224  1.0000
  H   H2231     1.0  0.55183  0.81462  0.80959  1.0000
  C   C1254     1.0  0.57331  0.75885  0.87717  1.0000
  H   H2232     1.0  0.64933  0.98908  0.87901  1.0000
  C   C1255     1.0  0.55782  0.75414  0.85316  1.0000
  C   C1256     1.0  0.51093  0.84601  0.93011  1.0000
  S   S285      1.0  0.60795  0.92391  0.81943  1.0000
  H   H2233     1.0  0.52341  0.73865  0.81662  1.0000
  C   C1257     1.0  0.58552  0.77435  0.77420  1.0000
  H   H2234     1.0  0.59775  0.83887  0.82573  1.0000
  H   H2235     1.0  0.51906  0.77676  0.77673  1.0000
  H   H2236     1.0  0.58354  0.88273  0.94079  1.0000
  H   H2237     1.0  0.94042  0.58297  0.85762  1.0000
  C   C1258     1.0  0.70832  0.93340  0.87089  1.0000
  H   H2238     1.0  0.61389  0.92917  0.89770  1.0000
  H   H2239     1.0  0.98282  0.64799  0.96546  1.0000
  H   H2240     1.0  0.59222  0.83684  0.87637  1.0000
  H   H2241     1.0  0.61249  0.82231  0.80718  1.0000
  H   H2242     1.0  0.61518  0.97517  0.89250  1.0000
  H   H2243     1.0  0.54025  0.80682  0.74488  1.0000
  H   H2244     1.0  0.58968  0.68313  0.89501  1.0000
  H   H2245     1.0  0.93256  0.57798  0.90082  1.0000
  H   H2246     1.0  0.55692  0.86036  0.96129  1.0000
  C   C1259     1.0  0.50123  0.59403  0.90051  1.0000
  H   H2247     1.0  0.94038  0.64316  0.94990  1.0000
  C   C1260     1.0  0.56239  0.86459  0.94207  1.0000
  C   C1261     1.0  0.95806  0.59549  0.86992  1.0000
  C   C1262     1.0  0.93615  0.67557  0.91352  1.0000
  C   C1263     1.0  0.62923  0.96986  0.88173  1.0000
  C   C1264     1.0  0.50245  0.79670  0.85588  1.0000
  H   H2248     1.0  0.53808  0.93410  0.76688  1.0000
  C   C1265     1.0  0.67293  0.92388  0.91428  1.0000
  H   H2249     1.0  0.66327  0.88256  0.92965  1.0000
  H   H2250     1.0  0.66346  0.93024  0.76760  1.0000
  H   H2251     1.0  0.52057  0.60705  0.91088  1.0000
  H   H2252     1.0  0.61963  0.89121  0.90799  1.0000
  C   C1266     1.0  0.60580  0.85463  0.78964  1.0000
  N   N71       1.0  0.96208  0.62152  0.93538  1.0000
  H   H2253     1.0  0.60014  0.79690  0.77245  1.0000
  H   H2254     1.0  0.71484  0.92207  0.83516  1.0000
  H   H2255     1.0  0.57430  0.85434  0.88993  1.0000
  H   H2256     1.0  0.50592  0.84274  0.94948  1.0000
  C   C1267     1.0  0.94419  0.63641  0.93225  1.0000
  H   H2257     1.0  0.51752  0.65276  0.91828  1.0000
  H   H2258     1.0  0.51098  0.87879  0.88806  1.0000
  H   H2259     1.0  0.50319  0.89244  0.92495  1.0000
  C   C1268     1.0  0.94653  0.59910  0.89367  1.0000
  H   H2260     1.0  0.70927  0.95329  0.86435  1.0000
  Fe  Fe143     1.0  0.49379  0.75146  0.97962  1.0000
  C   C1269     1.0  0.57659  0.76596  0.80060  1.0000
  H   H2261     1.0  0.97097  0.61610  0.86130  1.0000
  C   C1270     1.0  0.54087  0.87102  0.92852  1.0000
  H   H2262     1.0  0.94612  0.69521  0.90280  1.0000
  C   C1271     1.0  0.94515  0.59431  0.94847  1.0000
  H   H2263     1.0  0.74653  0.94220  0.85198  1.0000
  H   H2264     1.0  0.92295  0.62206  0.92519  1.0000
  C   C1272     1.0  0.51663  0.65688  0.89887  1.0000
  H   H2265     1.0  0.56304  0.80669  0.78275  1.0000
  C   C1273     1.0  0.93818  0.59680  0.97486  1.0000
  H   H2266     1.0  0.71957  0.93718  0.88831  1.0000
  H   H2267     1.0  0.50316  0.85240  0.84177  1.0000
  H   H2268     1.0  0.92464  0.58218  0.93920  1.0000
  H   H2269     1.0  0.93372  0.61011  0.88975  1.0000
  C   C1274     1.0  0.50569  0.65366  0.82063  1.0000
  H   H2270     1.0  0.60415  0.89757  0.86676  1.0000
  H   H2271     1.0  0.58783  0.73583  0.76644  1.0000
  H   H2272     1.0  0.69153  0.94486  0.91356  1.0000
  H   H2273     1.0  0.54796  0.87609  0.90977  1.0000
  H   H2274     1.0  0.65841  0.92604  0.92708  1.0000
  H   H2275     1.0  0.62455  0.88992  0.74884  1.0000
  H   H2276     1.0  0.72541  0.90582  0.85935  1.0000
  C   C1275     1.0  0.54279  0.92006  0.77799  1.0000
  H   H2277     1.0  0.51720  0.76788  0.82158  1.0000
  H   H2278     1.0  0.59650  0.77115  0.81068  1.0000
  H   H2279     1.0  0.62268  0.88048  0.85406  1.0000
  C   C1276     1.0  0.64445  0.90026  0.73985  1.0000
  H   H2280     1.0  0.97599  0.60972  0.75146  1.0000
  H   H2281     1.0  0.95584  0.58080  0.94803  1.0000
  C   C1277     1.0  0.50383  0.63423  0.96520  1.0000
  C   C1278     1.0  0.49537  0.65547  0.84545  1.0000
  H   H2282     1.0  0.51233  0.82707  0.92426  1.0000
  C   C1279     1.0  0.95655  0.66301  0.91619  1.0000
  H   H2283     1.0  0.63562  0.87166  0.89675  1.0000
  H   H2284     1.0  0.57184  0.84920  0.85821  1.0000
  H   H2285     1.0  0.66836  0.90791  0.85437  1.0000
  N   N72       1.0  0.65913  0.91605  0.88998  1.0000
  H   H2286     1.0  0.70286  0.89824  0.95832  1.0000
  C   C1280     1.0  0.63166  0.88984  0.89250  1.0000
  C   C1281     1.0  0.65452  0.93995  0.88019  1.0000
  H   H2287     1.0  0.52637  0.65350  0.82171  1.0000
  C   C1282     1.0  0.60039  0.93065  0.73857  1.0000
  H   H2288     1.0  0.67474  0.95925  0.87932  1.0000
  C   C1283     1.0  0.63455  0.94748  0.89472  1.0000
  C   C1284     1.0  0.61186  0.88191  0.87027  1.0000
  C   C1285     1.0  0.58605  0.85383  0.87400  1.0000
  H   H2289     1.0  0.98589  0.63505  0.90268  1.0000
  C   C1286     1.0  0.96447  0.58873  0.74347  1.0000
  S   S286      1.0  0.52976  0.66796  0.75019  1.0000
  Fe  Fe144     1.0  0.55769  0.78936  0.98176  1.0000
  C   C1287     1.0  0.67736  0.91051  0.87278  1.0000
  C   C1288     1.0  0.60105  0.75876  0.76491  1.0000
  H   H2290     1.0  0.50948  0.62558  0.85823  1.0000
  C   C1289     1.0  0.68191  0.90285  0.92615  1.0000
  H   H2291     1.0  0.71618  0.93368  0.94750  1.0000
  H   H2292     1.0  0.56733  0.76998  0.76226  1.0000
  C   C1290     1.0  0.97073  0.61543  0.91160  1.0000
  H   H2293     1.0  0.68269  0.91690  0.96261  1.0000
  H   H2294     1.0  0.90134  0.55608  0.97674  1.0000
  H   H2295     1.0  0.51970  0.63083  0.95623  1.0000
  H   H2296     1.0  0.92539  0.60813  0.97602  1.0000
  H   H2297     1.0  0.50797  0.67185  0.80948  1.0000
  C   C1291     1.0  0.49733  0.85595  0.89040  1.0000
  H   H2298     1.0  0.95751  0.60802  0.98574  1.0000
  C   C1292     1.0  0.98826  0.64001  0.94928  1.0000
  H   H2299     1.0  0.97584  0.57641  0.74787  1.0000
  H   H2300     1.0  0.74171  0.98012  0.97686  1.0000
  H   H2301     1.0  0.49577  0.88159  0.84591  1.0000
  S   S287      1.0  0.49528  0.73151  0.94522  1.0000
  S   S288      1.0  0.97179  0.78262  0.98408  1.0000
  C   C1293     1.0  0.69204  0.93746  0.73871  1.0000
  C   C1294     1.0  0.96148  0.51786  0.74412  1.0000
  H   H2302     1.0  0.54935  0.72572  0.73779  1.0000
  C   C1295     1.0  0.49960  0.78455  0.87869  1.0000
  C   C1296     1.0  0.92153  0.56806  0.98644  1.0000
  H   H2303     1.0  0.90627  0.98924  0.98680  1.0000
  H   H2304     1.0  0.93392  0.55619  0.98653  1.0000
