data_image0
_chemical_formula_structural       FeS2FeSHFeSFeS3FeS2FeS2FeSFeS3H3S2FeSFeSCH2C5H4CHC6H4C6H4CHC2H2SCH2CH2CH4C3HNC3H3CH2C2H2CNC7HC4H16CH2CH9CHC2H2CH2CHCH4CH3C3HFeH4FeH6CHNCH2C2HC4SH2C2H8CH5CH11SHNCHC4H3CHC3HC2H3CH5CHCHCH2CHSH5CHC2HCH3CH8CHCH4CH3CSFeS2FeS2FeSFeS3C2H2S2C6H4C4H5CHC4HC6HNH3C2H6CHCH2CH4CH3C2HCH4CHC3H4CH2CH3CHNCH4CH7NC11H22C2HCNH2CH4C2H4CH2CHC2H3Fe2H4SC3H3SH2CHCH3C2H2C2H3C2H4NHCH2CH2CH5C2H7CH3FeSFeSHNS3H8CH2C6H3C7HCH7CSCHCHCH2CH7CH2CH2CH5NH2C2H4CH2NHCH5CH3C2HCH5C2H4SH7FeCHNC5HC2H3C2SHSHCHCH6FeH2C2H3CHCHCH2C2HFeS2FeSFeS3FeS2FeSHFeSFeS3FeHSFeS4H3CH2CHCH2CH2C3H3C8H4C6H4CH2C2HSHCH2C2H2C2HCHNHC2H2C2NH4CH3CH2C4FeH3NCHCHC2H3CH3CH4C2H2CHCSCH4CFeHCH4CH2C4H8CHCSCSH3CSHFeHC3FeHCH3C3HCH13FeH3CH3C2H8CHSH2C2HSH9CH3NCH8C4H2SFeS2FeS2FeSFeS3FeS2H3C3H2C6H6C4H3C3HCH2C8H9CH13C2H2C2HCHCH3CHCH2FeH3CHCH3CH2CH4CH4CH8C3NCHC2H10CHC2FeH3CH8CH2NC4HSHCS2HCHCHSH2C2HCH7CH2CHCFeSFeSH2S3H4CH4FeCHC6H4C2H2C2H4CHC2HSCHCH2CH2CH7CHCHCHCH3CHNHC2HC3H7C3HC2H2C2H4SC2H4CHCHCHCHC3HCH2NH4CHCH2NHC3H6CFeH8C2H6CH5C3H5CSC3HC2H3NH2C2H3SHSFeSFeSH4CH3C3H5CH2C6H3C6H5C3HCH3CH3CNH6SH3CH5C2H3C3H2CH2CHCNHCH4CHCHCHFeH4SH3CH2C4SH5C2H4CH3CNH2CH2CHCH4SH2FeS2FeS2FeSFeS3CS2FeS2HCHC6H6C4H3C6H4CFeSH3CH5CH6C2H4CH2C2H2CFeHNCHC2HC2H2CH3NH4CH5SC2H3CH7CH6CH3CH4CH3CHSHCH2CSH2FeCH2NC2NC3HCH2C2HCH3NHCH2CHCHC2H2CH8C3H2CHCH4CH5C3HCH4C2H6C3H6FeCHCHSFeS2FeSFeS3FeS2FeS2FeSFeCS2FeSFeS2HFeNS2H3FeCNC2HC2HCHCH2CH5C6H4C6H5C4H9CH7FeHC2HC3SH2CH4CHC2HNC12H28C2H2SCH2C3H3CHCH2C2HCH2C2HCH3C2H4CH2CSH3CH6CHCH2CH2CH3CHC2NS2H3C2HCH3C2H7SH3CH3CH2C2H2C3H2FeSH4C3H3C3SHFeHC2FeSFeSFeHSH2CSH3CH3C3H5C2H2CHCHC6H4C6H4CHCHCH3C2H4C3H2SHCH3CFeH3CHCH4NSHCHC2H2NCH2CHCH5C2H5C2H2CSH2SH6SH7CHCHC2HNH4CH2CHCH3SFeS2FeS2FeSFeS3FeS2FeS2C3H2C2HC6H4FeC2H5C8H5CH3C2H7CH6CHC3H5NCH4CHC5H4C3H3CH4CH9NCH2CHCHC2HCH3CH5CH2C3H3CNH2CHCH2C2H2CNHC2H8CH2CHNHCH3CH5CH2C2H2CH2CH7SC2HCHCH2CH2CFeS2CSFeSFeS3FeS2FeSHFeSFeS3CSHFeSFeSFeS2H4CH8CHC2H2C2H3C2H3CH4C7H4C6H2CH5CNC8HCSH2FeH2CH14CHC2H3NHCHSCH4SH2CH3CHCSHCH5C4HSCH2FeCHC2HCH4CH2C3H3CH3CHCH4C2H2CNH9NC12H11C2H5CH3CH6NCH2CS
_chemical_formula_sum              "Fe96 S192 H1536 C864 N48"
_cell_length_a       32.9084
_cell_length_b       51.0869
_cell_length_c       65.1235
_cell_angle_alpha    90.1197
_cell_angle_beta     102.809
_cell_angle_gamma    90.4496

_space_group_name_H-M_alt    "P 1"
_space_group_IT_number       1

loop_
  _space_group_symop_operation_xyz
  'x, y, z'

loop_
  _atom_site_type_symbol
  _atom_site_label
  _atom_site_symmetry_multiplicity
  _atom_site_fract_x
  _atom_site_fract_y
  _atom_site_fract_z
  _atom_site_occupancy
  Fe  Fe1       1.0  0.37468  0.24248  0.26566  1.0000
  S   S1        1.0  0.34925  0.28290  0.25899  1.0000
  S   S2        1.0  0.33075  0.20900  0.26934  1.0000
  Fe  Fe2       1.0  0.46499  0.25993  0.26770  1.0000
  S   S3        1.0  0.44482  0.30191  0.26064  1.0000
  H   H1        1.0  0.11994  0.25760  0.22412  1.0000
  Fe  Fe3       1.0  0.40417  0.29605  0.28413  1.0000
  S   S4        1.0  0.39995  0.32956  0.30715  1.0000
  Fe  Fe4       1.0  0.39144  0.28562  0.23607  1.0000
  S   S5        1.0  0.35973  0.29825  0.20252  1.0000
  S   S6        1.0  0.42741  0.25526  0.29260  1.0000
  S   S7        1.0  0.41383  0.24402  0.24144  1.0000
  Fe  Fe5       1.0  0.29846  0.37453  0.06139  1.0000
  S   S8        1.0  0.34872  0.34464  0.07224  1.0000
  S   S9        1.0  0.22913  0.36569  0.05909  1.0000
  Fe  Fe6       1.0  0.36151  0.42033  0.06487  1.0000
  S   S10       1.0  0.41493  0.39300  0.07600  1.0000
  S   S11       1.0  0.38725  0.46177  0.06238  1.0000
  Fe  Fe7       1.0  0.38281  0.36593  0.05044  1.0000
  S   S12       1.0  0.42248  0.34439  0.03116  1.0000
  Fe  Fe8       1.0  0.37702  0.37444  0.09691  1.0000
  S   S13       1.0  0.41028  0.37010  0.13155  1.0000
  S   S14       1.0  0.33063  0.39394  0.03791  1.0000
  S   S15       1.0  0.32557  0.40337  0.08737  1.0000
  H   H2        1.0  0.17568  0.23302  0.19738  1.0000
  H   H3        1.0  0.09496  0.27105  0.11354  1.0000
  H   H4        1.0  0.01672  0.38089  0.04050  1.0000
  S   S16       1.0  0.08164  0.13985  0.16468  1.0000
  S   S17       1.0  0.09517  0.12240  0.21432  1.0000
  Fe  Fe9       1.0  0.11715  0.15529  0.19610  1.0000
  S   S18       1.0  0.17993  0.17377  0.19472  1.0000
  Fe  Fe10      1.0  0.05532  0.10923  0.18318  1.0000
  S   S19       1.0  0.06626  0.18263  0.20011  1.0000
  C   C1        1.0  0.44389  0.38566  0.00792  1.0000
  H   H5        1.0  0.05178  0.25829  0.06773  1.0000
  H   H6        1.0  0.22372  0.38641  0.32614  1.0000
  C   C2        1.0  0.14235  0.30672  0.01625  1.0000
  C   C3        1.0  0.13104  0.31765  0.03388  1.0000
  C   C4        1.0  0.15791  0.33568  0.04680  1.0000
  C   C5        1.0  0.19694  0.34235  0.04265  1.0000
  C   C6        1.0  0.20870  0.33083  0.02539  1.0000
  H   H7        1.0  0.41303  0.31327  0.12050  1.0000
  H   H8        1.0  0.25918  0.42789  0.10690  1.0000
  H   H9        1.0  0.14776  0.42868  0.03385  1.0000
  H   H10       1.0  0.23857  0.33575  0.02199  1.0000
  C   C7        1.0  0.07863  0.38331  0.00382  1.0000
  H   H11       1.0  0.39251  0.42969  0.12350  1.0000
  C   C8        1.0  0.29029  0.19844  0.24814  1.0000
  C   C9        1.0  0.26318  0.17821  0.25141  1.0000
  C   C10       1.0  0.22945  0.17020  0.23517  1.0000
  C   C11       1.0  0.22263  0.18233  0.21549  1.0000
  C   C12       1.0  0.25057  0.20195  0.21203  1.0000
  C   C13       1.0  0.28385  0.21027  0.22836  1.0000
  H   H12       1.0  0.26816  0.16882  0.26662  1.0000
  H   H13       1.0  0.20870  0.15470  0.23789  1.0000
  H   H14       1.0  0.24596  0.21118  0.19677  1.0000
  H   H15       1.0  0.30443  0.22589  0.22570  1.0000
  C   C14       1.0  0.37457  0.31865  0.18324  1.0000
  C   C15       1.0  0.34879  0.31926  0.16286  1.0000
  C   C16       1.0  0.35914  0.33489  0.14689  1.0000
  C   C17       1.0  0.39551  0.35017  0.15113  1.0000
  C   C18       1.0  0.42134  0.34955  0.17149  1.0000
  C   C19       1.0  0.41098  0.33391  0.18747  1.0000
  H   H16       1.0  0.32052  0.30757  0.15941  1.0000
  H   H17       1.0  0.33897  0.33512  0.13132  1.0000
  H   H18       1.0  0.44959  0.36125  0.17495  1.0000
  H   H19       1.0  0.43108  0.33368  0.20306  1.0000
  C   C20       1.0  0.40252  0.27214  0.12691  1.0000
  H   H20       1.0  0.27212  0.34755  0.33154  1.0000
  C   C21       1.0  0.04165  0.01468  0.16770  1.0000
  C   C22       1.0  0.06109  0.03788  0.17682  1.0000
  H   H21       1.0  0.34504  0.20579  0.19877  1.0000
  H   H22       1.0  0.25065  0.44898  0.28059  1.0000
  S   S20       1.0  0.02371  0.15266  0.24817  1.0000
  C   C23       1.0  0.03206  0.18407  0.11107  1.0000
  H   H23       1.0  0.30362  0.47919  0.06501  1.0000
  H   H24       1.0  0.32785  0.43238  0.13150  1.0000
  C   C24       1.0  0.13916  0.41083  0.02404  1.0000
  H   H25       1.0  0.10166  0.31222  0.03752  1.0000
  H   H26       1.0  0.14970  0.20976  0.29375  1.0000
  C   C25       1.0  0.41216  0.42701  0.18939  1.0000
  H   H27       1.0  0.06445  0.01692  0.23384  1.0000
  H   H28       1.0  0.26853  0.47634  0.32386  1.0000
  H   H29       1.0  0.07916  0.28900  0.07431  1.0000
  H   H30       1.0  0.38539  0.26366  0.17385  1.0000
  C   C26       1.0  0.21774  0.23729  0.27679  1.0000
  C   C27       1.0  0.02509  0.28400  0.08707  1.0000
  C   C28       1.0  0.14249  0.24242  0.22193  1.0000
  H   H31       1.0  0.23801  0.22147  0.27295  1.0000
  N   N1        1.0  0.43561  0.24764  0.16130  1.0000
  C   C29       1.0  0.36593  0.49289  0.06590  1.0000
  C   C30       1.0  0.41173  0.29397  0.11255  1.0000
  C   C31       1.0  0.13258  0.17138  0.28077  1.0000
  H   H32       1.0  0.04940  0.33743  0.01557  1.0000
  H   H33       1.0  0.29694  0.28334  0.29597  1.0000
  H   H34       1.0  0.29493  0.48391  0.10914  1.0000
  C   C32       1.0  0.26017  0.43298  0.32224  1.0000
  H   H35       1.0  0.32224  0.21913  0.17325  1.0000
  H   H36       1.0  0.31402  0.45663  0.09690  1.0000
  C   C33       1.0  0.09984  0.03628  0.19088  1.0000
  C   C34       1.0  0.25668  0.44957  0.10651  1.0000
  H   H37       1.0  0.11521  0.05393  0.19799  1.0000
  H   H38       1.0  0.44901  0.20633  0.16024  1.0000
  C   C35       1.0  0.27248  0.45962  0.31371  1.0000
  N   N2        1.0  0.13455  0.25094  0.09634  1.0000
  C   C36       1.0  0.15906  0.27546  0.09397  1.0000
  C   C37       1.0  0.09189  0.25860  0.09917  1.0000
  C   C38       1.0  0.15654  0.23757  0.11642  1.0000
  C   C39       1.0  0.13139  0.23208  0.07806  1.0000
  C   C40       1.0  0.13029  0.24408  0.05599  1.0000
  C   C41       1.0  0.20622  0.27133  0.09501  1.0000
  C   C42       1.0  0.13400  0.21332  0.12323  1.0000
  H   H39       1.0  0.39477  0.20325  0.17572  1.0000
  C   C43       1.0  0.44272  0.45831  0.12600  1.0000
  C   C44       1.0  0.12515  0.22280  0.03907  1.0000
  C   C45       1.0  0.22536  0.29427  0.08531  1.0000
  C   C46       1.0  0.16232  0.19864  0.14123  1.0000
  H   H40       1.0  0.15687  0.28988  0.10655  1.0000
  H   H41       1.0  0.14557  0.28576  0.07907  1.0000
  H   H42       1.0  0.07357  0.24105  0.10182  1.0000
  H   H43       1.0  0.02845  0.01143  0.20912  1.0000
  H   H44       1.0  0.16225  0.25171  0.12986  1.0000
  H   H45       1.0  0.18782  0.23072  0.11500  1.0000
  H   H46       1.0  0.15813  0.21831  0.08107  1.0000
  H   H47       1.0  0.10323  0.21934  0.07658  1.0000
  H   H48       1.0  0.15977  0.25460  0.05573  1.0000
  H   H49       1.0  0.10451  0.25810  0.05123  1.0000
  H   H50       1.0  0.22320  0.26965  0.11173  1.0000
  H   H51       1.0  0.21167  0.25316  0.08669  1.0000
  H   H52       1.0  0.12396  0.19944  0.10992  1.0000
  H   H53       1.0  0.10626  0.21937  0.12910  1.0000
  H   H54       1.0  0.43731  0.26970  0.20218  1.0000
  H   H55       1.0  0.30567  0.45949  0.31266  1.0000
  C   C47       1.0  0.09956  0.24882  0.26437  1.0000
  H   H56       1.0  0.41332  0.22481  0.19772  1.0000
  H   H57       1.0  0.15605  0.25799  0.28677  1.0000
  C   C48       1.0  0.44278  0.22335  0.14936  1.0000
  H   H58       1.0  0.09562  0.21175  0.03808  1.0000
  H   H59       1.0  0.04061  0.26623  0.26628  1.0000
  H   H60       1.0  0.21237  0.29495  0.06807  1.0000
  H   H61       1.0  0.21919  0.31315  0.09252  1.0000
  H   H62       1.0  0.25963  0.29179  0.08793  1.0000
  H   H63       1.0  0.19008  0.19090  0.13625  1.0000
  H   H64       1.0  0.17264  0.21167  0.15514  1.0000
  H   H65       1.0  0.14494  0.18185  0.14607  1.0000
  H   H66       1.0  0.12738  0.22288  0.22062  1.0000
  C   C49       1.0  0.09179  0.40743  0.01841  1.0000
  H   H67       1.0  0.14865  0.34434  0.06021  1.0000
  C   C50       1.0  0.14694  0.25553  0.26934  1.0000
  C   C51       1.0  0.18141  0.31329  0.01220  1.0000
  H   H68       1.0  0.14906  0.01073  0.20647  1.0000
  H   H69       1.0  0.09333  0.23199  0.27402  1.0000
  C   C52       1.0  0.32774  0.45418  0.13151  1.0000
  H   H70       1.0  0.07838  0.42548  0.01019  1.0000
  H   H71       1.0  0.36486  0.41941  0.16173  1.0000
  C   C53       1.0  0.02774  0.35395  0.01567  1.0000
  H   H72       1.0  0.38218  0.45579  0.10564  1.0000
  C   C54       1.0  0.39394  0.24501  0.16717  1.0000
  H   H73       1.0  0.15166  0.41280  0.00960  1.0000
  H   H74       1.0  0.22228  0.28054  0.27787  1.0000
  H   H75       1.0  0.12429  0.23195  0.02351  1.0000
  H   H76       1.0  0.45663  0.19299  0.11590  1.0000
  C   C55       1.0  0.07412  0.27187  0.26947  1.0000
  H   H77       1.0  0.26770  0.26473  0.31133  1.0000
  H   H78       1.0  0.09941  0.17669  0.27478  1.0000
  H   H79       1.0  0.23787  0.45525  0.09082  1.0000
  C   C56       1.0  0.02083  0.04787  0.22408  1.0000
  C   C57       1.0  0.02206  0.34209  0.05274  1.0000
  C   C58       1.0  0.24656  0.46491  0.29159  1.0000
  H   H80       1.0  0.15167  0.20900  0.04252  1.0000
  Fe  Fe11      1.0  0.03004  0.16565  0.16952  1.0000
  H   H81       1.0  0.25575  0.26490  0.26309  1.0000
  H   H82       1.0  0.49700  0.32876  0.01819  1.0000
  H   H83       1.0  0.12524  0.24721  0.18801  1.0000
  H   H84       1.0  0.08425  0.27745  0.28634  1.0000
  Fe  Fe12      1.0  0.04120  0.14895  0.21610  1.0000
  H   H85       1.0  0.38673  0.29452  0.09797  1.0000
  H   H86       1.0  0.04162  0.32450  0.05290  1.0000
  H   H87       1.0  0.31106  0.46010  0.14392  1.0000
  H   H88       1.0  0.41412  0.21766  0.13754  1.0000
  H   H89       1.0  0.48618  0.43298  0.06262  1.0000
  H   H90       1.0  0.41719  0.42051  0.15762  1.0000
  C   C59       1.0  0.34695  0.22210  0.18775  1.0000
  H   H91       1.0  0.49517  0.49467  0.03615  1.0000
  N   N3        1.0  0.17534  0.23630  0.26184  1.0000
  C   C60       1.0  0.48405  0.47431  0.03779  1.0000
  H   H92       1.0  0.34121  0.24071  0.19546  1.0000
  H   H93       1.0  0.34441  0.42400  0.32734  1.0000
  C   C61       1.0  0.00509  0.11192  0.12238  1.0000
  C   C62       1.0  0.00939  0.20409  0.07625  1.0000
  H   H94       1.0  0.44331  0.43650  0.19426  1.0000
  C   C63       1.0  0.03496  0.36320  0.03885  1.0000
  C   C64       1.0  0.46557  0.43939  0.11440  1.0000
  C   C65       1.0  0.04025  0.10729  0.11023  1.0000
  C   C66       1.0  0.15944  0.20844  0.26122  1.0000
  S   S21       1.0  0.01127  0.27888  0.02572  1.0000
  H   H95       1.0  0.27028  0.41773  0.31218  1.0000
  H   H96       1.0  0.15395  0.39377  0.03321  1.0000
  C   C67       1.0  0.07281  0.08750  0.12101  1.0000
  C   C68       1.0  0.11890  0.01173  0.19571  1.0000
  H   H97       1.0  0.01637  0.10580  0.13901  1.0000
  H   H98       1.0  0.00202  0.13340  0.12375  1.0000
  H   H99       1.0  0.40169  0.25351  0.11811  1.0000
  H   H100      1.0  0.00898  0.26880  0.09457  1.0000
  H   H101      1.0  0.44644  0.47815  0.11971  1.0000
  H   H102      1.0  0.47357  0.23976  0.12531  1.0000
  H   H103      1.0  0.20561  0.23077  0.23600  1.0000
  H   H104      1.0  0.41649  0.39536  0.01072  1.0000
  C   C69       1.0  0.15384  0.24799  0.20082  1.0000
  H   H105      1.0  0.07759  0.28898  0.25948  1.0000
  H   H106      1.0  0.02778  0.10121  0.09366  1.0000
  H   H107      1.0  0.05702  0.12611  0.10945  1.0000
  H   H108      1.0  0.17817  0.19566  0.25317  1.0000
  H   H109      1.0  0.24017  0.45603  0.11875  1.0000
  C   C70       1.0  0.36979  0.49415  0.13238  1.0000
  H   H110      1.0  0.09973  0.36682  0.01016  1.0000
  H   H111      1.0  0.30042  0.24820  0.29649  1.0000
  H   H112      1.0  0.13561  0.16192  0.29637  1.0000
  H   H113      1.0  0.08737  0.24344  0.24768  1.0000
  H   H114      1.0  0.05293  0.17127  0.12158  1.0000
  H   H115      1.0  0.36760  0.28717  0.32960  1.0000
  H   H116      1.0  0.45378  0.44116  0.09714  1.0000
  H   H117      1.0  0.05881  0.06794  0.12229  1.0000
  H   H118      1.0  0.09723  0.08542  0.11180  1.0000
  H   H119      1.0  0.08810  0.09429  0.13710  1.0000
  H   H120      1.0  0.21483  0.23339  0.29321  1.0000
  S   S22       1.0  0.03523  0.06816  0.17039  1.0000
  H   H121      1.0  0.47546  0.23123  0.18934  1.0000
  N   N4        1.0  0.37185  0.46496  0.13654  1.0000
  C   C71       1.0  0.38992  0.45953  0.15954  1.0000
  H   H122      1.0  0.14178  0.15708  0.26977  1.0000
  C   C72       1.0  0.39580  0.45134  0.12241  1.0000
  C   C73       1.0  0.43521  0.27196  0.14816  1.0000
  C   C74       1.0  0.39499  0.43016  0.16573  1.0000
  C   C75       1.0  0.18149  0.24357  0.24025  1.0000
  H   H123      1.0  0.22550  0.43149  0.31849  1.0000
  H   H124      1.0  0.42115  0.46860  0.16495  1.0000
  H   H125      1.0  0.02648  0.34947  0.06915  1.0000
  C   C76       1.0  0.06323  0.27268  0.08052  1.0000
  H   H126      1.0  0.21301  0.46651  0.29182  1.0000
  C   C77       1.0  0.16024  0.19584  0.28296  1.0000
  C   C78       1.0  0.03138  0.01876  0.22536  1.0000
  C   C79       1.0  0.32424  0.49602  0.06690  1.0000
  H   H127      1.0  0.05951  0.17646  0.08449  1.0000
  C   C80       1.0  0.27902  0.26491  0.29649  1.0000
  C   C81       1.0  0.45384  0.36068  0.01612  1.0000
  H   H128      1.0  0.00884  0.01149  0.25320  1.0000
  H   H129      1.0  0.15084  0.27537  0.26293  1.0000
  H   H130      1.0  0.37031  0.46890  0.16939  1.0000
  C   C82       1.0  0.46637  0.27198  0.19644  1.0000
  H   H131      1.0  0.42828  0.28949  0.15691  1.0000
  H   H132      1.0  0.06861  0.36723  0.04513  1.0000
  H   H133      1.0  0.36884  0.24164  0.15284  1.0000
  H   H134      1.0  0.12738  0.20649  0.25141  1.0000
  H   H135      1.0  0.19257  0.18984  0.29037  1.0000
  C   C83       1.0  0.24249  0.26340  0.27733  1.0000
  H   H136      1.0  0.08106  0.40596  0.03330  1.0000
  C   C84       1.0  0.29979  0.46244  0.11004  1.0000
  H   H137      1.0  0.19370  0.26392  0.24019  1.0000
  C   C85       1.0  0.39009  0.22255  0.18264  1.0000
  H   H138      1.0  0.37096  0.27551  0.12985  1.0000
  H   H139      1.0  0.16842  0.26769  0.20091  1.0000
  C   C86       1.0  0.03591  0.18724  0.09008  1.0000
  H   H140      1.0  0.46153  0.41887  0.11930  1.0000
  S   S23       1.0  0.01492  0.20631  0.04979  1.0000
  H   H141      1.0  0.49186  0.37758  0.05773  1.0000
  H   H142      1.0  0.49937  0.44413  0.11823  1.0000
  H   H143      1.0  0.43450  0.44878  0.01965  1.0000
  H   H144      1.0  0.04433  0.05879  0.21751  1.0000
  H   H145      1.0  0.45858  0.45755  0.14285  1.0000
  C   C87       1.0  0.00239  0.00339  0.23692  1.0000
  H   H146      1.0  0.49860  0.28703  0.22695  1.0000
  C   C88       1.0  0.41843  0.48868  0.01195  1.0000
  C   C89       1.0  0.47072  0.25006  0.18058  1.0000
  H   H147      1.0  0.41550  0.40583  0.19326  1.0000
  C   C90       1.0  0.47943  0.22483  0.13795  1.0000
  H   H148      1.0  0.46660  0.29154  0.18915  1.0000
  H   H149      1.0  0.25683  0.48365  0.28566  1.0000
  H   H150      1.0  0.46545  0.46483  0.00374  1.0000
  C   C91       1.0  0.45112  0.46722  0.01748  1.0000
  H   H151      1.0  0.01322  0.40864  0.01475  1.0000
  H   H152      1.0  0.48114  0.42139  0.03688  1.0000
  H   H153      1.0  0.39059  0.43567  0.19841  1.0000
  H   H154      1.0  0.36693  0.49792  0.11523  1.0000
  H   H155      1.0  0.44190  0.29056  0.10805  1.0000
  H   H156      1.0  0.02111  0.05605  0.23993  1.0000
  H   H157      1.0  0.46674  0.27595  0.14520  1.0000
  H   H158      1.0  0.40184  0.49140  0.02490  1.0000
  C   C92       1.0  0.48531  0.19862  0.12767  1.0000
  H   H159      1.0  0.03446  0.30048  0.09832  1.0000
  C   C93       1.0  0.38160  0.32841  0.33084  1.0000
  H   H160      1.0  0.46668  0.47550  0.05059  1.0000
  H   H161      1.0  0.49289  0.18302  0.13975  1.0000
  H   H162      1.0  0.01172  0.01568  0.15678  1.0000
  H   H163      1.0  0.50072  0.25396  0.17593  1.0000
  C   C94       1.0  0.48911  0.34813  0.01195  1.0000
  H   H164      1.0  0.00267  0.29138  0.07299  1.0000
  H   H165      1.0  0.22191  0.34075  0.33722  1.0000
  H   H166      1.0  0.32535  0.28445  0.52896  1.0000
  C   C95       1.0  0.47705  0.46635  0.50150  1.0000
  S   S24       1.0  0.16233  0.18433  0.62889  1.0000
  Fe  Fe13      1.0  0.30113  0.41664  0.42377  1.0000
  S   S25       1.0  0.28124  0.40615  0.45370  1.0000
  S   S26       1.0  0.31222  0.45665  0.41050  1.0000
  Fe  Fe14      1.0  0.31879  0.35996  0.41335  1.0000
  S   S27       1.0  0.30210  0.34546  0.44300  1.0000
  S   S28       1.0  0.33527  0.32734  0.39273  1.0000
  Fe  Fe15      1.0  0.24682  0.37190  0.43549  1.0000
  S   S29       1.0  0.18440  0.35130  0.43505  1.0000
  Fe  Fe16      1.0  0.33748  0.38009  0.45914  1.0000
  S   S30       1.0  0.37668  0.37539  0.49214  1.0000
  S   S31       1.0  0.26167  0.38479  0.40471  1.0000
  S   S32       1.0  0.35948  0.39228  0.43039  1.0000
  C   C96       1.0  0.05726  0.24743  0.44415  1.0000
  C   C97       1.0  0.39068  0.46842  0.47013  1.0000
  H   H167      1.0  0.04326  0.25816  0.41163  1.0000
  H   H168      1.0  0.01889  0.12550  0.65280  1.0000
  S   S33       1.0  0.08157  0.32805  0.50591  1.0000
  S   S34       1.0  0.03350  0.25539  0.50805  1.0000
  C   C98       1.0  0.15718  0.34480  0.45531  1.0000
  C   C99       1.0  0.13197  0.32219  0.45391  1.0000
  C   C100      1.0  0.10817  0.31693  0.46903  1.0000
  C   C101      1.0  0.10937  0.33423  0.48583  1.0000
  C   C102      1.0  0.13497  0.35670  0.48736  1.0000
  C   C103      1.0  0.15855  0.36203  0.47216  1.0000
  H   H169      1.0  0.13100  0.30864  0.44104  1.0000
  H   H170      1.0  0.08918  0.29941  0.46784  1.0000
  H   H171      1.0  0.13614  0.37025  0.50028  1.0000
  H   H172      1.0  0.17702  0.37974  0.47315  1.0000
  C   C104      1.0  0.04311  0.26768  0.42685  1.0000
  C   C105      1.0  0.45504  0.37439  0.51759  1.0000
  C   C106      1.0  0.36712  0.35172  0.36142  1.0000
  C   C107      1.0  0.35281  0.32853  0.36883  1.0000
  H   H173      1.0  0.45241  0.49959  0.44133  1.0000
  H   H174      1.0  0.14768  0.28789  0.52824  1.0000
  H   H175      1.0  0.40077  0.28424  0.52998  1.0000
  H   H176      1.0  0.36759  0.36958  0.37036  1.0000
  H   H177      1.0  0.03720  0.22964  0.44095  1.0000
  C   C108      1.0  0.43120  0.38009  0.49744  1.0000
  H   H178      1.0  0.27076  0.18508  0.62416  1.0000
  C   C109      1.0  0.42970  0.32560  0.44335  1.0000
  C   C110      1.0  0.45116  0.38909  0.48194  1.0000
  C   C111      1.0  0.37399  0.47390  0.49023  1.0000
  C   C112      1.0  0.38140  0.35164  0.34252  1.0000
  H   H179      1.0  0.43300  0.39393  0.46652  1.0000
  C   C113      1.0  0.11811  0.19639  0.61048  1.0000
  C   C114      1.0  0.12431  0.21466  0.59527  1.0000
  C   C115      1.0  0.09037  0.22488  0.58033  1.0000
  C   C116      1.0  0.04967  0.21676  0.58032  1.0000
  C   C117      1.0  0.04354  0.19811  0.59527  1.0000
  C   C118      1.0  0.07744  0.18804  0.61031  1.0000
  H   H180      1.0  0.15562  0.22102  0.59508  1.0000
  N   N5        1.0  0.42815  0.48420  0.46732  1.0000
  H   H181      1.0  0.40549  0.44622  0.43472  1.0000
  H   H182      1.0  0.07220  0.17360  0.62158  1.0000
  H   H183      1.0  0.08677  0.35797  0.41467  1.0000
  C   C119      1.0  0.34002  0.45420  0.49236  1.0000
  C   C120      1.0  0.31957  0.19416  0.65217  1.0000
  H   H184      1.0  0.26109  0.31230  0.54433  1.0000
  H   H185      1.0  0.26924  0.47332  0.44318  1.0000
  H   H186      1.0  0.38506  0.23699  0.64350  1.0000
  H   H187      1.0  0.26606  0.13789  0.63016  1.0000
  H   H188      1.0  0.32382  0.33329  0.53974  1.0000
  H   H189      1.0  0.43110  0.32285  0.48693  1.0000
  C   C121      1.0  0.29993  0.23787  0.63623  1.0000
  H   H190      1.0  0.25829  0.23914  0.59327  1.0000
  C   C122      1.0  0.28168  0.17784  0.64046  1.0000
  H   H191      1.0  0.20513  0.49361  0.37427  1.0000
  H   H192      1.0  0.34242  0.28719  0.36290  1.0000
  C   C123      1.0  0.31935  0.43986  0.35379  1.0000
  H   H193      1.0  0.00510  0.29065  0.44265  1.0000
  H   H194      1.0  0.02685  0.15009  0.52604  1.0000
  H   H195      1.0  0.34313  0.19246  0.64238  1.0000
  H   H196      1.0  0.23633  0.22099  0.62450  1.0000
  C   C124      1.0  0.38500  0.30298  0.53177  1.0000
  H   H197      1.0  0.31165  0.25843  0.63864  1.0000
  H   H198      1.0  0.25937  0.35862  0.53512  1.0000
  H   H199      1.0  0.46063  0.45151  0.43701  1.0000
  C   C125      1.0  0.35329  0.30528  0.35727  1.0000
  C   C126      1.0  0.42939  0.46045  0.43203  1.0000
  H   H200      1.0  0.04053  0.17125  0.65994  1.0000
  C   C127      1.0  0.08624  0.21256  0.66701  1.0000
  H   H201      1.0  0.06689  0.28352  0.42918  1.0000
  H   H202      1.0  0.04422  0.32614  0.42962  1.0000
  H   H203      1.0  0.39194  0.47476  0.40220  1.0000
  H   H204      1.0  0.06118  0.20045  0.51025  1.0000
  C   C128      1.0  0.42686  0.48646  0.44402  1.0000
  H   H205      1.0  0.44519  0.27908  0.42519  1.0000
  C   C129      1.0  0.06276  0.17948  0.51474  1.0000
  C   C130      1.0  0.25130  0.35215  0.34235  1.0000
  C   C131      1.0  0.24732  0.43627  0.35845  1.0000
  H   H206      1.0  0.17909  0.46243  0.36818  1.0000
  H   H207      1.0  0.31810  0.46141  0.35188  1.0000
  H   H208      1.0  0.31887  0.14739  0.63002  1.0000
  H   H209      1.0  0.10101  0.25274  0.65985  1.0000
  C   C132      1.0  0.23886  0.46602  0.35898  1.0000
  H   H210      1.0  0.46921  0.45067  0.47079  1.0000
  H   H211      1.0  0.09568  0.23909  0.56889  1.0000
  C   C133      1.0  0.00797  0.31062  0.39920  1.0000
  H   H212      1.0  0.09008  0.17684  0.52805  1.0000
  H   H213      1.0  0.05573  0.25548  0.45982  1.0000
  H   H214      1.0  0.39876  0.47295  0.50474  1.0000
  C   C134      1.0  0.42235  0.46517  0.40833  1.0000
  H   H215      1.0  0.29715  0.39347  0.36499  1.0000
  N   N6        1.0  0.31186  0.22253  0.65651  1.0000
  C   C135      1.0  0.45380  0.34381  0.41320  1.0000
  H   H216      1.0  0.20704  0.04936  0.65934  1.0000
  H   H217      1.0  0.26638  0.34588  0.35853  1.0000
  H   H218      1.0  0.30372  0.39032  0.33874  1.0000
  H   H219      1.0  0.38004  0.46696  0.33663  1.0000
  C   C136      1.0  0.19548  0.03211  0.66587  1.0000
  H   H220      1.0  0.01235  0.19123  0.59510  1.0000
  H   H221      1.0  0.38924  0.30730  0.54885  1.0000
  H   H222      1.0  0.09272  0.32562  0.40488  1.0000
  H   H223      1.0  0.39723  0.49570  0.43576  1.0000
  H   H224      1.0  0.35995  0.49365  0.48951  1.0000
  H   H225      1.0  0.32898  0.43695  0.37116  1.0000
  H   H226      1.0  0.45955  0.24836  0.39856  1.0000
  N   N7        1.0  0.26962  0.32714  0.51445  1.0000
  C   C137      1.0  0.24922  0.30852  0.52717  1.0000
  C   C138      1.0  0.31621  0.32685  0.52294  1.0000
  C   C139      1.0  0.25473  0.35441  0.51794  1.0000
  C   C140      1.0  0.25897  0.32105  0.49110  1.0000
  C   C141      1.0  0.25042  0.29188  0.48449  1.0000
  C   C142      1.0  0.20091  0.30994  0.52288  1.0000
  C   C143      1.0  0.27522  0.37721  0.50804  1.0000
  C   C144      1.0  0.33867  0.30072  0.52125  1.0000
  C   C145      1.0  0.24899  0.28788  0.46109  1.0000
  C   C146      1.0  0.18206  0.28572  0.53103  1.0000
  C   C147      1.0  0.25336  0.40315  0.50980  1.0000
  H   H227      1.0  0.25782  0.28797  0.52487  1.0000
  H   H228      1.0  0.33188  0.34105  0.51432  1.0000
  H   H229      1.0  0.06005  0.34917  0.38826  1.0000
  H   H230      1.0  0.22064  0.35593  0.51135  1.0000
  H   H231      1.0  0.23064  0.33175  0.48307  1.0000
  H   H232      1.0  0.28400  0.32863  0.48361  1.0000
  H   H233      1.0  0.21980  0.28543  0.48723  1.0000
  H   H234      1.0  0.27423  0.27857  0.49340  1.0000
  H   H235      1.0  0.19141  0.32728  0.53099  1.0000
  H   H236      1.0  0.18695  0.31190  0.50585  1.0000
  H   H237      1.0  0.27405  0.37330  0.49115  1.0000
  H   H238      1.0  0.30819  0.38008  0.51642  1.0000
  H   H239      1.0  0.01239  0.22355  0.63519  1.0000
  H   H240      1.0  0.33681  0.29581  0.50446  1.0000
  H   H241      1.0  0.40015  0.31877  0.52431  1.0000
  H   H242      1.0  0.27995  0.29209  0.45765  1.0000
  H   H243      1.0  0.24042  0.26725  0.45659  1.0000
  H   H244      1.0  0.22533  0.30080  0.45137  1.0000
  H   H245      1.0  0.18867  0.26789  0.52259  1.0000
  H   H246      1.0  0.25559  0.40833  0.52659  1.0000
  H   H247      1.0  0.26848  0.41895  0.50240  1.0000
  H   H248      1.0  0.22002  0.40203  0.50161  1.0000
  C   C148      1.0  0.46830  0.47069  0.47739  1.0000
  C   C149      1.0  0.25266  0.24012  0.62599  1.0000
  H   H249      1.0  0.47145  0.39178  0.60157  1.0000
  C   C150      1.0  0.24575  0.25215  0.60403  1.0000
  N   N8        1.0  0.27724  0.42735  0.34534  1.0000
  H   H250      1.0  0.25848  0.42971  0.37503  1.0000
  H   H251      1.0  0.23712  0.25294  0.63564  1.0000
  C   C151      1.0  0.20990  0.47213  0.37376  1.0000
  H   H252      1.0  0.21184  0.25462  0.59752  1.0000
  H   H253      1.0  0.26107  0.27169  0.60473  1.0000
  H   H254      1.0  0.39727  0.44707  0.46967  1.0000
  H   H255      1.0  0.32870  0.45848  0.50685  1.0000
  C   C152      1.0  0.30196  0.48780  0.42030  1.0000
  C   C153      1.0  0.07031  0.34183  0.40462  1.0000
  H   H256      1.0  0.19464  0.28336  0.54822  1.0000
  H   H257      1.0  0.31569  0.22960  0.62422  1.0000
  H   H258      1.0  0.36823  0.41140  0.35274  1.0000
  H   H259      1.0  0.36370  0.47158  0.45666  1.0000
  C   C154      1.0  0.29362  0.14919  0.63875  1.0000
  H   H260      1.0  0.39261  0.36962  0.33689  1.0000
  H   H261      1.0  0.42208  0.44617  0.40004  1.0000
  C   C155      1.0  0.44723  0.26375  0.38686  1.0000
  H   H262      1.0  0.44762  0.47771  0.40476  1.0000
  C   C156      1.0  0.45902  0.39237  0.40649  1.0000
  C   C157      1.0  0.28051  0.49052  0.43645  1.0000
  H   H263      1.0  0.35231  0.43393  0.49346  1.0000
  H   H264      1.0  0.06734  0.16754  0.50118  1.0000
  H   H265      1.0  0.47294  0.38812  0.39279  1.0000
  Fe  Fe17      1.0  0.02784  0.29931  0.50673  1.0000
  Fe  Fe18      1.0  0.16956  0.16046  0.65934  1.0000
  H   H266      1.0  0.22222  0.00503  0.64709  1.0000
  H   H267      1.0  0.40035  0.28801  0.44780  1.0000
  H   H268      1.0  0.43979  0.36749  0.52969  1.0000
  H   H269      1.0  0.47224  0.34046  0.40108  1.0000
  S   S35       1.0  0.21847  0.12891  0.66676  1.0000
  C   C158      1.0  0.11721  0.23503  0.66731  1.0000
  C   C159      1.0  0.40786  0.31000  0.47653  1.0000
  C   C160      1.0  0.45993  0.29098  0.39593  1.0000
  H   H270      1.0  0.01265  0.34991  0.41334  1.0000
  H   H271      1.0  0.45454  0.37596  0.43608  1.0000
  H   H272      1.0  0.25574  0.17828  0.64878  1.0000
  S   S36       1.0  0.00534  0.22929  0.56225  1.0000
  H   H273      1.0  0.08989  0.24166  0.44456  1.0000
  H   H274      1.0  0.47212  0.41123  0.41361  1.0000
  C   C161      1.0  0.49868  0.37727  0.52215  1.0000
  H   H275      1.0  0.45319  0.29089  0.46256  1.0000
  C   C162      1.0  0.02308  0.17098  0.52150  1.0000
  H   H276      1.0  0.41672  0.44046  0.34001  1.0000
  H   H277      1.0  0.49527  0.48158  0.47365  1.0000
  H   H278      1.0  0.40289  0.45505  0.36272  1.0000
  C   C163      1.0  0.44071  0.29690  0.41515  1.0000
  C   C164      1.0  0.39086  0.44924  0.34606  1.0000
  H   H279      1.0  0.21615  0.42705  0.35278  1.0000
  H   H280      1.0  0.42474  0.39437  0.40092  1.0000
  C   C165      1.0  0.42371  0.30175  0.45716  1.0000
  C   C166      1.0  0.39140  0.23068  0.66020  1.0000
  H   H281      1.0  0.40267  0.29240  0.48561  1.0000
  H   H282      1.0  0.40643  0.29837  0.40906  1.0000
  H   H283      1.0  0.22365  0.46549  0.39003  1.0000
  C   C167      1.0  0.35532  0.42933  0.34419  1.0000
  C   C168      1.0  0.24168  0.38138  0.34213  1.0000
  H   H284      1.0  0.46003  0.26054  0.37264  1.0000
  H   H285      1.0  0.37795  0.32060  0.47179  1.0000
  H   H286      1.0  0.22283  0.47285  0.34314  1.0000
  H   H287      1.0  0.39797  0.33150  0.43467  1.0000
  N   N9        1.0  0.45741  0.32089  0.42809  1.0000
  H   H288      1.0  0.44098  0.34240  0.45394  1.0000
  C   C169      1.0  0.46920  0.37070  0.42293  1.0000
  H   H289      1.0  0.45687  0.45016  0.50500  1.0000
  H   H290      1.0  0.45586  0.24402  0.66594  1.0000
  C   C170      1.0  0.28226  0.39807  0.34828  1.0000
  H   H291      1.0  0.41273  0.26195  0.38215  1.0000
  H   H292      1.0  0.07249  0.20774  0.65040  1.0000
  C   C171      1.0  0.20403  0.00692  0.65896  1.0000
  H   H293      1.0  0.31322  0.45560  0.47863  1.0000
  H   H294      1.0  0.40165  0.20996  0.66117  1.0000
  H   H295      1.0  0.42082  0.34589  0.40447  1.0000
  H   H296      1.0  0.44836  0.30515  0.38307  1.0000
  H   H297      1.0  0.24829  0.21768  0.66057  1.0000
  C   C172      1.0  0.03291  0.33265  0.41312  1.0000
  C   C173      1.0  0.36749  0.30519  0.33836  1.0000
  H   H298      1.0  0.49676  0.36036  0.60465  1.0000
  H   H299      1.0  0.14058  0.22918  0.65824  1.0000
  H   H300      1.0  0.26796  0.47746  0.36466  1.0000
  H   H301      1.0  0.02116  0.18261  0.53566  1.0000
  H   H302      1.0  0.49446  0.29210  0.40031  1.0000
  H   H303      1.0  0.03069  0.29761  0.39411  1.0000
  H   H304      1.0  0.22163  0.38445  0.35356  1.0000
  C   C174      1.0  0.49479  0.39180  0.48645  1.0000
  H   H305      1.0  0.30416  0.14055  0.65469  1.0000
  H   H306      1.0  0.47170  0.48410  0.51026  1.0000
  H   H307      1.0  0.33299  0.18398  0.66727  1.0000
  Fe  Fe19      1.0  0.24469  0.15218  0.69636  1.0000
  S   S37       1.0  0.31591  0.15791  0.70477  1.0000
  Fe  Fe20      1.0  0.15666  0.15993  0.70456  1.0000
  S   S38       1.0  0.12197  0.18032  0.72669  1.0000
  H   H308      1.0  0.08075  0.15470  0.79580  1.0000
  N   N10       1.0  0.01540  0.20136  0.67720  1.0000
  S   S39       1.0  0.20615  0.12978  0.71519  1.0000
  S   S40       1.0  0.19766  0.18411  0.68824  1.0000
  S   S41       1.0  0.43605  0.25609  0.73720  1.0000
  H   H309      1.0  0.23353  0.27228  0.69524  1.0000
  H   H310      1.0  0.07539  0.06465  0.79266  1.0000
  H   H311      1.0  0.49407  0.28646  0.91825  1.0000
  H   H312      1.0  0.04588  0.08545  0.77278  1.0000
  H   H313      1.0  0.08427  0.34526  0.97774  1.0000
  H   H314      1.0  0.40413  0.16581  0.70987  1.0000
  H   H315      1.0  0.46076  0.41720  0.98940  1.0000
  H   H316      1.0  0.06522  0.18785  0.84427  1.0000
  C   C175      1.0  0.05290  0.21946  0.67967  1.0000
  H   H317      1.0  0.45307  0.35690  0.96082  1.0000
  H   H318      1.0  0.05248  0.14319  0.82905  1.0000
  C   C176      1.0  0.34915  0.18480  0.71530  1.0000
  C   C177      1.0  0.33408  0.20768  0.72276  1.0000
  C   C178      1.0  0.36128  0.22903  0.72971  1.0000
  C   C179      1.0  0.40400  0.22779  0.72958  1.0000
  C   C180      1.0  0.41926  0.20469  0.72259  1.0000
  C   C181      1.0  0.39199  0.18341  0.71548  1.0000
  H   H319      1.0  0.30140  0.20903  0.72299  1.0000
  H   H320      1.0  0.34910  0.24672  0.73515  1.0000
  H   H321      1.0  0.45195  0.20335  0.72238  1.0000
  C   C182      1.0  0.01407  0.14377  0.75160  1.0000
  C   C183      1.0  0.08159  0.16530  0.73662  1.0000
  C   C184      1.0  0.06428  0.14116  0.72898  1.0000
  C   C185      1.0  0.03055  0.13055  0.73635  1.0000
  C   C186      1.0  0.47389  0.39891  0.90861  1.0000
  C   C187      1.0  0.03120  0.16799  0.75916  1.0000
  C   C188      1.0  0.06492  0.17863  0.75176  1.0000
  H   H322      1.0  0.07682  0.13069  0.71734  1.0000
  C   C189      1.0  0.43893  0.26884  0.89953  1.0000
  H   H323      1.0  0.00895  0.41158  0.98736  1.0000
  H   H324      1.0  0.07792  0.19743  0.75763  1.0000
  H   H325      1.0  0.13771  0.01417  0.70070  1.0000
  H   H326      1.0  0.17883  0.09803  0.76346  1.0000
  H   H327      1.0  0.45527  0.38804  0.93690  1.0000
  H   H328      1.0  0.11923  0.06350  0.82318  1.0000
  H   H329      1.0  0.01738  0.24341  0.70696  1.0000
  C   C190      1.0  0.42792  0.24700  0.67258  1.0000
  S   S42       1.0  0.15750  0.06606  0.68961  1.0000
  C   C191      1.0  0.00783  0.19555  0.90391  1.0000
  H   H330      1.0  0.03634  0.11941  0.68073  1.0000
  C   C192      1.0  0.37133  0.36073  0.95940  1.0000
  H   H331      1.0  0.12295  0.10679  0.83893  1.0000
  C   C193      1.0  0.18151  0.06822  0.84116  1.0000
  H   H332      1.0  0.18858  0.04714  0.83981  1.0000
  H   H333      1.0  0.10488  0.14779  0.84411  1.0000
  C   C194      1.0  0.47528  0.37991  0.92684  1.0000
  H   H334      1.0  0.18546  0.12097  0.79776  1.0000
  H   H335      1.0  0.01320  0.11024  0.86273  1.0000
  H   H336      1.0  0.39510  0.48303  0.99750  1.0000
  H   H337      1.0  0.40795  0.27442  0.88992  1.0000
  H   H338      1.0  0.16437  0.11707  0.82765  1.0000
  H   H339      1.0  0.49649  0.28473  0.95501  1.0000
  H   H340      1.0  0.49542  0.30772  0.97584  1.0000
  C   C195      1.0  0.43910  0.30734  0.92431  1.0000
  H   H341      1.0  0.20292  0.12983  0.76346  1.0000
  H   H342      1.0  0.04270  0.23996  0.67583  1.0000
  C   C196      1.0  0.43605  0.34074  0.95101  1.0000
  H   H343      1.0  0.44165  0.40056  0.89897  1.0000
  H   H344      1.0  0.43390  0.32488  0.96241  1.0000
  C   C197      1.0  0.46299  0.29306  0.90955  1.0000
  H   H345      1.0  0.10419  0.19531  0.67418  1.0000
  H   H346      1.0  0.21030  0.07975  0.84118  1.0000
  H   H347      1.0  0.15742  0.07205  0.80803  1.0000
  H   H348      1.0  0.02060  0.08416  0.88163  1.0000
  H   H349      1.0  0.49486  0.39223  0.89843  1.0000
  N   N11       1.0  0.46001  0.33161  0.93512  1.0000
  H   H350      1.0  0.03948  0.01799  0.68293  1.0000
  H   H351      1.0  0.04072  0.19394  0.90421  1.0000
  C   C198      1.0  0.03971  0.33111  0.95085  1.0000
  C   C199      1.0  0.02800  0.17345  0.67430  1.0000
  H   H352      1.0  0.03658  0.11829  0.79752  1.0000
  H   H353      1.0  0.05908  0.31404  0.94864  1.0000
  H   H354      1.0  0.46747  0.30604  0.89658  1.0000
  H   H355      1.0  0.09406  0.12172  0.77235  1.0000
  C   C200      1.0  0.16014  0.12685  0.78437  1.0000
  H   H356      1.0  0.37111  0.33287  0.93469  1.0000
  H   H357      1.0  0.01807  0.21108  0.93567  1.0000
  N   N12       1.0  0.03347  0.37440  0.99987  1.0000
  H   H358      1.0  0.37246  0.34617  0.97218  1.0000
  C   C201      1.0  0.05057  0.07950  0.78956  1.0000
  H   H359      1.0  0.02312  0.19338  0.71038  1.0000
  H   H360      1.0  0.43465  0.25471  0.91185  1.0000
  H   H361      1.0  0.01295  0.05975  0.80876  1.0000
  H   H362      1.0  0.38931  0.36517  0.92995  1.0000
  H   H363      1.0  0.43244  0.29304  0.93604  1.0000
  C   C202      1.0  0.39071  0.34968  0.94197  1.0000
  H   H364      1.0  0.28660  0.20955  0.68274  1.0000
  H   H365      1.0  0.04676  0.32245  0.98358  1.0000
  H   H366      1.0  0.07057  0.21995  0.69642  1.0000
  C   C203      1.0  0.17347  0.11942  0.76411  1.0000
  C   C204      1.0  0.46914  0.39802  0.99590  1.0000
  H   H367      1.0  0.02165  0.37730  0.96589  1.0000
  C   C205      1.0  0.05081  0.33965  0.97394  1.0000
  H   H368      1.0  0.15719  0.14849  0.78437  1.0000
  H   H369      1.0  0.05421  0.16802  0.68759  1.0000
  H   H370      1.0  0.48236  0.34622  0.90841  1.0000
  H   H371      1.0  0.35950  0.22449  0.68535  1.0000
  H   H372      1.0  0.43573  0.24100  0.68938  1.0000
  C   C206      1.0  0.17123  0.03491  0.68086  1.0000
  C   C207      1.0  0.02214  0.36208  0.97819  1.0000
  H   H373      1.0  0.19061  0.30480  0.99870  1.0000
  H   H374      1.0  0.27104  0.00300  0.73340  1.0000
  H   H375      1.0  0.33825  0.36579  0.95284  1.0000
  H   H376      1.0  0.13148  0.15523  0.81235  1.0000
  S   S43       1.0  0.02848  0.22825  0.99727  1.0000
  H   H377      1.0  0.00639  0.32518  0.94609  1.0000
  H   H378      1.0  0.05098  0.18846  0.81595  1.0000
  H   H379      1.0  0.00323  0.04900  0.78173  1.0000
  H   H380      1.0  0.13371  0.23964  0.68375  1.0000
  H   H381      1.0  0.04598  0.34723  0.94054  1.0000
  H   H382      1.0  0.23551  0.23763  0.70032  1.0000
  H   H383      1.0  0.12056  0.09266  0.78119  1.0000
  Fe  Fe21      1.0  0.17647  0.10874  0.68500  1.0000
  C   C208      1.0  0.00492  0.39745  0.99980  1.0000
  H   H384      1.0  0.10481  0.19351  0.82963  1.0000
  N   N13       1.0  0.10413  0.11640  0.80591  1.0000
  C   C209      1.0  0.46084  0.35214  0.91857  1.0000
  C   C210      1.0  0.06145  0.10397  0.80404  1.0000
  C   C211      1.0  0.10053  0.14535  0.80989  1.0000
  C   C212      1.0  0.13510  0.10523  0.82434  1.0000
  C   C213      1.0  0.14652  0.07613  0.82263  1.0000
  H   H385      1.0  0.45662  0.25905  0.88905  1.0000
  C   C214      1.0  0.08271  0.15300  0.82925  1.0000
  C   C215      1.0  0.11814  0.11351  0.78544  1.0000
  H   H386      1.0  0.14935  0.12518  0.75009  1.0000
  H   H387      1.0  0.30178  0.25460  0.69326  1.0000
  H   H388      1.0  0.38819  0.37877  0.96618  1.0000
  C   C216      1.0  0.07560  0.18252  0.82972  1.0000
  C   C217      1.0  0.15636  0.01217  0.68908  1.0000
  S   S44       1.0  0.12508  0.13849  0.67511  1.0000
  H   H389      1.0  0.05634  0.09883  0.81991  1.0000
  S   S45       1.0  0.10879  0.28521  0.99860  1.0000
  H   H390      1.0  0.01740  0.11183  0.73036  1.0000
  C   C218      1.0  0.39653  0.00877  0.67849  1.0000
  H   H391      1.0  0.08710  0.38883  0.98873  1.0000
  C   C219      1.0  0.01019  0.06635  0.79227  1.0000
  H   H392      1.0  0.40798  0.31227  0.91442  1.0000
  H   H393      1.0  0.17205  0.07135  0.85634  1.0000
  H   H394      1.0  0.42977  0.35382  0.90763  1.0000
  H   H395      1.0  0.47688  0.48958  0.97280  1.0000
  H   H396      1.0  0.01852  0.17848  0.77074  1.0000
  H   H397      1.0  0.48458  0.41860  0.91493  1.0000
  Fe  Fe22      1.0  0.04275  0.27144  0.99918  1.0000
  H   H398      1.0  0.41991  0.01071  0.69362  1.0000
  H   H399      1.0  0.00410  0.22098  0.73852  1.0000
  C   C220      1.0  0.00935  0.12531  0.66814  1.0000
  C   C221      1.0  0.23539  0.25272  0.68805  1.0000
  H   H400      1.0  0.26473  0.00881  0.70558  1.0000
  H   H401      1.0  0.34402  0.00535  0.69268  1.0000
  H   H402      1.0  0.38734  0.02871  0.67254  1.0000
  C   C222      1.0  0.27511  0.25109  0.67969  1.0000
  H   H403      1.0  0.42029  0.26817  0.67171  1.0000
  C   C223      1.0  0.35219  0.23368  0.66952  1.0000
  H   H404      1.0  0.34910  0.25499  0.67239  1.0000
  C   C224      1.0  0.27947  0.22394  0.66967  1.0000
  H   H405      1.0  0.20757  0.24990  0.67504  1.0000
  H   H406      1.0  0.27486  0.26707  0.66817  1.0000
  C   C225      1.0  0.40387  0.53919  0.13561  1.0000
  C   C226      1.0  0.13069  0.62228  0.00630  1.0000
  H   H407      1.0  0.23901  0.63005  0.10337  1.0000
  Fe  Fe23      1.0  0.39847  0.78698  0.25447  1.0000
  S   S46       1.0  0.38157  0.74454  0.25754  1.0000
  S   S47       1.0  0.35923  0.82330  0.24452  1.0000
  Fe  Fe24      1.0  0.42407  0.74591  0.29004  1.0000
  S   S48       1.0  0.41524  0.73611  0.32327  1.0000
  Fe  Fe25      1.0  0.44062  0.73698  0.24600  1.0000
  S   S49       1.0  0.44724  0.70430  0.22273  1.0000
  S   S50       1.0  0.43632  0.78891  0.28742  1.0000
  S   S51       1.0  0.45504  0.77948  0.24122  1.0000
  Fe  Fe26      1.0  0.37249  0.66665  0.09617  1.0000
  S   S52       1.0  0.31089  0.64972  0.07915  1.0000
  S   S53       1.0  0.37303  0.69552  0.12327  1.0000
  Fe  Fe27      1.0  0.41641  0.64694  0.06189  1.0000
  S   S54       1.0  0.35765  0.62908  0.04241  1.0000
  H   H408      1.0  0.39736  0.86757  0.31073  1.0000
  Fe  Fe28      1.0  0.32565  0.66582  0.04974  1.0000
  S   S55       1.0  0.27866  0.68668  0.02403  1.0000
  Fe  Fe29      1.0  0.34647  0.61399  0.07310  1.0000
  S   S56       1.0  0.31372  0.57463  0.07495  1.0000
  S   S57       1.0  0.38556  0.68493  0.06674  1.0000
  S   S58       1.0  0.40723  0.62958  0.09260  1.0000
  Fe  Fe30      1.0  0.11878  0.86070  0.20201  1.0000
  H   H409      1.0  0.45200  0.94292  0.23280  1.0000
  S   S59       1.0  0.16135  0.82675  0.21528  1.0000
  Fe  Fe31      1.0  0.09729  0.91700  0.18784  1.0000
  S   S60       1.0  0.12525  0.95820  0.19303  1.0000
  S   S61       1.0  0.09729  0.89548  0.21806  1.0000
  S   S62       1.0  0.12391  0.88275  0.17290  1.0000
  S   S63       1.0  0.02901  0.84514  0.13149  1.0000
  H   H410      1.0  0.20790  0.79171  0.26347  1.0000
  H   H411      1.0  0.13829  0.90390  0.11313  1.0000
  H   H412      1.0  0.10927  0.60571  0.00734  1.0000
  C   C227      1.0  0.15551  0.63046  0.02852  1.0000
  H   H413      1.0  0.04577  0.97249  0.16530  1.0000
  H   H414      1.0  0.28937  0.80054  0.19045  1.0000
  C   C228      1.0  0.33469  0.54347  0.07130  1.0000
  H   H415      1.0  0.17369  0.89900  0.13818  1.0000
  C   C229      1.0  0.37626  0.54038  0.07002  1.0000
  H   H416      1.0  0.22809  0.66206  0.09158  1.0000
  H   H417      1.0  0.39647  0.55738  0.07113  1.0000
  C   C230      1.0  0.22802  0.69657  0.02610  1.0000
  H   H418      1.0  0.08257  0.65187  0.00524  1.0000
  H   H419      1.0  0.21275  0.80719  0.17832  1.0000
  C   C231      1.0  0.14472  0.70922  0.02727  1.0000
  C   C232      1.0  0.17253  0.69969  0.04527  1.0000
  C   C233      1.0  0.21415  0.69387  0.04480  1.0000
  H   H420      1.0  0.35841  0.69156  0.30823  1.0000
  H   H421      1.0  0.16174  0.69672  0.05962  1.0000
  H   H422      1.0  0.23537  0.68700  0.05882  1.0000
  C   C234      1.0  0.44627  0.87687  0.29428  1.0000
  C   C235      1.0  0.20047  0.70660  0.00824  1.0000
  C   C236      1.0  0.30437  0.82382  0.23539  1.0000
  C   C237      1.0  0.28051  0.80082  0.23243  1.0000
  C   C238      1.0  0.23679  0.80209  0.22595  1.0000
  C   C239      1.0  0.21654  0.82631  0.22206  1.0000
  C   C240      1.0  0.24048  0.84929  0.22444  1.0000
  C   C241      1.0  0.28419  0.84803  0.23119  1.0000
  H   H423      1.0  0.29583  0.78209  0.23490  1.0000
  H   H424      1.0  0.21852  0.78419  0.22391  1.0000
  H   H425      1.0  0.22529  0.86805  0.22150  1.0000
  H   H426      1.0  0.30245  0.86593  0.23331  1.0000
  C   C242      1.0  0.42554  0.70199  0.19514  1.0000
  C   C243      1.0  0.43368  0.67964  0.18402  1.0000
  C   C244      1.0  0.41730  0.67700  0.16214  1.0000
  C   C245      1.0  0.39264  0.69678  0.15107  1.0000
  C   C246      1.0  0.38441  0.71908  0.16219  1.0000
  C   C247      1.0  0.40073  0.72172  0.18406  1.0000
  H   H427      1.0  0.45270  0.66423  0.19245  1.0000
  H   H428      1.0  0.42370  0.65969  0.15389  1.0000
  H   H429      1.0  0.36537  0.73452  0.15382  1.0000
  H   H430      1.0  0.39414  0.73900  0.19234  1.0000
  C   C248      1.0  0.14804  0.86312  0.12187  1.0000
  H   H431      1.0  0.29345  0.79455  0.16381  1.0000
  H   H432      1.0  0.30655  0.73720  0.32755  1.0000
  C   C249      1.0  0.09388  0.78564  0.16633  1.0000
  C   C250      1.0  0.28335  0.71324  0.26561  1.0000
  H   H433      1.0  0.46958  0.85271  0.23430  1.0000
  S   S64       1.0  0.48183  0.64261  0.05549  1.0000
  H   H434      1.0  0.11865  0.94691  0.27828  1.0000
  C   C251      1.0  0.13902  0.81364  0.14811  1.0000
  H   H435      1.0  0.24388  0.83057  0.16768  1.0000
  H   H436      1.0  0.19038  0.89258  0.11394  1.0000
  C   C252      1.0  0.15515  0.54471  0.06482  1.0000
  C   C253      1.0  0.18516  0.63120  0.07686  1.0000
  H   H437      1.0  0.37325  0.54838  0.13536  1.0000
  H   H438      1.0  0.24930  0.70984  0.26002  1.0000
  C   C254      1.0  0.15398  0.80707  0.11255  1.0000
  C   C255      1.0  0.10669  0.93446  0.26420  1.0000
  H   H439      1.0  0.44273  0.66835  0.01565  1.0000
  C   C256      1.0  0.43065  0.59002  0.01565  1.0000
  H   H440      1.0  0.06219  0.98058  0.26290  1.0000
  N   N14       1.0  0.28064  0.77792  0.29794  1.0000
  H   H441      1.0  0.40361  0.92602  0.22210  1.0000
  C   C257      1.0  0.27322  0.75820  0.28016  1.0000
  C   C258      1.0  0.26065  0.80328  0.28913  1.0000
  H   H442      1.0  0.46686  0.88429  0.30898  1.0000
  H   H443      1.0  0.16978  0.61413  0.08250  1.0000
  C   C259      1.0  0.29220  0.73074  0.28521  1.0000
  C   C260      1.0  0.44933  0.90239  0.24305  1.0000
  N   N15       1.0  0.18475  0.61028  0.04044  1.0000
  H   H444      1.0  0.34061  0.78752  0.29121  1.0000
  H   H445      1.0  0.19584  0.79132  0.28913  1.0000
  H   H446      1.0  0.28532  0.76611  0.26675  1.0000
  H   H447      1.0  0.27665  0.81130  0.27702  1.0000
  C   C261      1.0  0.32683  0.78312  0.30503  1.0000
  H   H448      1.0  0.49193  0.75413  0.14015  1.0000
  H   H449      1.0  0.39385  0.84940  0.28665  1.0000
  H   H450      1.0  0.49486  0.70585  0.04632  1.0000
  C   C262      1.0  0.40557  0.51166  0.14495  1.0000
  H   H451      1.0  0.32647  0.73190  0.29096  1.0000
  H   H452      1.0  0.29572  0.72225  0.25271  1.0000
  C   C263      1.0  0.21438  0.60032  0.02759  1.0000
  C   C264      1.0  0.39179  0.51521  0.06742  1.0000
  C   C265      1.0  0.18423  0.56616  0.05998  1.0000
  C   C266      1.0  0.23334  0.80986  0.16710  1.0000
  Fe  Fe32      1.0  0.02254  0.79972  0.01637  1.0000
  H   H453      1.0  0.12020  0.81161  0.10773  1.0000
  H   H454      1.0  0.23932  0.75466  0.27408  1.0000
  H   H455      1.0  0.42777  0.89336  0.28606  1.0000
  N   N16       1.0  0.17126  0.81624  0.13497  1.0000
  C   C267      1.0  0.21331  0.80188  0.27893  1.0000
  H   H456      1.0  0.42464  0.88895  0.24597  1.0000
  C   C268      1.0  0.26102  0.76873  0.31565  1.0000
  H   H457      1.0  0.16100  0.64579  0.07030  1.0000
  C   C269      1.0  0.20988  0.62292  0.06020  1.0000
  C   C270      1.0  0.30886  0.52114  0.06982  1.0000
  H   H458      1.0  0.43866  0.72479  0.10182  1.0000
  H   H459      1.0  0.49957  0.60607  0.00458  1.0000
  H   H460      1.0  0.12056  0.86334  0.12906  1.0000
  C   C271      1.0  0.48563  0.90551  0.26261  1.0000
  H   H461      1.0  0.21923  0.63614  0.00900  1.0000
  H   H462      1.0  0.39780  0.75236  0.12090  1.0000
  H   H463      1.0  0.13752  0.85691  0.10519  1.0000
  C   C272      1.0  0.42886  0.92872  0.23644  1.0000
  H   H464      1.0  0.13236  0.55302  0.07330  1.0000
  H   H465      1.0  0.47323  0.69460  0.08135  1.0000
  H   H466      1.0  0.16182  0.82769  0.26616  1.0000
  H   H467      1.0  0.19118  0.85327  0.15056  1.0000
  C   C273      1.0  0.06064  0.99013  0.17265  1.0000
  C   C274      1.0  0.19488  0.82926  0.27485  1.0000
  H   H468      1.0  0.22538  0.64091  0.05611  1.0000
  H   H469      1.0  0.43304  0.84122  0.30994  1.0000
  C   C275      1.0  0.36149  0.69374  0.32502  1.0000
  H   H470      1.0  0.12457  0.93890  0.25199  1.0000
  C   C276      1.0  0.16377  0.89135  0.12183  1.0000
  S   S65       1.0  0.03093  0.90689  0.17248  1.0000
  C   C277      1.0  0.46359  0.74308  0.13222  1.0000
  H   H471      1.0  0.11002  0.79301  0.18211  1.0000
  H   H472      1.0  0.46144  0.89496  0.22956  1.0000
  H   H473      1.0  0.07392  0.97292  0.23845  1.0000
  H   H474      1.0  0.26336  0.77247  0.17651  1.0000
  C   C278      1.0  0.21388  0.64375  0.09609  1.0000
  Fe  Fe33      1.0  0.49251  0.77901  0.27484  1.0000
  H   H475      1.0  0.20131  0.57444  0.07524  1.0000
  C   C279      1.0  0.47154  0.86359  0.27970  1.0000
  H   H476      1.0  0.19568  0.64880  0.10798  1.0000
  H   H477      1.0  0.13190  0.63614  0.03752  1.0000
  H   H478      1.0  0.26105  0.63188  0.03174  1.0000
  H   H479      1.0  0.43328  0.77897  0.11873  1.0000
  C   C280      1.0  0.04492  0.86558  0.09450  1.0000
  H   H480      1.0  0.34334  0.76540  0.31197  1.0000
  H   H481      1.0  0.03046  0.80134  0.10444  1.0000
  C   C281      1.0  0.21065  0.80164  0.14447  1.0000
  C   C282      1.0  0.16000  0.77784  0.10728  1.0000
  C   C283      1.0  0.13357  0.77038  0.08562  1.0000
  C   C284      1.0  0.27217  0.79326  0.17485  1.0000
  H   H482      1.0  0.23336  0.80385  0.13416  1.0000
  H   H483      1.0  0.20469  0.78030  0.14509  1.0000
  H   H484      1.0  0.14969  0.77246  0.15798  1.0000
  H   H485      1.0  0.10563  0.77767  0.13607  1.0000
  H   H486      1.0  0.19319  0.77443  0.10695  1.0000
  H   H487      1.0  0.15176  0.76427  0.11894  1.0000
  H   H488      1.0  0.14059  0.78349  0.07323  1.0000
  H   H489      1.0  0.09988  0.77164  0.08558  1.0000
  C   C285      1.0  0.03544  0.81871  0.09581  1.0000
  H   H490      1.0  0.14344  0.57728  0.03080  1.0000
  C   C286      1.0  0.18255  0.84495  0.13434  1.0000
  S   S66       1.0  0.05285  0.84749  0.18869  1.0000
  C   C287      1.0  0.26612  0.60922  0.00473  1.0000
  S   S67       1.0  0.09130  0.71282  0.02780  1.0000
  H   H491      1.0  0.14035  0.74993  0.08165  1.0000
  H   H492      1.0  0.11171  0.91360  0.26878  1.0000
  H   H493      1.0  0.41489  0.93683  0.24912  1.0000
  C   C288      1.0  0.46966  0.73161  0.11110  1.0000
  S   S68       1.0  0.00772  0.76210  0.03070  1.0000
  H   H494      1.0  0.29868  0.69402  0.26948  1.0000
  Fe  Fe34      1.0  0.05687  0.87086  0.16003  1.0000
  H   H495      1.0  0.04907  0.92556  0.24225  1.0000
  C   C289      1.0  0.04257  0.83883  0.06297  1.0000
  C   C290      1.0  0.09942  0.98852  0.18669  1.0000
  C   C291      1.0  0.12353  0.78563  0.15129  1.0000
  Fe  Fe35      1.0  0.03187  0.88404  0.20211  1.0000
  H   H496      1.0  0.19610  0.83977  0.28991  1.0000
  C   C292      1.0  0.33919  0.80608  0.32095  1.0000
  H   H497      1.0  0.48305  0.68989  0.13844  1.0000
  H   H498      1.0  0.40231  0.51353  0.16153  1.0000
  H   H499      1.0  0.06643  0.79814  0.16011  1.0000
  C   C293      1.0  0.05192  0.96799  0.24871  1.0000
  C   C294      1.0  0.23963  0.62151  0.01867  1.0000
  C   C295      1.0  0.03801  0.81647  0.07460  1.0000
  H   H500      1.0  0.01286  0.97215  0.28078  1.0000
  C   C296      1.0  0.15917  0.71314  0.00886  1.0000
  H   H501      1.0  0.27659  0.52334  0.07063  1.0000
  H   H502      1.0  0.15020  0.82293  0.16386  1.0000
  H   H503      1.0  0.11066  0.82468  0.14083  1.0000
  H   H504      1.0  0.21050  0.84740  0.12745  1.0000
  H   H505      1.0  0.43318  0.50752  0.00901  1.0000
  H   H506      1.0  0.16893  0.81809  0.10137  1.0000
  H   H507      1.0  0.17259  0.64892  0.02690  1.0000
  H   H508      1.0  0.24986  0.78568  0.32361  1.0000
  H   H509      1.0  0.42364  0.77014  0.14406  1.0000
  H   H510      1.0  0.20718  0.55666  0.05226  1.0000
  H   H511      1.0  0.40877  0.53847  0.11927  1.0000
  H   H512      1.0  0.13811  0.53509  0.05006  1.0000
  H   H513      1.0  0.21216  0.84083  0.26507  1.0000
  Fe  Fe36      1.0  0.04634  0.74340  0.01012  1.0000
  H   H514      1.0  0.47851  0.74879  0.10262  1.0000
  H   H515      1.0  0.23595  0.61006  0.06797  1.0000
  H   H516      1.0  0.08265  0.76541  0.16813  1.0000
  C   C297      1.0  0.03850  0.84327  0.10582  1.0000
  H   H517      1.0  0.27796  0.72081  0.29704  1.0000
  H   H518      1.0  0.42873  0.55167  0.14527  1.0000
  H   H519      1.0  0.39755  0.58411  0.01411  1.0000
  C   C298      1.0  0.04687  0.86334  0.07314  1.0000
  C   C299      1.0  0.15939  0.58747  0.04553  1.0000
  H   H520      1.0  0.33844  0.82477  0.31215  1.0000
  H   H521      1.0  0.45254  0.68166  0.11360  1.0000
  H   H522      1.0  0.19765  0.58782  0.01433  1.0000
  H   H523      1.0  0.23804  0.58730  0.03731  1.0000
  H   H524      1.0  0.13376  0.59443  0.05276  1.0000
  H   H525      1.0  0.04395  0.93398  0.26831  1.0000
  H   H526      1.0  0.40620  0.80079  0.32483  1.0000
  H   H527      1.0  0.42402  0.51307  0.06654  1.0000
  C   C300      1.0  0.41577  0.85752  0.30074  1.0000
  H   H528      1.0  0.04688  0.88463  0.10195  1.0000
  S   S69       1.0  0.48222  0.73582  0.27894  1.0000
  H   H529      1.0  0.02623  0.87708  0.25487  1.0000
  H   H530      1.0  0.05068  0.88075  0.06430  1.0000
  C   C301      1.0  0.47500  0.66452  0.01560  1.0000
  C   C302      1.0  0.06021  0.93913  0.25563  1.0000
  H   H531      1.0  0.49222  0.82827  0.25290  1.0000
  S   S70       1.0  0.04149  0.83697  0.03566  1.0000
  H   H532      1.0  0.44813  0.85580  0.26606  1.0000
  H   H533      1.0  0.31723  0.80788  0.33156  1.0000
  H   H534      1.0  0.45691  0.72769  0.14293  1.0000
  H   H535      1.0  0.49049  0.73968  0.07232  1.0000
  H   H536      1.0  0.26456  0.81847  0.30168  1.0000
  H   H537      1.0  0.28784  0.59464  0.01375  1.0000
  H   H538      1.0  0.17372  0.52965  0.07499  1.0000
  H   H539      1.0  0.47507  0.91817  0.27432  1.0000
  H   H540      1.0  0.23243  0.75693  0.30915  1.0000
  C   C303      1.0  0.48522  0.68616  0.12195  1.0000
  H   H541      1.0  0.03593  0.79747  0.06714  1.0000
  H   H542      1.0  0.48657  0.84589  0.28791  1.0000
  H   H543      1.0  0.44904  0.58255  0.03088  1.0000
  N   N17       1.0  0.00776  0.97412  0.23747  1.0000
  C   C304      1.0  0.42737  0.76233  0.12866  1.0000
  H   H544      1.0  0.02689  0.96713  0.20799  1.0000
  H   H545      1.0  0.43236  0.61174  0.01579  1.0000
  H   H546      1.0  0.01097  0.87432  0.29060  1.0000
  H   H547      1.0  0.31891  0.66195  0.32722  1.0000
  H   H548      1.0  0.46872  0.63576  0.13460  1.0000
  H   H549      1.0  0.34114  0.50245  0.13625  1.0000
  H   H550      1.0  0.00377  0.75027  0.07827  1.0000
  H   H551      1.0  0.43680  0.50370  0.14528  1.0000
  C   C305      1.0  0.49941  0.84489  0.24336  1.0000
  C   C306      1.0  0.28898  0.75263  0.33358  1.0000
  C   C307      1.0  0.50040  0.65214  0.03288  1.0000
  C   C308      1.0  0.03766  0.90177  0.36213  1.0000
  H   H552      1.0  0.45929  0.52151  0.47550  1.0000
  H   H553      1.0  0.13537  0.84297  0.50274  1.0000
  S   S71       1.0  0.12334  0.82352  0.63752  1.0000
  Fe  Fe37      1.0  0.38030  0.64458  0.44982  1.0000
  S   S72       1.0  0.35815  0.61622  0.42301  1.0000
  S   S73       1.0  0.45054  0.64180  0.46273  1.0000
  Fe  Fe38      1.0  0.29239  0.66766  0.44587  1.0000
  S   S74       1.0  0.26547  0.64055  0.41891  1.0000
  S   S75       1.0  0.25256  0.70125  0.45450  1.0000
  Fe  Fe39      1.0  0.30389  0.60898  0.43788  1.0000
  S   S76       1.0  0.27670  0.56945  0.44485  1.0000
  Fe  Fe40      1.0  0.32232  0.65032  0.40621  1.0000
  S   S77       1.0  0.31420  0.65735  0.37069  1.0000
  S   S78       1.0  0.32781  0.63550  0.46586  1.0000
  S   S79       1.0  0.34752  0.67911  0.43205  1.0000
  Fe  Fe41      1.0  0.04397  0.73613  0.49816  1.0000
  S   S80       1.0  0.04043  0.77855  0.48895  1.0000
  S   S81       1.0  0.09757  0.70716  0.49912  1.0000
  H   H554      1.0  0.49815  0.71414  0.44562  1.0000
  H   H555      1.0  0.41193  0.73037  0.36658  1.0000
  H   H556      1.0  0.07315  0.86170  0.56663  1.0000
  C   C309      1.0  0.28712  0.53832  0.43509  1.0000
  C   C310      1.0  0.30893  0.53555  0.41906  1.0000
  C   C311      1.0  0.27295  0.51566  0.44371  1.0000
  H   H557      1.0  0.31989  0.55280  0.41225  1.0000
  H   H558      1.0  0.25595  0.51762  0.45606  1.0000
  C   C312      1.0  0.14172  0.70654  0.48744  1.0000
  C   C313      1.0  0.15402  0.72815  0.47703  1.0000
  C   C314      1.0  0.18857  0.72630  0.46752  1.0000
  C   C315      1.0  0.21114  0.70287  0.46813  1.0000
  C   C316      1.0  0.19923  0.68143  0.47886  1.0000
  C   C317      1.0  0.16488  0.68332  0.48849  1.0000
  H   H559      1.0  0.13677  0.74619  0.47617  1.0000
  H   H560      1.0  0.19755  0.74306  0.45936  1.0000
  H   H561      1.0  0.21631  0.66331  0.47961  1.0000
  H   H562      1.0  0.15585  0.66651  0.49658  1.0000
  H   H563      1.0  0.11002  0.79320  0.54244  1.0000
  H   H564      1.0  0.10387  0.69706  0.55041  1.0000
  C   C318      1.0  0.37009  0.69825  0.36880  1.0000
  C   C319      1.0  0.34357  0.67887  0.35784  1.0000
  C   C320      1.0  0.20687  0.79310  0.59539  1.0000
  C   C321      1.0  0.12587  0.82373  0.50815  1.0000
  H   H565      1.0  0.37371  0.70013  0.38566  1.0000
  H   H566      1.0  0.25693  0.73149  0.53661  1.0000
  H   H567      1.0  0.03492  0.69434  0.44870  1.0000
  C   C322      1.0  0.11509  0.71336  0.56163  1.0000
  C   C323      1.0  0.45921  0.65459  0.50491  1.0000
  C   C324      1.0  0.47845  0.64626  0.48899  1.0000
  H   H568      1.0  0.03168  0.78111  0.66303  1.0000
  C   C325      1.0  0.48998  0.58607  0.55081  1.0000
  H   H569      1.0  0.42611  0.65851  0.50128  1.0000
  H   H570      1.0  0.06302  0.69594  0.38151  1.0000
  C   C326      1.0  0.06514  0.70231  0.42258  1.0000
  C   C327      1.0  0.14278  0.63126  0.43586  1.0000
  C   C328      1.0  0.09947  0.82301  0.61012  1.0000
  C   C329      1.0  0.08301  0.79920  0.60071  1.0000
  C   C330      1.0  0.06322  0.79784  0.57914  1.0000
  C   C331      1.0  0.05936  0.82038  0.56669  1.0000
  C   C332      1.0  0.07592  0.84413  0.57608  1.0000
  C   C333      1.0  0.09603  0.84546  0.59761  1.0000
  H   H571      1.0  0.08570  0.78168  0.61020  1.0000
  H   H572      1.0  0.05092  0.77940  0.57216  1.0000
  H   H573      1.0  0.31220  0.76556  0.34383  1.0000
  H   H574      1.0  0.10845  0.86390  0.60457  1.0000
  H   H575      1.0  0.19786  0.81793  0.56815  1.0000
  H   H576      1.0  0.46776  0.66422  0.53789  1.0000
  H   H577      1.0  0.04371  0.99204  0.66459  1.0000
  H   H578      1.0  0.47747  0.59409  0.51666  1.0000
  H   H579      1.0  0.03356  0.67631  0.34681  1.0000
  C   C334      1.0  0.48290  0.65788  0.52561  1.0000
  H   H580      1.0  0.28444  0.72869  0.36044  1.0000
  H   H581      1.0  0.13344  0.63735  0.45054  1.0000
  H   H582      1.0  0.22191  0.71304  0.37897  1.0000
  H   H583      1.0  0.38433  0.78518  0.34475  1.0000
  H   H584      1.0  0.42154  0.56574  0.48037  1.0000
  H   H585      1.0  0.02907  0.81858  0.43289  1.0000
  H   H586      1.0  0.12542  0.76399  0.57196  1.0000
  H   H587      1.0  0.39143  0.82023  0.34506  1.0000
  H   H588      1.0  0.01896  0.72423  0.43464  1.0000
  H   H589      1.0  0.02118  0.87760  0.42328  1.0000
  H   H590      1.0  0.06907  0.72266  0.45245  1.0000
  H   H591      1.0  0.13613  0.70523  0.57587  1.0000
  H   H592      1.0  0.20488  0.61975  0.45297  1.0000
  C   C335      1.0  0.38773  0.71327  0.33598  1.0000
  C   C336      1.0  0.04658  0.66344  0.36037  1.0000
  H   H593      1.0  0.07642  0.72008  0.41580  1.0000
  H   H594      1.0  0.20352  0.77804  0.51693  1.0000
  C   C337      1.0  0.39405  0.53003  0.46451  1.0000
  C   C338      1.0  0.33924  0.67688  0.33587  1.0000
  H   H595      1.0  0.12660  0.71271  0.39993  1.0000
  C   C339      1.0  0.29038  0.92851  0.63243  1.0000
  H   H596      1.0  0.16526  0.72355  0.54729  1.0000
  C   C340      1.0  0.03696  0.88209  0.38022  1.0000
  H   H597      1.0  0.24174  0.82980  0.60271  1.0000
  H   H598      1.0  0.03972  0.69295  0.41071  1.0000
  H   H599      1.0  0.01324  0.82950  0.39404  1.0000
  C   C341      1.0  0.39141  0.55487  0.47724  1.0000
  H   H600      1.0  0.16574  0.59436  0.45038  1.0000
  C   C342      1.0  0.15250  0.81765  0.52993  1.0000
  H   H601      1.0  0.38279  0.55003  0.49235  1.0000
  H   H602      1.0  0.28280  0.93992  0.61759  1.0000
  Fe  Fe42      1.0  0.16010  0.85516  0.65953  1.0000
  H   H603      1.0  0.12145  0.69037  0.44462  1.0000
  H   H604      1.0  0.49630  0.60737  0.55406  1.0000
  H   H605      1.0  0.18446  0.74711  0.52337  1.0000
  C   C343      1.0  0.14070  0.79079  0.53822  1.0000
  H   H606      1.0  0.42450  0.61766  0.53275  1.0000
  C   C344      1.0  0.17719  0.61095  0.44215  1.0000
  H   H607      1.0  0.33241  0.50858  0.39903  1.0000
  H   H608      1.0  0.17499  0.74885  0.57962  1.0000
  H   H609      1.0  0.07331  0.64973  0.40038  1.0000
  C   C345      1.0  0.10043  0.68234  0.43018  1.0000
  H   H610      1.0  0.06125  0.64631  0.35445  1.0000
  H   H611      1.0  0.28440  0.96146  0.65174  1.0000
  C   C346      1.0  0.21243  0.77214  0.55115  1.0000
  H   H612      1.0  0.23511  0.78220  0.59389  1.0000
  H   H613      1.0  0.08773  0.72236  0.56612  1.0000
  H   H614      1.0  0.36706  0.56789  0.46814  1.0000
  H   H615      1.0  0.04584  0.89347  0.39506  1.0000
  C   C347      1.0  0.46227  0.58407  0.52814  1.0000
  H   H616      1.0  0.02053  0.65656  0.36737  1.0000
  H   H617      1.0  0.22846  0.75714  0.56242  1.0000
  H   H618      1.0  0.13414  0.77684  0.52480  1.0000
  H   H619      1.0  0.18682  0.60310  0.42804  1.0000
  C   C348      1.0  0.04596  0.71132  0.44072  1.0000
  H   H620      1.0  0.10541  0.90276  0.36674  1.0000
  H   H621      1.0  0.24589  0.75413  0.35466  1.0000
  H   H622      1.0  0.47024  0.57970  0.56175  1.0000
  H   H623      1.0  0.14722  0.83353  0.54073  1.0000
  H   H624      1.0  0.03375  0.89161  0.34674  1.0000
  H   H625      1.0  0.40024  0.53633  0.44916  1.0000
  H   H626      1.0  0.09249  0.82481  0.50881  1.0000
  H   H627      1.0  0.10292  0.68604  0.36859  1.0000
  C   C349      1.0  0.07871  0.67870  0.37664  1.0000
  C   C350      1.0  0.09870  0.66105  0.39554  1.0000
  C   C351      1.0  0.39174  0.71539  0.35791  1.0000
  N   N18       1.0  0.12581  0.67443  0.41452  1.0000
  C   C352      1.0  0.14847  0.69831  0.40893  1.0000
  H   H628      1.0  0.11672  0.64608  0.38888  1.0000
  C   C353      1.0  0.15850  0.65528  0.42525  1.0000
  C   C354      1.0  0.18273  0.69280  0.39654  1.0000
  H   H629      1.0  0.40144  0.58619  0.53623  1.0000
  H   H630      1.0  0.20793  0.73252  0.39940  1.0000
  H   H631      1.0  0.26116  0.91921  0.63480  1.0000
  H   H632      1.0  0.16414  0.70898  0.42354  1.0000
  H   H633      1.0  0.11645  0.73972  0.53640  1.0000
  H   H634      1.0  0.08463  0.66508  0.43539  1.0000
  H   H635      1.0  0.18242  0.66535  0.43749  1.0000
  H   H636      1.0  0.17578  0.64739  0.41376  1.0000
  H   H637      1.0  0.31299  0.91303  0.63081  1.0000
  H   H638      1.0  0.21082  0.68505  0.40744  1.0000
  C   C355      1.0  0.19623  0.71772  0.38690  1.0000
  H   H639      1.0  0.18779  0.78060  0.60364  1.0000
  C   C356      1.0  0.42017  0.59720  0.52683  1.0000
  C   C357      1.0  0.20970  0.76170  0.52838  1.0000
  Fe  Fe43      1.0  0.01321  0.78487  0.51760  1.0000
  H   H640      1.0  0.16988  0.72596  0.37508  1.0000
  H   H641      1.0  0.12990  0.80852  0.49656  1.0000
  H   H642      1.0  0.15115  0.80954  0.57606  1.0000
  C   C358      1.0  0.42916  0.51169  0.47606  1.0000
  H   H643      1.0  0.24778  0.74238  0.50973  1.0000
  H   H644      1.0  0.00729  0.74950  0.63393  1.0000
  H   H645      1.0  0.27682  0.76305  0.53044  1.0000
  H   H646      1.0  0.40252  0.59776  0.51019  1.0000
  H   H647      1.0  0.33595  0.95680  0.64705  1.0000
  H   H648      1.0  0.45608  0.56346  0.52302  1.0000
  H   H649      1.0  0.11577  0.62172  0.42514  1.0000
  H   H650      1.0  0.23472  0.78898  0.55311  1.0000
  C   C359      1.0  0.15263  0.75716  0.56588  1.0000
  H   H651      1.0  0.19310  0.82850  0.61136  1.0000
  H   H652      1.0  0.17219  0.67816  0.38383  1.0000
  N   N19       1.0  0.17198  0.78002  0.55676  1.0000
  C   C360      1.0  0.25041  0.74893  0.52627  1.0000
  C   C361      1.0  0.22060  0.81702  0.60946  1.0000
  C   C362      1.0  0.13808  0.73360  0.55109  1.0000
  C   C363      1.0  0.02322  0.83924  0.43669  1.0000
  H   H653      1.0  0.36335  0.51996  0.46141  1.0000
  S   S82       1.0  0.03439  0.81996  0.53945  1.0000
  H   H654      1.0  0.23750  0.81059  0.62534  1.0000
  C   C364      1.0  0.26329  0.73939  0.34754  1.0000
  S   S83       1.0  0.02100  0.74307  0.52793  1.0000
  S   S84       1.0  0.19984  0.95300  0.65738  1.0000
  H   H655      1.0  0.06298  0.86808  0.38076  1.0000
  C   C365      1.0  0.18088  0.80124  0.57347  1.0000
  H   H656      1.0  0.06157  0.85700  0.41788  1.0000
  C   C366      1.0  0.07920  0.91659  0.36588  1.0000
  H   H657      1.0  0.18577  0.81827  0.52904  1.0000
  S   S85       1.0  0.21509  0.87778  0.65354  1.0000
  H   H658      1.0  0.01271  0.91653  0.36097  1.0000
  H   H659      1.0  0.08420  0.92817  0.38070  1.0000
  C   C367      1.0  0.30849  0.94678  0.65086  1.0000
  C   C368      1.0  0.01708  0.78826  0.64701  1.0000
  H   H660      1.0  0.04565  0.84486  0.45146  1.0000
  C   C369      1.0  0.02828  0.85751  0.41885  1.0000
  H   H661      1.0  0.02538  0.70614  0.57453  1.0000
  H   H662      1.0  0.24111  0.72496  0.33828  1.0000
  H   H663      1.0  0.04239  0.79317  0.63884  1.0000
  H   H664      1.0  0.00492  0.74670  0.59322  1.0000
  H   H665      1.0  0.01790  0.83924  0.35853  1.0000
  H   H666      1.0  0.07902  0.93029  0.35263  1.0000
  H   H667      1.0  0.42814  0.51161  0.49294  1.0000
  C   C370      1.0  0.31598  0.51042  0.41161  1.0000
  H   H668      1.0  0.49860  0.53851  0.56587  1.0000
  H   H669      1.0  0.41084  0.99862  0.66677  1.0000
  C   C371      1.0  0.18893  0.98420  0.66710  1.0000
  H   H670      1.0  0.33533  0.99314  0.66641  1.0000
  C   C372      1.0  0.38296  0.80284  0.33470  1.0000
  Fe  Fe44      1.0  0.17343  0.87655  0.70454  1.0000
  S   S86       1.0  0.15780  0.88272  0.73667  1.0000
  Fe  Fe45      1.0  0.24996  0.86487  0.68571  1.0000
  S   S87       1.0  0.31876  0.85565  0.68685  1.0000
  H   H671      1.0  0.16838  0.86533  0.93101  1.0000
  H   H672      1.0  0.43720  0.70338  0.78575  1.0000
  S   S88       1.0  0.23007  0.90014  0.70155  1.0000
  S   S89       1.0  0.19625  0.84015  0.69105  1.0000
  S   S90       1.0  0.46661  0.79542  0.74961  1.0000
  H   H673      1.0  0.15385  0.96969  0.68886  1.0000
  H   H674      1.0  0.38199  0.83314  0.79086  1.0000
  H   H675      1.0  0.33156  0.98509  0.72196  1.0000
  H   H676      1.0  0.41409  0.92384  0.70597  1.0000
  C   C373      1.0  0.17865  0.78741  0.90203  1.0000
  H   H677      1.0  0.05328  0.92672  0.68375  1.0000
  H   H678      1.0  0.24596  0.59956  0.99080  1.0000
  H   H679      1.0  0.10255  0.85824  0.86167  1.0000
  H   H680      1.0  0.13808  0.72027  0.99486  1.0000
  Fe  Fe46      1.0  0.19221  0.91180  0.67000  1.0000
  C   C374      1.0  0.04998  0.91376  0.69690  1.0000
  H   H681      1.0  0.43781  0.74785  0.80167  1.0000
  C   C375      1.0  0.42541  0.81126  0.73145  1.0000
  C   C376      1.0  0.43051  0.82130  0.71219  1.0000
  C   C377      1.0  0.39741  0.83450  0.69873  1.0000
  C   C378      1.0  0.35860  0.83771  0.70418  1.0000
  C   C379      1.0  0.35338  0.82751  0.72337  1.0000
  C   C380      1.0  0.38658  0.81446  0.73689  1.0000
  H   H682      1.0  0.46006  0.81907  0.70773  1.0000
  H   H683      1.0  0.20730  0.97024  0.75541  1.0000
  H   H684      1.0  0.32386  0.82980  0.72785  1.0000
  H   H685      1.0  0.38201  0.80669  0.75164  1.0000
  C   C381      1.0  0.11182  0.87364  0.74499  1.0000
  C   C382      1.0  0.08107  0.85764  0.73277  1.0000
  H   H686      1.0  0.45517  0.74166  0.87040  1.0000
  H   H687      1.0  0.12231  0.93562  0.71800  1.0000
  C   C383      1.0  0.06932  0.87717  0.77139  1.0000
  C   C384      1.0  0.10584  0.88323  0.76438  1.0000
  H   H688      1.0  0.08533  0.85003  0.71788  1.0000
  H   H689      1.0  0.16291  0.77370  0.91097  1.0000
  H   H690      1.0  0.06508  0.88473  0.78629  1.0000
  H   H691      1.0  0.12955  0.89553  0.77400  1.0000
  C   C385      1.0  0.03890  0.92904  0.71551  1.0000
  H   H692      1.0  0.02660  0.88159  0.67567  1.0000
  C   C386      1.0  0.46836  0.63518  0.94096  1.0000
  C   C387      1.0  0.34893  0.92811  0.70947  1.0000
  H   H693      1.0  0.12943  0.83441  0.84925  1.0000
  S   S91       1.0  0.13407  0.89023  0.67357  1.0000
  C   C388      1.0  0.29648  0.96094  0.69551  1.0000
  H   H694      1.0  0.42951  0.83572  0.78161  1.0000
  C   C389      1.0  0.21397  0.77240  0.89566  1.0000
  H   H695      1.0  0.44575  0.59828  0.94899  1.0000
  H   H696      1.0  0.10055  0.78594  0.91226  1.0000
  C   C390      1.0  0.49592  0.74106  0.84811  1.0000
  H   H697      1.0  0.01501  0.97066  0.73420  1.0000
  H   H698      1.0  0.35724  0.93865  0.72479  1.0000
  C   C391      1.0  0.40291  0.89624  0.72892  1.0000
  H   H699      1.0  0.23161  0.78533  0.88697  1.0000
  H   H700      1.0  0.32313  0.91427  0.71064  1.0000
  H   H701      1.0  0.45867  0.55981  0.96209  1.0000
  H   H702      1.0  0.23589  0.98267  0.71481  1.0000
  H   H703      1.0  0.03841  0.85088  0.83402  1.0000
  H   H704      1.0  0.42872  0.84541  0.80831  1.0000
  H   H705      1.0  0.37734  0.88380  0.73232  1.0000
  C   C392      1.0  0.41639  0.83111  0.79554  1.0000
  H   H706      1.0  0.08456  0.94599  0.76830  1.0000
  C   C393      1.0  0.46677  0.61386  0.95719  1.0000
  H   H707      1.0  0.27005  0.94688  0.69397  1.0000
  C   C394      1.0  0.47539  0.79959  0.80921  1.0000
  H   H708      1.0  0.28493  0.97571  0.68320  1.0000
  C   C395      1.0  0.01659  0.89325  0.68808  1.0000
  H   H709      1.0  0.20142  0.75529  0.88560  1.0000
  H   H710      1.0  0.03221  0.86814  0.92040  1.0000
  H   H711      1.0  0.48370  0.69170  0.77847  1.0000
  C   C396      1.0  0.46961  0.50917  0.96565  1.0000
  H   H712      1.0  0.05467  0.80058  0.89821  1.0000
  N   N20       1.0  0.06545  0.95290  0.72297  1.0000
  H   H713      1.0  0.50049  0.72124  0.87794  1.0000
  C   C397      1.0  0.30150  0.97433  0.71738  1.0000
  C   C398      1.0  0.04892  0.74672  0.89677  1.0000
  H   H714      1.0  0.16672  0.81360  0.87598  1.0000
  C   C399      1.0  0.46931  0.75327  0.79933  1.0000
  C   C400      1.0  0.36995  0.96595  0.69073  1.0000
  C   C401      1.0  0.07125  0.76495  0.88418  1.0000
  H   H715      1.0  0.23584  0.76510  0.90998  1.0000
  H   H716      1.0  0.40194  0.84230  0.68397  1.0000
  H   H717      1.0  0.09560  0.82637  0.92794  1.0000
  H   H718      1.0  0.03540  0.95410  0.79116  1.0000
  H   H719      1.0  0.08173  0.86093  0.82315  1.0000
  H   H720      1.0  0.14873  0.81791  0.92969  1.0000
  H   H721      1.0  0.11420  0.87382  0.92878  1.0000
  C   C402      1.0  0.12473  0.83253  0.92333  1.0000
  C   C403      1.0  0.42736  0.80315  0.80298  1.0000
  C   C404      1.0  0.10979  0.94429  0.73102  1.0000
  H   H722      1.0  0.34822  0.91897  0.66914  1.0000
  C   C405      1.0  0.11694  0.83517  0.89900  1.0000
  C   C406      1.0  0.16531  0.98697  0.68236  1.0000
  H   H723      1.0  0.06513  0.82714  0.82125  1.0000
  H   H724      1.0  0.38972  0.96931  0.70680  1.0000
  C   C407      1.0  0.10433  0.64501  0.99556  1.0000
  C   C408      1.0  0.14132  0.96585  0.74121  1.0000
  H   H725      1.0  0.01964  0.75575  0.89903  1.0000
  H   H726      1.0  0.19570  0.94626  0.73452  1.0000
  H   H727      1.0  0.04084  0.72798  0.88811  1.0000
  H   H728      1.0  0.14371  0.84614  0.89520  1.0000
  S   S92       1.0  0.00871  0.87386  0.87545  1.0000
  C   C409      1.0  0.18509  0.95456  0.74822  1.0000
  C   C410      1.0  0.04498  0.85108  0.74002  1.0000
  H   H729      1.0  0.07710  0.80011  0.85391  1.0000
  H   H730      1.0  0.11113  0.92834  0.74262  1.0000
  H   H731      1.0  0.28480  0.62478  0.99914  1.0000
  H   H732      1.0  0.41267  0.78988  0.78987  1.0000
  C   C411      1.0  0.09892  0.83962  0.85260  1.0000
  H   H733      1.0  0.00528  0.93423  0.71138  1.0000
  C   C412      1.0  0.46570  0.70947  0.78046  1.0000
  H   H734      1.0  0.14140  0.78306  0.87019  1.0000
  C   C413      1.0  0.05173  0.95044  0.76075  1.0000
  H   H735      1.0  0.42778  0.58731  0.98255  1.0000
  C   C414      1.0  0.06919  0.84485  0.83146  1.0000
  H   H736      1.0  0.43656  0.64284  0.93469  1.0000
  C   C415      1.0  0.08376  0.79113  0.89610  1.0000
  C   C416      1.0  0.14836  0.79864  0.88248  1.0000
  C   C417      1.0  0.02100  0.97929  0.69205  1.0000
  H   H737      1.0  0.49464  0.59254  0.87235  1.0000
  C   C418      1.0  0.26610  0.99338  0.71772  1.0000
  H   H738      1.0  0.18544  0.93885  0.76005  1.0000
  H   H739      1.0  0.43688  0.51398  0.96595  1.0000
  N   N21       1.0  0.33460  0.94721  0.69165  1.0000
  H   H740      1.0  0.47293  0.50822  0.94905  1.0000
  H   H741      1.0  0.19333  0.80364  0.91248  1.0000
  H   H742      1.0  0.03402  0.93174  0.75779  1.0000
  H   H743      1.0  0.08983  0.84863  0.89481  1.0000
  C   C419      1.0  0.38782  0.91144  0.70847  1.0000
  H   H744      1.0  0.44473  0.76583  0.83483  1.0000
  C   C420      1.0  0.03885  0.86084  0.75932  1.0000
  H   H745      1.0  0.41301  0.79932  0.81657  1.0000
  H   H746      1.0  0.45301  0.62279  0.96964  1.0000
  N   N22       1.0  0.10844  0.81030  0.88598  1.0000
  H   H747      1.0  0.09908  0.75455  0.88150  1.0000
  C   C421      1.0  0.13822  0.85869  0.93426  1.0000
  C   C422      1.0  0.03349  0.96591  0.77666  1.0000
  C   C423      1.0  0.08183  0.81734  0.86467  1.0000
  H   H748      1.0  0.13259  0.97443  0.75527  1.0000
  H   H749      1.0  0.07978  0.90329  0.70247  1.0000
  H   H750      1.0  0.45658  0.71935  0.76493  1.0000
  H   H751      1.0  0.42898  0.88323  0.72735  1.0000
  H   H752      1.0  0.30052  0.95930  0.72958  1.0000
  H   H753      1.0  0.04946  0.76833  0.86881  1.0000
  C   C424      1.0  0.32211  0.93130  0.67161  1.0000
  Fe  Fe47      1.0  0.00399  0.77614  0.97173  1.0000
  H   H754      1.0  0.14209  0.85643  0.95155  1.0000
  H   H755      1.0  0.14309  0.98173  0.72988  1.0000
  H   H756      1.0  0.05009  0.82321  0.86628  1.0000
  H   H757      1.0  0.02482  0.83155  0.94449  1.0000
  H   H758      1.0  0.48042  0.62719  0.92761  1.0000
  H   H759      1.0  0.21097  0.70899  0.99374  1.0000
  H   H760      1.0  0.04163  0.91448  0.72842  1.0000
  H   H761      1.0  0.48856  0.65173  0.94824  1.0000
  C   C425      1.0  0.06463  0.97215  0.70534  1.0000
  C   C426      1.0  0.04860  0.96616  0.74005  1.0000
  H   H762      1.0  0.41411  0.90983  0.74233  1.0000
  H   H763      1.0  0.47206  0.68284  0.98542  1.0000
  H   H764      1.0  0.46394  0.76257  0.78352  1.0000
  H   H765      1.0  0.02167  0.83830  0.73064  1.0000
  H   H766      1.0  0.08369  0.96503  0.69435  1.0000
  H   H767      1.0  0.48814  0.80576  0.79542  1.0000
  C   C427      1.0  0.01052  0.83006  0.92787  1.0000
  H   H768      1.0  0.38055  0.89679  0.69559  1.0000
  H   H769      1.0  0.01183  0.87970  0.70066  1.0000
  H   H770      1.0  0.08577  0.63864  0.97995  1.0000
  H   H771      1.0  0.06410  0.98550  0.74421  1.0000
  H   H772      1.0  0.06912  0.74241  0.91245  1.0000
  C   C428      1.0  0.35810  0.99372  0.68168  1.0000
  C   C429      1.0  0.49958  0.52960  0.97797  1.0000
  C   C430      1.0  0.49413  0.58517  0.99970  1.0000
  H   H773      1.0  0.49555  0.53017  0.99443  1.0000
  H   H774      1.0  0.05102  0.98450  0.78103  1.0000
  H   H775      1.0  0.15170  0.61645  0.99596  1.0000
  H   H776      1.0  0.12466  0.66167  0.99314  1.0000
  H   H777      1.0  0.07966  0.99093  0.71173  1.0000
  C   C431      1.0  0.49173  0.67270  0.99845  1.0000
  S   S93       1.0  0.06351  0.78148  0.99670  1.0000
  C   C432      1.0  0.01477  0.85075  0.91416  1.0000
  C   C433      1.0  0.49262  0.72773  0.79665  1.0000
  C   C434      1.0  0.47916  0.76683  0.83692  1.0000
  H   H778      1.0  0.47890  0.72407  0.83957  1.0000
  C   C435      1.0  0.48887  0.74013  0.87052  1.0000
  C   C436      1.0  0.44694  0.57905  0.99717  1.0000
  H   H779      1.0  0.48710  0.81422  0.82184  1.0000
  H   H780      1.0  0.48911  0.78333  0.84812  1.0000
  H   H781      1.0  0.29653  0.91730  0.67287  1.0000
  N   N23       1.0  0.49060  0.77245  0.81615  1.0000
  H   H782      1.0  0.39107  0.95698  0.68151  1.0000
  H   H783      1.0  0.44142  0.55759  0.99672  1.0000
  C   C437      1.0  0.02470  0.99969  0.67539  1.0000
  C   C438      1.0  0.49267  0.55697  0.96756  1.0000
  H   H784      1.0  0.00111  0.98759  0.70210  1.0000
  H   H785      1.0  0.00496  0.96188  0.68367  1.0000
  H   H786      1.0  0.95164  0.37800  0.00915  1.0000
  S   S94       1.0  0.77279  0.12874  0.30277  1.0000
  H   H787      1.0  0.95214  0.14295  0.13933  1.0000
  S   S95       1.0  0.78576  0.19118  0.31413  1.0000
  Fe  Fe48      1.0  0.73901  0.15999  0.31693  1.0000
  S   S96       1.0  0.66795  0.16528  0.31190  1.0000
  Fe  Fe49      1.0  0.82253  0.15939  0.30237  1.0000
  S   S97       1.0  0.84492  0.16136  0.27139  1.0000
  H   H788      1.0  0.93433  0.16743  0.06239  1.0000
  H   H789      1.0  0.98870  0.33660  0.04695  1.0000
  H   H790      1.0  0.85560  0.07220  0.23974  1.0000
  H   H791      1.0  0.89451  0.11166  0.28743  1.0000
  C   C439      1.0  0.94356  0.02453  0.10021  1.0000
  H   H792      1.0  0.95796  0.23059  0.07315  1.0000
  H   H793      1.0  0.58168  0.48594  0.02760  1.0000
  H   H794      1.0  0.55940  0.25844  0.31755  1.0000
  C   C440      1.0  0.94358  0.10915  0.09143  1.0000
  C   C441      1.0  0.93172  0.05243  0.10494  1.0000
  C   C442      1.0  0.57071  0.48422  0.09972  1.0000
  H   H795      1.0  0.71986  0.07196  0.24828  1.0000
  H   H796      1.0  0.91453  0.05103  0.11778  1.0000
  H   H797      1.0  0.55858  0.48858  0.05798  1.0000
  H   H798      1.0  0.94212  0.42593  0.01240  1.0000
  H   H799      1.0  0.77833  0.25148  0.31678  1.0000
  C   C443      1.0  0.78613  0.04591  0.31872  1.0000
  H   H800      1.0  0.68618  0.26660  0.31054  1.0000
  H   H801      1.0  0.79090  0.07167  0.24260  1.0000
  C   C444      1.0  0.63130  0.18932  0.29958  1.0000
  C   C445      1.0  0.59037  0.18834  0.30284  1.0000
  C   C446      1.0  0.56036  0.20711  0.29380  1.0000
  C   C447      1.0  0.57085  0.22725  0.28132  1.0000
  C   C448      1.0  0.61178  0.22821  0.27804  1.0000
  C   C449      1.0  0.64173  0.20936  0.28700  1.0000
  H   H802      1.0  0.58176  0.17289  0.31242  1.0000
  H   H803      1.0  0.62035  0.24362  0.26840  1.0000
  H   H804      1.0  0.67278  0.21026  0.28407  1.0000
  C   C450      1.0  0.89515  0.15930  0.26543  1.0000
  C   C451      1.0  0.93189  0.15818  0.28108  1.0000
  C   C452      1.0  0.97083  0.15608  0.27549  1.0000
  C   C453      1.0  0.97366  0.15514  0.25423  1.0000
  C   C454      1.0  0.93693  0.15623  0.23859  1.0000
  C   C455      1.0  0.89799  0.15831  0.24418  1.0000
  H   H805      1.0  0.93030  0.15898  0.29748  1.0000
  H   H806      1.0  0.95944  0.02437  0.08682  1.0000
  H   H807      1.0  0.73860  0.07954  0.27575  1.0000
  H   H808      1.0  0.86984  0.15922  0.23193  1.0000
  H   H809      1.0  0.56552  0.41631  0.06841  1.0000
  C   C456      1.0  0.55650  0.47598  0.01598  1.0000
  C   C457      1.0  0.86349  0.02744  0.25894  1.0000
  C   C458      1.0  0.87320  0.04628  0.27818  1.0000
  H   H810      1.0  0.96457  0.01591  0.11428  1.0000
  C   C459      1.0  0.55179  0.46801  0.06184  1.0000
  H   H811      1.0  0.53797  0.44848  0.08962  1.0000
  H   H812      1.0  0.63505  0.24340  0.32141  1.0000
  H   H813      1.0  0.99901  0.15528  0.28773  1.0000
  C   C460      1.0  0.92390  0.08618  0.22783  1.0000
  H   H814      1.0  0.50913  0.22983  0.14912  1.0000
  H   H815      1.0  0.91146  0.12256  0.16357  1.0000
  H   H816      1.0  0.99626  0.34481  0.01104  1.0000
  C   C461      1.0  0.87469  0.08369  0.25288  1.0000
  N   N24       1.0  0.86685  0.07523  0.27390  1.0000
  H   H817      1.0  0.56123  0.48392  0.11506  1.0000
  H   H818      1.0  0.86352  0.09801  0.31569  1.0000
  H   H819      1.0  0.93867  0.09917  0.25981  1.0000
  H   H820      1.0  0.86436  0.10433  0.24959  1.0000
  H   H821      1.0  0.78518  0.04873  0.26300  1.0000
  H   H822      1.0  0.98839  0.06260  0.12742  1.0000
  S   S98       1.0  0.00054  0.13424  0.18592  1.0000
  H   H823      1.0  0.85438  0.03971  0.28957  1.0000
  H   H824      1.0  0.58237  0.45796  0.06414  1.0000
  H   H825      1.0  0.76935  0.06278  0.31140  1.0000
  C   C462      1.0  0.74518  0.08190  0.25985  1.0000
  H   H826      1.0  0.54736  0.40048  0.04332  1.0000
  H   H827      1.0  0.51145  0.20025  0.11947  1.0000
  H   H828      1.0  0.90907  0.10690  0.08847  1.0000
  H   H829      1.0  0.90461  0.09287  0.12217  1.0000
  H   H830      1.0  0.90677  0.10387  0.22090  1.0000
  C   C463      1.0  0.77687  0.02079  0.30976  1.0000
  C   C464      1.0  0.74695  0.25604  0.30706  1.0000
  H   H831      1.0  0.95024  0.22448  0.11001  1.0000
  H   H832      1.0  0.54387  0.37030  0.07194  1.0000
  H   H833      1.0  0.73572  0.23940  0.29623  1.0000
  C   C465      1.0  0.53751  0.40862  0.05729  1.0000
  C   C466      1.0  0.95362  0.13791  0.08638  1.0000
  C   C467      1.0  0.92870  0.09724  0.32976  1.0000
  H   H834      1.0  0.74500  0.10307  0.25591  1.0000
  H   H835      1.0  0.88853  0.02883  0.25003  1.0000
  C   C468      1.0  0.82324  0.08317  0.27492  1.0000
  H   H836      1.0  0.50817  0.47771  0.08212  1.0000
  H   H837      1.0  0.86576  0.12212  0.14215  1.0000
  C   C469      1.0  0.92068  0.08278  0.25073  1.0000
  H   H838      1.0  0.93853  0.15563  0.22218  1.0000
  C   C470      1.0  0.89603  0.13210  0.14859  1.0000
  N   N25       1.0  0.52033  0.45583  0.04386  1.0000
  H   H839      1.0  0.93563  0.06411  0.25679  1.0000
  C   C471      1.0  0.52026  0.38600  0.06817  1.0000
  H   H840      1.0  0.52914  0.20602  0.29652  1.0000
  H   H841      1.0  0.75327  0.01862  0.29535  1.0000
  H   H842      1.0  0.70108  0.22049  0.32411  1.0000
  H   H843      1.0  0.81706  0.07877  0.29062  1.0000
  C   C472      1.0  0.54126  0.45113  0.02579  1.0000
  H   H844      1.0  0.52069  0.43957  0.01311  1.0000
  C   C473      1.0  0.89677  0.09033  0.29084  1.0000
  H   H845      1.0  0.91052  0.06025  0.09064  1.0000
  C   C474      1.0  0.89102  0.08679  0.31364  1.0000
  H   H846      1.0  0.90609  0.04226  0.28627  1.0000
  Fe  Fe50      1.0  0.99436  0.23596  0.02314  1.0000
  H   H847      1.0  0.88986  0.15281  0.15208  1.0000
  H   H848      1.0  0.51253  0.39277  0.08306  1.0000
  H   H849      1.0  0.92949  0.08478  0.29108  1.0000
  H   H850      1.0  0.88638  0.06595  0.31735  1.0000
  S   S99       1.0  0.53496  0.25222  0.27010  1.0000
  H   H851      1.0  0.95708  0.08885  0.22712  1.0000
  H   H852      1.0  0.81993  0.10479  0.27294  1.0000
  H   H853      1.0  0.53276  0.27473  0.21110  1.0000
  C   C475      1.0  0.78709  0.06976  0.25900  1.0000
  H   H854      1.0  0.83368  0.03190  0.24791  1.0000
  H   H855      1.0  0.91102  0.06872  0.21833  1.0000
  C   C476      1.0  0.53914  0.46863  0.08342  1.0000
  C   C477      1.0  0.50419  0.43006  0.05020  1.0000
  C   C478      1.0  0.97882  0.21773  0.08364  1.0000
  C   C479      1.0  0.97449  0.21420  0.10455  1.0000
  S   S100      1.0  0.99279  0.19243  0.14417  1.0000
  H   H856      1.0  0.90627  0.14062  0.11809  1.0000
  H   H857      1.0  0.89232  0.14723  0.06719  1.0000
  H   H858      1.0  0.98980  0.05088  0.21349  1.0000
  H   H859      1.0  0.53083  0.48998  0.01077  1.0000
  H   H860      1.0  0.96943  0.00857  0.22993  1.0000
  C   C480      1.0  0.71639  0.26143  0.32109  1.0000
  C   C481      1.0  0.92389  0.13127  0.13267  1.0000
  H   H861      1.0  0.94900  0.09348  0.14365  1.0000
  H   H862      1.0  0.93492  0.11806  0.32650  1.0000
  H   H863      1.0  0.72836  0.27873  0.33093  1.0000
  H   H864      1.0  0.60220  0.47547  0.10195  1.0000
  C   C482      1.0  0.93507  0.10279  0.12821  1.0000
  H   H865      1.0  0.95676  0.08546  0.32942  1.0000
  H   H866      1.0  0.74971  0.27358  0.29740  1.0000
  H   H867      1.0  0.56922  0.43862  0.03090  1.0000
  C   C483      1.0  0.00087  0.19723  0.11834  1.0000
  N   N26       1.0  0.96355  0.09909  0.11316  1.0000
  H   H868      1.0  0.95019  0.15175  0.09895  1.0000
  H   H869      1.0  0.92870  0.13434  0.05252  1.0000
  C   C484      1.0  0.92538  0.14715  0.06584  1.0000
  H   H870      1.0  0.50342  0.25227  0.22384  1.0000
  H   H871      1.0  0.95288  0.09704  0.07901  1.0000
  C   C485      1.0  0.97105  0.07004  0.11187  1.0000
  H   H872      1.0  0.99119  0.06603  0.10062  1.0000
  C   C486      1.0  0.50259  0.27140  0.21569  1.0000
  H   H873      1.0  0.91504  0.01214  0.09593  1.0000
  H   H874      1.0  0.59914  0.45442  0.00084  1.0000
  H   H875      1.0  0.98617  0.13955  0.08444  1.0000
  H   H876      1.0  0.91495  0.23599  0.36825  1.0000
  S   S101      1.0  0.83081  0.21280  0.37131  1.0000
  H   H877      1.0  0.86558  0.18843  0.44983  1.0000
  H   H878      1.0  0.88969  0.29415  0.41288  1.0000
  Fe  Fe51      1.0  0.65241  0.41950  0.58228  1.0000
  S   S102      1.0  0.67237  0.40931  0.55252  1.0000
  S   S103      1.0  0.65108  0.45978  0.59744  1.0000
  Fe  Fe52      1.0  0.62568  0.36272  0.58922  1.0000
  S   S104      1.0  0.64304  0.34853  0.55942  1.0000
  S   S105      1.0  0.59409  0.33374  0.60771  1.0000
  Fe  Fe53      1.0  0.70114  0.37315  0.56939  1.0000
  S   S106      1.0  0.76789  0.35837  0.57227  1.0000
  Fe  Fe54      1.0  0.61292  0.38544  0.54468  1.0000
  S   S107      1.0  0.57350  0.38903  0.51140  1.0000
  S   S108      1.0  0.68546  0.38517  0.60021  1.0000
  S   S109      1.0  0.59116  0.39786  0.57344  1.0000
  C   C487      1.0  0.87019  0.16699  0.45173  1.0000
  S   S110      1.0  0.96741  0.29863  0.48245  1.0000
  S   S111      1.0  0.96296  0.22399  0.45918  1.0000
  Fe  Fe55      1.0  0.93563  0.29757  0.51000  1.0000
  S   S112      1.0  0.87515  0.32114  0.50641  1.0000
  S   S113      1.0  0.93524  0.25355  0.51109  1.0000
  H   H879      1.0  0.74383  0.23217  0.34357  1.0000
  C   C488      1.0  0.91219  0.39492  0.57180  1.0000
  H   H880      1.0  0.95852  0.22814  0.35697  1.0000
  C   C489      1.0  0.79631  0.34729  0.55354  1.0000
  C   C490      1.0  0.83602  0.33634  0.56090  1.0000
  C   C491      1.0  0.86034  0.32794  0.54679  1.0000
  C   C492      1.0  0.84546  0.33067  0.52504  1.0000
  C   C493      1.0  0.80590  0.34188  0.51770  1.0000
  C   C494      1.0  0.78134  0.34996  0.53179  1.0000
  H   H881      1.0  0.84805  0.33423  0.57766  1.0000
  H   H882      1.0  0.89072  0.31952  0.55274  1.0000
  H   H883      1.0  0.79405  0.34415  0.50093  1.0000
  H   H884      1.0  0.75095  0.35834  0.52582  1.0000
  H   H885      1.0  0.77951  0.45287  0.63020  1.0000
  H   H886      1.0  0.71347  0.40754  0.51445  1.0000
  C   C495      1.0  0.62648  0.34491  0.65014  1.0000
  C   C496      1.0  0.59842  0.33004  0.63529  1.0000
  C   C497      1.0  0.57220  0.31195  0.64244  1.0000
  C   C498      1.0  0.76490  0.44992  0.61327  1.0000
  H   H887      1.0  0.93240  0.29070  0.37990  1.0000
  H   H888      1.0  0.74923  0.42064  0.49955  1.0000
  H   H889      1.0  0.51043  0.43039  0.62175  1.0000
  C   C499      1.0  0.86658  0.21444  0.39616  1.0000
  C   C500      1.0  0.86104  0.23369  0.41078  1.0000
  C   C501      1.0  0.88975  0.23662  0.43028  1.0000
  C   C502      1.0  0.92498  0.22074  0.43516  1.0000
  C   C503      1.0  0.93046  0.20145  0.42058  1.0000
  C   C504      1.0  0.90131  0.19816  0.40127  1.0000
  H   H890      1.0  0.83422  0.24634  0.40704  1.0000
  H   H891      1.0  0.88443  0.25102  0.44157  1.0000
  H   H892      1.0  0.95743  0.18892  0.42422  1.0000
  H   H893      1.0  0.90611  0.18335  0.39016  1.0000
  C   C505      1.0  0.83657  0.02667  0.34720  1.0000
  Fe  Fe56      1.0  0.99795  0.25700  0.53383  1.0000
  S   S114      1.0  0.99600  0.30123  0.53428  1.0000
  H   H894      1.0  0.89362  0.13253  0.52979  1.0000
  H   H895      1.0  0.68749  0.47550  0.56204  1.0000
  H   H896      1.0  0.54874  0.42542  0.60661  1.0000
  C   C506      1.0  0.89228  0.32429  0.43586  1.0000
  H   H897      1.0  0.75264  0.44920  0.57236  1.0000
  H   H898      1.0  0.87526  0.13056  0.50147  1.0000
  H   H899      1.0  0.91146  0.13959  0.47027  1.0000
  H   H900      1.0  0.86178  0.42392  0.58807  1.0000
  H   H901      1.0  0.64407  0.27290  0.33618  1.0000
  C   C507      1.0  0.90963  0.16113  0.46844  1.0000
  H   H902      1.0  0.55059  0.30019  0.63110  1.0000
  H   H903      1.0  0.65351  0.27518  0.38005  1.0000
  H   H904      1.0  0.70680  0.27928  0.36019  1.0000
  H   H905      1.0  0.84242  0.15813  0.45615  1.0000
  H   H906      1.0  0.97942  0.26251  0.43022  1.0000
  H   H907      1.0  0.91042  0.19660  0.48680  1.0000
  C   C508      1.0  0.77828  0.43524  0.57794  1.0000
  C   C509      1.0  0.95010  0.31479  0.41671  1.0000
  H   H908      1.0  0.82206  0.45685  0.60319  1.0000
  H   H909      1.0  0.90254  0.37689  0.57904  1.0000
  H   H910      1.0  0.85960  0.02882  0.36181  1.0000
  H   H911      1.0  0.70239  0.43814  0.50075  1.0000
  C   C510      1.0  0.94292  0.13847  0.51255  1.0000
  H   H912      1.0  0.58940  0.46430  0.62040  1.0000
  H   H913      1.0  0.76423  0.45873  0.52372  1.0000
  C   C511      1.0  0.89429  0.20212  0.55146  1.0000
  C   C512      1.0  0.66569  0.49055  0.58849  1.0000
  H   H914      1.0  0.86705  0.31525  0.44240  1.0000
  H   H915      1.0  0.56146  0.38006  0.62449  1.0000
  C   C513      1.0  0.54105  0.42118  0.62213  1.0000
  Fe  Fe57      1.0  0.81948  0.17940  0.34690  1.0000
  H   H916      1.0  0.71953  0.42600  0.66723  1.0000
  N   N27       1.0  0.68317  0.24063  0.35005  1.0000
  C   C514      1.0  0.67674  0.21397  0.35884  1.0000
  H   H917      1.0  0.66866  0.26893  0.66238  1.0000
  C   C515      1.0  0.53744  0.47779  0.63260  1.0000
  C   C516      1.0  0.70412  0.25958  0.36699  1.0000
  H   H918      1.0  0.51900  0.48825  0.55159  1.0000
  C   C517      1.0  0.71626  0.20064  0.37184  1.0000
  C   C518      1.0  0.84294  0.41602  0.57297  1.0000
  H   H919      1.0  0.66300  0.45166  0.64568  1.0000
  H   H920      1.0  0.87740  0.17160  0.49256  1.0000
  C   C519      1.0  0.70538  0.17424  0.38034  1.0000
  H   H921      1.0  0.66232  0.20045  0.34576  1.0000
  H   H922      1.0  0.65416  0.21456  0.36915  1.0000
  H   H923      1.0  0.81276  0.42337  0.60924  1.0000
  N   N28       1.0  0.94258  0.16752  0.50834  1.0000
  H   H924      1.0  0.98943  0.16363  0.48969  1.0000
  H   H925      1.0  0.59361  0.22365  0.34250  1.0000
  H   H926      1.0  0.73693  0.25359  0.37355  1.0000
  H   H927      1.0  0.67524  0.24521  0.39254  1.0000
  C   C520      1.0  0.94270  0.24429  0.36347  1.0000
  H   H928      1.0  0.73900  0.19700  0.36197  1.0000
  H   H929      1.0  0.73151  0.21287  0.38551  1.0000
  H   H930      1.0  0.91463  0.33401  0.44902  1.0000
  H   H931      1.0  0.99833  0.18911  0.63317  1.0000
  H   H932      1.0  0.60648  0.24767  0.36306  1.0000
  S   S115      1.0  0.82837  0.08023  0.34967  1.0000
  C   C521      1.0  0.52234  0.45834  0.51008  1.0000
  C   C522      1.0  0.98050  0.21025  0.65950  1.0000
  H   H933      1.0  0.69072  0.16100  0.36714  1.0000
  H   H934      1.0  0.73426  0.16488  0.38929  1.0000
  H   H935      1.0  0.68372  0.17682  0.39105  1.0000
  C   C523      1.0  0.82765  0.46144  0.56133  1.0000
  H   H936      1.0  0.52904  0.49580  0.57946  1.0000
  H   H937      1.0  0.75072  0.46869  0.60684  1.0000
  H   H938      1.0  0.93007  0.40791  0.58435  1.0000
  H   H939      1.0  0.51016  0.39862  0.47437  1.0000
  H   H940      1.0  0.91103  0.08805  0.50118  1.0000
  H   H941      1.0  0.57694  0.33784  0.48312  1.0000
  H   H942      1.0  0.95573  0.21557  0.60457  1.0000
  C   C524      1.0  0.78639  0.42403  0.54241  1.0000
  H   H943      1.0  0.58237  0.33719  0.45622  1.0000
  H   H944      1.0  0.80839  0.42145  0.53188  1.0000
  H   H945      1.0  0.64774  0.35822  0.64490  1.0000
  H   H946      1.0  0.69406  0.28326  0.41602  1.0000
  H   H947      1.0  0.95450  0.17275  0.54232  1.0000
  H   H948      1.0  0.57080  0.38636  0.66376  1.0000
  C   C525      1.0  0.65450  0.43364  0.65338  1.0000
  H   H949      1.0  0.87988  0.20458  0.51784  1.0000
  H   H950      1.0  0.74002  0.43480  0.61193  1.0000
  H   H951      1.0  0.72675  0.28088  0.64514  1.0000
  C   C526      1.0  0.95074  0.27823  0.39263  1.0000
  H   H952      1.0  0.85909  0.39541  0.54621  1.0000
  H   H953      1.0  0.93665  0.16798  0.46225  1.0000
  H   H954      1.0  0.62073  0.42063  0.62267  1.0000
  H   H955      1.0  0.68603  0.39764  0.66560  1.0000
  C   C527      1.0  0.64205  0.25125  0.33780  1.0000
  H   H956      1.0  0.72786  0.44649  0.53852  1.0000
  H   H957      1.0  0.76230  0.41587  0.57759  1.0000
  H   H958      1.0  0.92567  0.28813  0.43765  1.0000
  C   C528      1.0  0.57318  0.30922  0.66412  1.0000
  H   H959      1.0  0.87296  0.15864  0.43633  1.0000
  S   S116      1.0  0.86028  0.15036  0.33484  1.0000
  H   H960      1.0  0.92753  0.26723  0.39939  1.0000
  C   C529      1.0  0.68335  0.49280  0.57091  1.0000
  H   H961      1.0  0.93230  0.25894  0.35085  1.0000
  H   H962      1.0  0.52841  0.43075  0.65882  1.0000
  C   C530      1.0  0.93831  0.18287  0.52768  1.0000
  S   S117      1.0  0.77168  0.14890  0.34995  1.0000
  H   H963      1.0  0.71837  0.29919  0.39710  1.0000
  H   H964      1.0  0.79572  0.48851  0.57892  1.0000
  Fe  Fe58      1.0  0.97060  0.25481  0.48536  1.0000
  C   C531      1.0  0.71051  0.27988  0.40309  1.0000
  H   H965      1.0  0.86201  0.20682  0.55268  1.0000
  H   H966      1.0  0.82956  0.39721  0.57714  1.0000
  N   N29       1.0  0.80855  0.43484  0.56358  1.0000
  C   C532      1.0  0.53261  0.39143  0.62315  1.0000
  C   C533      1.0  0.56285  0.42957  0.66078  1.0000
  N   N30       1.0  0.97807  0.29527  0.40920  1.0000
  C   C534      1.0  0.61567  0.42044  0.63903  1.0000
  C   C535      1.0  0.79781  0.44130  0.60145  1.0000
  C   C536      1.0  0.98840  0.20887  0.63697  1.0000
  H   H967      1.0  0.51534  0.47274  0.61757  1.0000
  C   C537      1.0  0.68255  0.26391  0.38552  1.0000
  H   H968      1.0  0.70032  0.41029  0.64216  1.0000
  H   H969      1.0  0.98342  0.24095  0.39386  1.0000
  C   C538      1.0  0.90458  0.09607  0.51601  1.0000
  C   C539      1.0  0.99988  0.27906  0.42775  1.0000
  H   H970      1.0  0.61589  0.39945  0.64307  1.0000
  C   C540      1.0  0.89366  0.18992  0.52993  1.0000
  H   H971      1.0  0.73977  0.26917  0.40965  1.0000
  H   H972      1.0  0.95131  0.19919  0.65968  1.0000
  H   H973      1.0  0.52657  0.45164  0.52663  1.0000
  N   N31       1.0  0.57436  0.43271  0.63965  1.0000
  H   H974      1.0  0.92231  0.09595  0.34579  1.0000
  C   C541      1.0  0.87405  0.40902  0.55907  1.0000
  H   H975      1.0  0.93613  0.32839  0.40372  1.0000
  H   H976      1.0  0.54375  0.47515  0.50964  1.0000
  C   C542      1.0  0.57788  0.46157  0.63510  1.0000
  H   H977      1.0  0.76878  0.48404  0.55222  1.0000
  C   C543      1.0  0.91388  0.30314  0.42561  1.0000
  H   H978      1.0  0.88487  0.42682  0.55204  1.0000
  C   C544      1.0  0.90128  0.12589  0.51490  1.0000
  C   C545      1.0  0.75096  0.44078  0.52936  1.0000
  H   H979      1.0  0.93751  0.23524  0.62354  1.0000
  H   H980      1.0  0.85660  0.46452  0.57375  1.0000
  C   C546      1.0  0.72770  0.42580  0.50985  1.0000
  H   H981      1.0  0.87834  0.33926  0.42411  1.0000
  H   H982      1.0  0.87264  0.17269  0.52794  1.0000
  H   H983      1.0  0.93287  0.38914  0.56122  1.0000
  H   H984      1.0  0.77362  0.40417  0.54443  1.0000
  H   H985      1.0  0.92402  0.20073  0.62073  1.0000
  H   H986      1.0  0.87469  0.08751  0.51819  1.0000
  H   H987      1.0  0.95456  0.20210  0.52813  1.0000
  H   H988      1.0  0.95428  0.12762  0.50010  1.0000
  C   C547      1.0  0.51874  0.38578  0.50653  1.0000
  C   C548      1.0  0.56628  0.32786  0.46764  1.0000
  C   C549      1.0  0.90885  0.17509  0.48956  1.0000
  H   H989      1.0  0.99080  0.32004  0.38441  1.0000
  H   H990      1.0  0.90790  0.18840  0.56432  1.0000
  C   C550      1.0  0.80011  0.48578  0.56265  1.0000
  H   H991      1.0  0.57515  0.30692  0.46954  1.0000
  C   C551      1.0  0.94890  0.21549  0.62053  1.0000
  H   H992      1.0  0.68782  0.30589  0.64282  1.0000
  H   H993      1.0  0.83812  0.46241  0.54620  1.0000
  H   H994      1.0  0.91284  0.22059  0.55351  1.0000
  H   H995      1.0  0.51444  0.38520  0.58914  1.0000
  C   C552      1.0  0.71269  0.29547  0.65411  1.0000
  H   H996      1.0  0.98371  0.19596  0.49873  1.0000
  H   H997      1.0  0.53112  0.44200  0.50071  1.0000
  H   H998      1.0  0.92977  0.09006  0.52950  1.0000
  H   H999      1.0  0.52196  0.47423  0.64585  1.0000
  H   H1000     1.0  0.99950  0.26460  0.37648  1.0000
  C   C553      1.0  0.50186  0.38177  0.60338  1.0000
  C   C554      1.0  0.60222  0.24457  0.34592  1.0000
  C   C555      1.0  0.54259  0.49574  0.56529  1.0000
  H   H1001     1.0  0.96576  0.13389  0.52740  1.0000
  C   C556      1.0  0.97271  0.25680  0.38231  1.0000
  H   H1002     1.0  0.52326  0.32138  0.42819  1.0000
  H   H1003     1.0  0.56961  0.48226  0.56822  1.0000
  H   H1004     1.0  0.97293  0.23105  0.66186  1.0000
  H   H1005     1.0  0.60139  0.47123  0.64784  1.0000
  C   C557      1.0  0.69231  0.41568  0.65729  1.0000
  C   C558      1.0  0.98396  0.17496  0.50341  1.0000
  H   H1006     1.0  0.96861  0.32724  0.42955  1.0000
  H   H1007     1.0  0.96591  0.15670  0.66037  1.0000
  H   H1008     1.0  0.51836  0.38699  0.63668  1.0000
  H   H1009     1.0  0.51686  0.37255  0.53766  1.0000
  H   H1010     1.0  0.50490  0.32208  0.47281  1.0000
  H   H1011     1.0  0.57121  0.28215  0.33872  1.0000
  C   C559      1.0  0.51907  0.33052  0.46032  1.0000
  C   C560      1.0  0.56526  0.26108  0.33489  1.0000
  C   C561      1.0  0.81603  0.04902  0.33752  1.0000
  H   H1012     1.0  0.51193  0.35160  0.45947  1.0000
  H   H1013     1.0  0.50803  0.29501  0.44232  1.0000
  H   H1014     1.0  0.50359  0.37058  0.42857  1.0000
  H   H1015     1.0  0.73678  0.31005  0.66148  1.0000
  H   H1016     1.0  0.53673  0.25490  0.34011  1.0000
  H   H1017     1.0  0.99323  0.00447  0.66593  1.0000
  Fe  Fe59      1.0  0.80926  0.12053  0.33549  1.0000
  C   C562      1.0  0.50242  0.31621  0.43895  1.0000
  H   H1018     1.0  0.98421  0.11045  0.66729  1.0000
  C   C563      1.0  0.71174  0.23728  0.33494  1.0000
  H   H1019     1.0  0.76907  0.02586  0.78087  1.0000
  S   S118      1.0  0.53083  0.30485  0.74812  1.0000
  Fe  Fe60      1.0  0.59469  0.24156  0.74788  1.0000
  S   S119      1.0  0.62367  0.28117  0.75390  1.0000
  S   S120      1.0  0.63373  0.20544  0.74564  1.0000
  Fe  Fe61      1.0  0.57913  0.28860  0.77499  1.0000
  S   S121      1.0  0.61186  0.30976  0.80554  1.0000
  Fe  Fe62      1.0  0.57385  0.29467  0.72669  1.0000
  S   S122      1.0  0.60090  0.32371  0.70626  1.0000
  S   S123      1.0  0.55351  0.24729  0.77099  1.0000
  S   S124      1.0  0.54636  0.25428  0.71942  1.0000
  Fe  Fe63      1.0  0.65055  0.41948  0.94055  1.0000
  S   S125      1.0  0.58246  0.41009  0.92984  1.0000
  S   S126      1.0  0.68181  0.45837  0.93591  1.0000
  Fe  Fe64      1.0  0.67181  0.36477  0.95831  1.0000
  S   S127      1.0  0.60431  0.35204  0.94972  1.0000
  S   S128      1.0  0.71595  0.33127  0.97120  1.0000
  Fe  Fe65      1.0  0.60214  0.37139  0.91857  1.0000
  S   S129      1.0  0.56300  0.34889  0.89043  1.0000
  Fe  Fe66      1.0  0.58878  0.39113  0.96164  1.0000
  C   C564      1.0  0.62620  0.17762  0.79911  1.0000
  S   S130      1.0  0.67010  0.38232  0.92649  1.0000
  S   S131      1.0  0.65654  0.40254  0.97302  1.0000
  Fe  Fe67      1.0  0.89756  0.11083  0.81745  1.0000
  S   S132      1.0  0.88054  0.07176  0.83038  1.0000
  Fe  Fe68      1.0  0.87007  0.16620  0.80180  1.0000
  S   S133      1.0  0.93640  0.17916  0.80307  1.0000
  S   S134      1.0  0.82341  0.19955  0.79498  1.0000
  H   H1020     1.0  0.62906  0.26165  0.68440  1.0000
  Fe  Fe69      1.0  0.95128  0.15864  0.83441  1.0000
  N   N32       1.0  0.93143  0.10925  0.91429  1.0000
  S   S135      1.0  0.87606  0.12821  0.78508  1.0000
  S   S136      1.0  0.88520  0.14782  0.83395  1.0000
  H   H1021     1.0  0.73559  0.28023  0.79252  1.0000
  H   H1022     1.0  0.81025  0.13294  0.88532  1.0000
  H   H1023     1.0  0.80413  0.19799  0.84931  1.0000
  Fe  Fe70      1.0  0.96895  0.23800  0.97430  1.0000
  C   C565      1.0  0.55767  0.40120  0.69228  1.0000
  N   N33       1.0  0.67229  0.23951  0.83280  1.0000
  C   C566      1.0  0.70122  0.27591  0.71866  1.0000
  C   C567      1.0  0.94317  0.07316  0.94301  1.0000
  H   H1024     1.0  0.70695  0.30903  0.75337  1.0000
  C   C568      1.0  0.99508  0.20533  0.92177  1.0000
  C   C569      1.0  0.64508  0.21598  0.82452  1.0000
  H   H1025     1.0  0.89037  0.20058  0.90331  1.0000
  C   C570      1.0  0.77119  0.32959  0.97942  1.0000
  H   H1026     1.0  0.82275  0.03217  0.78039  1.0000
  C   C571      1.0  0.89156  0.01825  0.83193  1.0000
  H   H1027     1.0  0.61649  0.22539  0.85838  1.0000
  H   H1028     1.0  0.99828  0.12679  0.89500  1.0000
  C   C572      1.0  0.79686  0.35188  0.98176  1.0000
  H   H1029     1.0  0.56508  0.41831  0.70305  1.0000
  H   H1030     1.0  0.88285  0.10688  0.87055  1.0000
  H   H1031     1.0  0.78301  0.37105  0.97898  1.0000
  H   H1032     1.0  0.76197  0.28947  0.73762  1.0000
  H   H1033     1.0  0.97273  0.14298  0.92047  1.0000
  C   C573      1.0  0.68692  0.20381  0.75868  1.0000
  C   C574      1.0  0.70766  0.17968  0.76046  1.0000
  C   C575      1.0  0.74961  0.17779  0.77147  1.0000
  C   C576      1.0  0.77113  0.20016  0.78057  1.0000
  C   C577      1.0  0.75061  0.22429  0.77835  1.0000
  C   C578      1.0  0.70873  0.22613  0.76754  1.0000
  H   H1034     1.0  0.69102  0.16228  0.75361  1.0000
  H   H1035     1.0  0.76518  0.15909  0.77301  1.0000
  H   H1036     1.0  0.76736  0.24162  0.78517  1.0000
  H   H1037     1.0  0.69326  0.24479  0.76623  1.0000
  C   C579      1.0  0.59728  0.32038  0.82897  1.0000
  C   C580      1.0  0.62725  0.33327  0.84462  1.0000
  C   C581      1.0  0.61740  0.34214  0.86348  1.0000
  C   C582      1.0  0.57738  0.33807  0.86699  1.0000
  C   C583      1.0  0.54763  0.32482  0.85149  1.0000
  C   C584      1.0  0.55745  0.31603  0.83259  1.0000
  H   H1038     1.0  0.65811  0.33681  0.84197  1.0000
  H   H1039     1.0  0.64050  0.35243  0.87516  1.0000
  H   H1040     1.0  0.77568  0.19964  0.86997  1.0000
  H   H1041     1.0  0.53409  0.30611  0.82077  1.0000
  H   H1042     1.0  0.69601  0.29420  0.82947  1.0000
  C   C585      1.0  0.89699  0.12581  0.90179  1.0000
  C   C586      1.0  0.89633  0.04157  0.82118  1.0000
  C   C587      1.0  0.91251  0.04029  0.80309  1.0000
  C   C588      1.0  0.63164  0.24472  0.86254  1.0000
  H   H1043     1.0  0.91595  0.05802  0.79456  1.0000
  H   H1044     1.0  0.72764  0.24857  0.85671  1.0000
  H   H1045     1.0  0.98368  0.08008  0.78800  1.0000
  H   H1046     1.0  0.52333  0.39903  0.68695  1.0000
  H   H1047     1.0  0.95078  0.12518  0.87501  1.0000
  H   H1048     1.0  0.59916  0.47471  0.94043  1.0000
  H   H1049     1.0  0.81075  0.12020  0.85951  1.0000
  H   H1050     1.0  0.69882  0.24280  0.80527  1.0000
  H   H1051     1.0  0.63705  0.16309  0.81175  1.0000
  C   C589      1.0  0.68007  0.23451  0.69905  1.0000
  H   H1052     1.0  0.57155  0.23035  0.68153  1.0000
  H   H1053     1.0  0.57560  0.44615  0.67150  1.0000
  H   H1054     1.0  0.68411  0.19877  0.80423  1.0000
  H   H1055     1.0  0.79559  0.19895  0.73975  1.0000
  H   H1056     1.0  0.75582  0.27802  0.69087  1.0000
  H   H1057     1.0  0.51791  0.34382  0.95574  1.0000
  H   H1058     1.0  0.98115  0.08413  0.90960  1.0000
  Fe  Fe71      1.0  0.94357  0.14007  0.78839  1.0000
  H   H1059     1.0  0.74044  0.33337  0.74561  1.0000
  C   C590      1.0  0.92325  0.19936  0.90352  1.0000
  C   C591      1.0  0.63443  0.24429  0.69470  1.0000
  H   H1060     1.0  0.68172  0.21982  0.71188  1.0000
  C   C592      1.0  0.97468  0.11333  0.88559  1.0000
  C   C593      1.0  0.95263  0.20700  0.92175  1.0000
  C   C594      1.0  0.93600  0.19012  0.88554  1.0000
  S   S137      1.0  0.93446  0.21678  0.94435  1.0000
  H   H1061     1.0  0.91299  0.18450  0.87163  1.0000
  H   H1062     1.0  0.89734  0.06236  0.96120  1.0000
  C   C595      1.0  0.86665  0.11191  0.88327  1.0000
  H   H1063     1.0  0.54262  0.35124  0.99776  1.0000
  H   H1064     1.0  0.62668  0.24980  0.70986  1.0000
  H   H1065     1.0  0.68893  0.32792  0.72967  1.0000
  H   H1066     1.0  0.59241  0.18126  0.79755  1.0000
  C   C596      1.0  0.55633  0.29823  0.97168  1.0000
  H   H1067     1.0  0.90349  0.03844  0.94154  1.0000
  C   C597      1.0  0.65930  0.48951  0.93805  1.0000
  C   C598      1.0  0.50423  0.32624  0.94656  1.0000
  H   H1068     1.0  0.74147  0.27413  0.83108  1.0000
  N   N34       1.0  0.77825  0.32701  0.91588  1.0000
  C   C599      1.0  0.76738  0.35372  0.92295  1.0000
  C   C600      1.0  0.74539  0.30757  0.91913  1.0000
  C   C601      1.0  0.81911  0.31905  0.93010  1.0000
  C   C602      1.0  0.78318  0.32663  0.89333  1.0000
  C   C603      1.0  0.75513  0.34536  0.87760  1.0000
  C   C604      1.0  0.80221  0.37487  0.92547  1.0000
  C   C605      1.0  0.83306  0.29046  0.92776  1.0000
  C   C606      1.0  0.69994  0.31266  0.90715  1.0000
  C   C607      1.0  0.66908  0.29561  0.91569  1.0000
  C   C608      1.0  0.76005  0.34062  0.85511  1.0000
  C   C609      1.0  0.78511  0.40215  0.92803  1.0000
  C   C610      1.0  0.87820  0.28642  0.93952  1.0000
  H   H1069     1.0  0.75826  0.35230  0.93838  1.0000
  H   H1070     1.0  0.73954  0.36166  0.91212  1.0000
  H   H1071     1.0  0.75248  0.28757  0.91424  1.0000
  H   H1072     1.0  0.74576  0.30623  0.93627  1.0000
  H   H1073     1.0  0.81793  0.32188  0.94688  1.0000
  H   H1074     1.0  0.84497  0.33191  0.92751  1.0000
  H   H1075     1.0  0.81581  0.33174  0.89257  1.0000
  H   H1076     1.0  0.77806  0.30640  0.88680  1.0000
  H   H1077     1.0  0.76398  0.36608  0.88154  1.0000
  H   H1078     1.0  0.72178  0.34302  0.87773  1.0000
  H   H1079     1.0  0.82675  0.37097  0.93983  1.0000
  H   H1080     1.0  0.81685  0.37498  0.91167  1.0000
  H   H1081     1.0  0.83058  0.28522  0.91098  1.0000
  H   H1082     1.0  0.81355  0.27665  0.93466  1.0000
  H   H1083     1.0  0.69049  0.33313  0.90860  1.0000
  H   H1084     1.0  0.69623  0.30774  0.89022  1.0000
  H   H1085     1.0  0.67192  0.29942  0.93277  1.0000
  H   H1086     1.0  0.63675  0.30053  0.90747  1.0000
  H   H1087     1.0  0.67458  0.27454  0.91324  1.0000
  H   H1088     1.0  0.75193  0.32007  0.85031  1.0000
  H   H1089     1.0  0.73886  0.35373  0.84412  1.0000
  H   H1090     1.0  0.79259  0.34477  0.85385  1.0000
  H   H1091     1.0  0.81082  0.41682  0.93041  1.0000
  H   H1092     1.0  0.76134  0.40765  0.91377  1.0000
  H   H1093     1.0  0.77069  0.40278  0.94193  1.0000
  H   H1094     1.0  0.88205  0.29094  0.95653  1.0000
  H   H1095     1.0  0.88693  0.26569  0.93798  1.0000
  H   H1096     1.0  0.89979  0.29898  0.93289  1.0000
  C   C611      1.0  0.68268  0.25503  0.81488  1.0000
  C   C612      1.0  0.79595  0.01863  0.77480  1.0000
  H   H1097     1.0  0.64836  0.43935  0.66884  1.0000
  H   H1098     1.0  0.50782  0.37944  0.93611  1.0000
  S   S138      1.0  0.91443  0.32244  0.99921  1.0000
  C   C613      1.0  0.75197  0.24142  0.71865  1.0000
  H   H1099     1.0  0.63066  0.16928  0.78400  1.0000
  H   H1100     1.0  0.96362  0.23893  0.69367  1.0000
  C   C614      1.0  0.78982  0.30485  0.98321  1.0000
  C   C615      1.0  0.71948  0.29340  0.80160  1.0000
  C   C616      1.0  0.94296  0.14080  0.94639  1.0000
  H   H1101     1.0  0.85353  0.09365  0.88839  1.0000
  H   H1102     1.0  0.52431  0.32279  0.93513  1.0000
  H   H1103     1.0  0.72885  0.19510  0.83453  1.0000
  C   C617      1.0  0.78249  0.21012  0.85617  1.0000
  H   H1104     1.0  0.93631  0.42940  0.98419  1.0000
  C   C618      1.0  0.60388  0.22282  0.68453  1.0000
  H   H1105     1.0  0.92067  0.15614  0.93908  1.0000
  H   H1106     1.0  0.75162  0.22427  0.82596  1.0000
  C   C619      1.0  0.96119  0.12688  0.92925  1.0000
  C   C620      1.0  0.83007  0.12964  0.87382  1.0000
  H   H1107     1.0  0.84730  0.28311  0.99200  1.0000
  C   C621      1.0  0.51015  0.30323  0.96249  1.0000
  H   H1108     1.0  0.55967  0.28173  0.98299  1.0000
  H   H1109     1.0  0.51660  0.32153  0.85401  1.0000
  C   C622      1.0  0.72707  0.26584  0.68611  1.0000
  C   C623      1.0  0.69394  0.28202  0.67086  1.0000
  H   H1110     1.0  0.54886  0.46107  0.98392  1.0000
  C   C624      1.0  0.97740  0.15411  0.96281  1.0000
  H   H1111     1.0  0.98964  0.11599  0.93697  1.0000
  H   H1112     1.0  0.66557  0.27468  0.85068  1.0000
  H   H1113     1.0  0.92637  0.12710  0.95490  1.0000
  C   C625      1.0  0.83352  0.30230  0.98915  1.0000
  C   C626      1.0  0.97840  0.18773  0.88574  1.0000
  H   H1114     1.0  0.64837  0.35442  0.68310  1.0000
  H   H1115     1.0  0.56980  0.38329  0.70118  1.0000
  H   H1116     1.0  0.68436  0.22323  0.68504  1.0000
  H   H1117     1.0  0.70250  0.21916  0.86109  1.0000
  C   C627      1.0  0.99694  0.09699  0.87182  1.0000
  H   H1118     1.0  0.60604  0.20565  0.69516  1.0000
  H   H1119     1.0  0.89876  0.41069  0.99452  1.0000
  C   C628      1.0  0.62703  0.34249  0.67177  1.0000
  S   S139      1.0  0.93299  0.24252  0.99995  1.0000
  H   H1120     1.0  0.91013  0.14312  0.89522  1.0000
  H   H1121     1.0  0.89499  0.07389  0.91472  1.0000
  H   H1122     1.0  0.93474  0.08075  0.88994  1.0000
  C   C629      1.0  0.92012  0.05276  0.95340  1.0000
  H   H1123     1.0  0.96031  0.08625  0.95566  1.0000
  H   H1124     1.0  0.67278  0.28605  0.71016  1.0000
  H   H1125     1.0  0.61140  0.22132  0.82109  1.0000
  H   H1126     1.0  0.99552  0.16802  0.95520  1.0000
  H   H1127     1.0  0.95034  0.21526  0.72528  1.0000
  H   H1128     1.0  0.64859  0.20040  0.83672  1.0000
  C   C630      1.0  0.59979  0.26243  0.86940  1.0000
  H   H1129     1.0  0.74566  0.23616  0.73424  1.0000
  C   C631      1.0  0.60017  0.32480  0.67889  1.0000
  H   H1130     1.0  0.74195  0.20086  0.70625  1.0000
  H   H1131     1.0  0.55244  0.29548  0.66934  1.0000
  C   C632      1.0  0.65107  0.20315  0.80381  1.0000
  H   H1132     1.0  0.69219  0.26679  0.73253  1.0000
  H   H1133     1.0  0.81436  0.18630  0.71781  1.0000
  C   C633      1.0  0.80415  0.20432  0.72472  1.0000
  H   H1134     1.0  0.87898  0.01904  0.84592  1.0000
  H   H1135     1.0  0.59139  0.25446  0.88377  1.0000
  H   H1136     1.0  0.84138  0.14885  0.86927  1.0000
  C   C634      1.0  0.71100  0.23119  0.84843  1.0000
  H   H1137     1.0  0.83071  0.21840  0.72812  1.0000
  C   C635      1.0  0.76682  0.21609  0.70936  1.0000
  C   C636      1.0  0.71092  0.27959  0.82103  1.0000
  N   N35       1.0  0.71443  0.25480  0.70527  1.0000
  S   S140      1.0  0.53658  0.40324  0.97791  1.0000
  S   S141      1.0  0.96486  0.12054  0.81984  1.0000
  H   H1138     1.0  0.86008  0.36669  0.98984  1.0000
  H   H1139     1.0  0.77939  0.25487  0.72199  1.0000
  H   H1140     1.0  0.74341  0.30791  0.71376  1.0000
  C   C637      1.0  0.64732  0.25712  0.84394  1.0000
  C   C638      1.0  0.95501  0.09549  0.90008  1.0000
  H   H1141     1.0  0.63950  0.21662  0.79048  1.0000
  C   C639      1.0  0.71636  0.31818  0.73967  1.0000
  H   H1142     1.0  0.77664  0.22022  0.69446  1.0000
  H   H1143     1.0  0.77031  0.28748  0.98149  1.0000
  H   H1144     1.0  0.94282  0.04193  0.96552  1.0000
  C   C640      1.0  0.73395  0.29766  0.72698  1.0000
  C   C641      1.0  0.92329  0.01594  0.79570  1.0000
  H   H1145     1.0  0.57154  0.31580  0.98022  1.0000
  H   H1146     1.0  0.61964  0.26460  0.83238  1.0000
  H   H1147     1.0  0.79834  0.22904  0.86141  1.0000
  H   H1148     1.0  0.65812  0.24218  0.87629  1.0000
  H   H1149     1.0  0.57100  0.26362  0.85675  1.0000
  H   H1150     1.0  0.93511  0.01516  0.78148  1.0000
  H   H1151     1.0  0.65340  0.26124  0.80387  1.0000
  S   S142      1.0  0.97254  0.12900  0.76075  1.0000
  H   H1152     1.0  0.96963  0.24821  0.73111  1.0000
  H   H1153     1.0  0.73572  0.24980  0.67639  1.0000
  H   H1154     1.0  0.96335  0.16533  0.97410  1.0000
  C   C642      1.0  0.84058  0.34934  0.98792  1.0000
  H   H1155     1.0  0.94531  0.38132  0.98108  1.0000
  H   H1156     1.0  0.97409  0.08475  0.86061  1.0000
  H   H1157     1.0  0.97074  0.19073  0.69592  1.0000
  C   C643      1.0  0.57391  0.46911  0.99676  1.0000
  H   H1158     1.0  0.96624  0.06262  0.93605  1.0000
  H   H1159     1.0  0.87782  0.13405  0.91231  1.0000
  C   C644      1.0  0.61797  0.49206  0.93992  1.0000
  C   C645      1.0  0.74246  0.21464  0.83950  1.0000
  H   H1160     1.0  0.57260  0.29305  0.95901  1.0000
  H   H1161     1.0  0.68993  0.30008  0.79126  1.0000
  C   C646      1.0  0.91229  0.08871  0.92596  1.0000
  C   C647      1.0  0.50508  0.38584  0.99224  1.0000
  C   C648      1.0  0.93236  0.41585  0.99694  1.0000
  H   H1162     1.0  0.61269  0.28250  0.87288  1.0000
  H   H1163     1.0  0.73960  0.31086  0.80654  1.0000
  Fe  Fe72      1.0  0.50690  0.26291  0.74282  1.0000
  S   S143      1.0  0.98570  0.28064  0.97395  1.0000
  H   H1164     1.0  0.88831  0.09745  0.93350  1.0000
  H   H1165     1.0  0.68054  0.29750  0.67919  1.0000
  H   H1166     1.0  0.78805  0.01891  0.75731  1.0000
  H   H1167     1.0  0.61209  0.40498  0.67964  1.0000
  C   C649      1.0  0.85918  0.32456  0.99161  1.0000
  C   C650      1.0  0.95767  0.39097  0.99648  1.0000
  C   C651      1.0  0.57785  0.40429  0.67343  1.0000
  H   H1168     1.0  0.58698  0.48692  0.99078  1.0000
  H   H1169     1.0  0.99885  0.13934  0.97172  1.0000
  H   H1170     1.0  0.98391  0.15043  0.68821  1.0000
  C   C652      1.0  0.99357  0.15220  0.67298  1.0000
  C   C653      1.0  0.99006  0.23004  0.70498  1.0000
  C   C654      1.0  0.97776  0.22843  0.72625  1.0000
  S   S144      1.0  0.99575  0.17435  0.86396  1.0000
  H   H1171     1.0  0.99025  0.35337  0.97513  1.0000
  Fe  Fe73      1.0  0.95258  0.28494  0.00045  1.0000
  H   H1172     1.0  0.61042  0.21660  0.66924  1.0000
  C   C655      1.0  0.99989  0.20243  0.69737  1.0000
  C   C656      1.0  0.51490  0.36075  0.00027  1.0000
  Fe  Fe74      1.0  0.87118  0.88591  0.31228  1.0000
  S   S145      1.0  0.93599  0.88107  0.30575  1.0000
  Fe  Fe75      1.0  0.77907  0.86849  0.30657  1.0000
  S   S146      1.0  0.73151  0.83978  0.28715  1.0000
  Fe  Fe76      1.0  0.80546  0.92578  0.31786  1.0000
  H   H1173     1.0  0.84650  0.79465  0.33178  1.0000
  S   S147      1.0  0.81173  0.89921  0.29098  1.0000
  H   H1174     1.0  0.62593  0.77585  0.32175  1.0000
  H   H1175     1.0  0.56242  0.63820  0.04585  1.0000
  C   C657      1.0  0.86106  0.99906  0.26603  1.0000
  S   S148      1.0  0.97177  0.88845  0.21369  1.0000
  H   H1176     1.0  0.92402  0.76917  0.04795  1.0000
  H   H1177     1.0  0.97963  0.95927  0.17159  1.0000
  H   H1178     1.0  0.60216  0.72471  0.17629  1.0000
  C   C658      1.0  0.91741  0.86154  0.10268  1.0000
  H   H1179     1.0  0.94887  0.86769  0.10082  1.0000
  H   H1180     1.0  0.59409  0.88852  0.27993  1.0000
  H   H1181     1.0  0.63544  0.91728  0.30669  1.0000
  C   C659      1.0  0.95308  0.95612  0.17925  1.0000
  C   C660      1.0  0.54384  0.71883  0.12439  1.0000
  C   C661      1.0  0.89470  0.81685  0.04316  1.0000
  H   H1182     1.0  0.55191  0.85400  0.26757  1.0000
  H   H1183     1.0  0.77364  0.81304  0.32431  1.0000
  H   H1184     1.0  0.96378  0.78943  0.06215  1.0000
  H   H1185     1.0  0.91274  0.75077  0.08291  1.0000
  H   H1186     1.0  0.88996  0.99366  0.27755  1.0000
  C   C662      1.0  0.59473  0.72877  0.15911  1.0000
  C   C663      1.0  0.52368  0.83404  0.22780  1.0000
  H   H1187     1.0  0.61551  0.89019  0.31921  1.0000
  H   H1188     1.0  0.97252  0.93388  0.28625  1.0000
  C   C664      1.0  0.93284  0.83211  0.03878  1.0000
  H   H1189     1.0  0.51993  0.62257  0.13619  1.0000
  C   C665      1.0  0.54236  0.64756  0.03252  1.0000
  H   H1190     1.0  0.54441  0.66467  0.12437  1.0000
  C   C666      1.0  0.67999  0.83064  0.28886  1.0000
  C   C667      1.0  0.65789  0.81215  0.27444  1.0000
  C   C668      1.0  0.61710  0.80410  0.27523  1.0000
  C   C669      1.0  0.59797  0.81432  0.29060  1.0000
  C   C670      1.0  0.62015  0.83270  0.30510  1.0000
  C   C671      1.0  0.66074  0.84096  0.30417  1.0000
  H   H1191     1.0  0.67245  0.80403  0.26252  1.0000
  H   H1192     1.0  0.96210  0.72948  0.06396  1.0000
  H   H1193     1.0  0.60583  0.84055  0.31719  1.0000
  H   H1194     1.0  0.67709  0.85536  0.31523  1.0000
  C   C672      1.0  0.94543  0.88238  0.28002  1.0000
  C   C673      1.0  0.98614  0.87856  0.27715  1.0000
  C   C674      1.0  0.51600  0.72527  0.07659  1.0000
  C   C675      1.0  0.96292  0.88563  0.23944  1.0000
  C   C676      1.0  0.92239  0.88966  0.24238  1.0000
  C   C677      1.0  0.91363  0.88802  0.26254  1.0000
  H   H1195     1.0  0.96142  0.99245  0.19614  1.0000
  H   H1196     1.0  0.86345  0.84057  0.08581  1.0000
  H   H1197     1.0  0.89749  0.89395  0.22894  1.0000
  H   H1198     1.0  0.88225  0.89114  0.26453  1.0000
  C   C678      1.0  0.97349  0.74078  0.07875  1.0000
  H   H1199     1.0  0.59194  0.92216  0.31888  1.0000
  C   C679      1.0  0.57685  0.90136  0.28877  1.0000
  H   H1200     1.0  0.54841  0.74002  0.12145  1.0000
  C   C680      1.0  0.55893  0.65549  0.01526  1.0000
  H   H1201     1.0  0.94880  0.85892  0.01602  1.0000
  H   H1202     1.0  0.93191  0.96797  0.20650  1.0000
  H   H1203     1.0  0.80620  0.74988  0.07059  1.0000
  C   C681      1.0  0.97659  0.96212  0.24864  1.0000
  C   C682      1.0  0.94159  0.76131  0.08155  1.0000
  H   H1204     1.0  0.95437  0.77173  0.09658  1.0000
  H   H1205     1.0  0.55937  0.69328  0.15223  1.0000
  H   H1206     1.0  0.54646  0.86984  0.30194  1.0000
  H   H1207     1.0  0.92081  0.85028  0.11755  1.0000
  C   C683      1.0  0.95628  0.95291  0.28342  1.0000
  C   C684      1.0  0.93319  0.78067  0.06279  1.0000
  C   C685      1.0  0.58691  0.59471  0.00127  1.0000
  H   H1208     1.0  0.62118  0.72208  0.15245  1.0000
  H   H1209     1.0  0.94672  0.82691  0.32162  1.0000
  S   S149      1.0  0.78289  0.96717  0.30778  1.0000
  H   H1210     1.0  0.56958  0.91987  0.27992  1.0000
  C   C686      1.0  0.99490  0.88017  0.25694  1.0000
  H   H1211     1.0  0.94972  0.93484  0.18208  1.0000
  H   H1212     1.0  0.83356  0.77751  0.03391  1.0000
  H   H1213     1.0  0.51020  0.57386  0.01374  1.0000
  C   C687      1.0  0.95981  0.97136  0.19995  1.0000
  Fe  Fe77      1.0  0.95305  0.75819  0.00307  1.0000
  H   H1214     1.0  0.56875  0.70871  0.11835  1.0000
  H   H1215     1.0  0.90632  0.83699  0.00524  1.0000
  H   H1216     1.0  0.86440  0.78241  0.08243  1.0000
  C   C688      1.0  0.60659  0.90812  0.30972  1.0000
  H   H1217     1.0  0.77750  0.77506  0.05396  1.0000
  C   C689      1.0  0.80039  0.75902  0.05475  1.0000
  H   H1218     1.0  0.88488  0.80321  0.02957  1.0000
  H   H1219     1.0  0.89908  0.87940  0.10393  1.0000
  H   H1220     1.0  0.81829  0.78977  0.30499  1.0000
  H   H1221     1.0  0.86825  0.83061  0.04201  1.0000
  N   N36       1.0  0.90213  0.80195  0.06363  1.0000
  S   S150      1.0  0.54653  0.80526  0.29251  1.0000
  H   H1222     1.0  0.83772  0.80650  0.06528  1.0000
  C   C690      1.0  0.52386  0.71479  0.05584  1.0000
  H   H1223     1.0  0.95245  0.82501  0.08245  1.0000
  C   C691      1.0  0.55457  0.71439  0.14863  1.0000
  C   C692      1.0  0.89535  0.84508  0.08378  1.0000
  H   H1224     1.0  0.95674  0.81817  0.03600  1.0000
  H   H1225     1.0  0.78677  0.74392  0.04285  1.0000
  N   N37       1.0  0.50401  0.88052  0.27282  1.0000
  C   C693      1.0  0.84105  0.76942  0.05009  1.0000
  H   H1226     1.0  0.94733  0.84522  0.05199  1.0000
  H   H1227     1.0  0.59100  0.75025  0.15689  1.0000
  C   C694      1.0  0.91963  0.81954  0.08219  1.0000
  H   H1228     1.0  0.92115  0.80891  0.09724  1.0000
  C   C695      1.0  0.98014  0.97127  0.27173  1.0000
  H   H1229     1.0  0.97790  0.94035  0.24812  1.0000
  H   H1230     1.0  0.52339  0.90115  0.30265  1.0000
  H   H1231     1.0  0.55301  0.82479  0.23637  1.0000
  H   H1232     1.0  0.92420  0.96286  0.16837  1.0000
  H   H1233     1.0  0.60058  0.78992  0.26400  1.0000
  C   C696      1.0  0.86115  0.79070  0.06635  1.0000
  C   C697      1.0  0.77885  0.79193  0.32753  1.0000
  H   H1234     1.0  0.86193  0.75244  0.05033  1.0000
  H   H1235     1.0  0.89299  0.85739  0.06957  1.0000
  H   H1236     1.0  0.89818  0.86441  0.02153  1.0000
  H   H1237     1.0  0.94423  0.96669  0.24030  1.0000
  H   H1238     1.0  0.92392  0.94944  0.27427  1.0000
  C   C698      1.0  0.92053  0.84912  0.01917  1.0000
  C   C699      1.0  0.53653  0.88773  0.29239  1.0000
  H   H1239     1.0  0.99949  0.94099  0.21623  1.0000
  H   H1240     1.0  0.52970  0.72102  0.15632  1.0000
  C   C700      1.0  0.51043  0.66069  0.12134  1.0000
  S   S151      1.0  0.88653  0.75035  0.00676  1.0000
  H   H1241     1.0  0.75367  0.78061  0.31699  1.0000
  H   H1242     1.0  0.52660  0.68699  0.09021  1.0000
  S   S152      1.0  0.83973  0.85282  0.32570  1.0000
  H   H1243     1.0  0.53347  0.73106  0.04662  1.0000
  H   H1244     1.0  0.95490  0.96147  0.29894  1.0000
  H   H1245     1.0  0.85693  0.98568  0.25225  1.0000
  H   H1246     1.0  0.70032  0.79188  0.32929  1.0000
  H   H1247     1.0  0.82445  0.76283  0.32327  1.0000
  H   H1248     1.0  0.50457  0.81892  0.21767  1.0000
  S   S153      1.0  0.76882  0.89574  0.33200  1.0000
  H   H1249     1.0  0.96666  0.99113  0.27186  1.0000
  H   H1250     1.0  0.54893  0.69991  0.05868  1.0000
  H   H1251     1.0  0.63062  0.56840  0.02122  1.0000
  H   H1252     1.0  0.54468  0.73553  0.08507  1.0000
  H   H1253     1.0  0.65082  0.60077  0.01831  1.0000
  H   H1254     1.0  0.59154  0.65250  0.01551  1.0000
  H   H1255     1.0  0.57208  0.50492  0.09470  1.0000
  C   C701      1.0  0.79700  0.99839  0.31956  1.0000
  H   H1256     1.0  0.57429  0.60167  0.01472  1.0000
  C   C702      1.0  0.50355  0.70284  0.09013  1.0000
  H   H1257     1.0  0.92303  0.80099  0.33364  1.0000
  C   C703      1.0  0.63097  0.58464  0.00995  1.0000
  C   C704      1.0  0.81962  0.78428  0.32163  1.0000
  H   H1258     1.0  0.53996  0.87920  0.24860  1.0000
  N   N38       1.0  0.50117  0.70996  0.11241  1.0000
  H   H1259     1.0  0.97867  0.72695  0.09219  1.0000
  H   H1260     1.0  0.50983  0.91732  0.25728  1.0000
  H   H1261     1.0  0.53123  0.84986  0.21755  1.0000
  H   H1262     1.0  0.83407  0.99628  0.27354  1.0000
  C   C705      1.0  0.52555  0.86548  0.25826  1.0000
  H   H1263     1.0  0.51281  0.64869  0.15373  1.0000
  H   H1264     1.0  0.79800  0.74304  0.00164  1.0000
  C   C706      1.0  0.50241  0.64076  0.13749  1.0000
  H   H1265     1.0  0.50100  0.65150  0.10548  1.0000
  C   C707      1.0  0.00034  0.96270  0.21551  1.0000
  H   H1266     1.0  0.87295  0.86239  0.42973  1.0000
  H   H1267     1.0  0.67683  0.69371  0.52132  1.0000
  H   H1268     1.0  0.98376  0.86343  0.34487  1.0000
  S   S154      1.0  0.84240  0.87123  0.38544  1.0000
  Fe  Fe78      1.0  0.68763  0.65438  0.61102  1.0000
  S   S155      1.0  0.66330  0.68386  0.58605  1.0000
  S   S156      1.0  0.69983  0.66404  0.64621  1.0000
  Fe  Fe79      1.0  0.69456  0.61203  0.57827  1.0000
  S   S157      1.0  0.67088  0.63924  0.55101  1.0000
  S   S158      1.0  0.70961  0.57069  0.56864  1.0000
  Fe  Fe80      1.0  0.71326  0.66989  0.56982  1.0000
  S   S159      1.0  0.74605  0.70307  0.55564  1.0000
  Fe  Fe81      1.0  0.62355  0.65100  0.56918  1.0000
  S   S160      1.0  0.55374  0.65592  0.55695  1.0000
  S   S161      1.0  0.74038  0.64202  0.59596  1.0000
  S   S162      1.0  0.64461  0.62215  0.59538  1.0000
  Fe  Fe82      1.0  0.95572  0.73702  0.50846  1.0000
  S   S163      1.0  0.94632  0.77957  0.49950  1.0000
  S   S164      1.0  0.91332  0.70733  0.52038  1.0000
  Fe  Fe83      1.0  0.97412  0.77004  0.47166  1.0000
  S   S165      1.0  0.95105  0.77915  0.43641  1.0000
  S   S166      1.0  0.97935  0.72696  0.47946  1.0000
  C   C708      1.0  0.69108  0.54029  0.57632  1.0000
  C   C709      1.0  0.67228  0.53813  0.59352  1.0000
  C   C710      1.0  0.69626  0.51752  0.56499  1.0000
  H   H1269     1.0  0.66831  0.55545  0.60244  1.0000
  H   H1270     1.0  0.71048  0.51906  0.55156  1.0000
  C   C711      1.0  0.55247  0.57732  0.53742  1.0000
  C   C712      1.0  0.54521  0.64483  0.51455  1.0000
  H   H1271     1.0  0.57822  0.64081  0.51820  1.0000
  C   C713      1.0  0.79305  0.70394  0.54625  1.0000
  C   C714      1.0  0.81773  0.68180  0.54616  1.0000
  C   C715      1.0  0.85429  0.68335  0.53821  1.0000
  C   C716      1.0  0.86687  0.70699  0.53030  1.0000
  C   C717      1.0  0.84240  0.72923  0.53058  1.0000
  C   C718      1.0  0.80571  0.72766  0.53845  1.0000
  H   H1272     1.0  0.80855  0.66342  0.55208  1.0000
  H   H1273     1.0  0.87292  0.66601  0.53811  1.0000
  H   H1274     1.0  0.85144  0.74752  0.52448  1.0000
  H   H1275     1.0  0.78691  0.74493  0.53844  1.0000
  Fe  Fe84      1.0  0.83142  0.88155  0.35038  1.0000
  C   C719      1.0  0.53764  0.57505  0.59534  1.0000
  C   C720      1.0  0.62608  0.68923  0.64849  1.0000
  H   H1276     1.0  0.56889  0.70815  0.65101  1.0000
  H   H1277     1.0  0.92827  0.73278  0.62285  1.0000
  H   H1278     1.0  0.69824  0.87193  0.35437  1.0000
  H   H1279     1.0  0.61669  0.68661  0.63161  1.0000
  H   H1280     1.0  0.57869  0.67709  0.48526  1.0000
  C   C721      1.0  0.68673  0.73867  0.50468  1.0000
  C   C722      1.0  0.74900  0.78519  0.38157  1.0000
  C   C723      1.0  0.87206  0.84525  0.39936  1.0000
  C   C724      1.0  0.88427  0.82370  0.38899  1.0000
  C   C725      1.0  0.90773  0.80348  0.40063  1.0000
  C   C726      1.0  0.91918  0.80446  0.42278  1.0000
  C   C727      1.0  0.90608  0.82573  0.43318  1.0000
  C   C728      1.0  0.88268  0.84597  0.42151  1.0000
  H   H1281     1.0  0.87531  0.82249  0.37202  1.0000
  H   H1282     1.0  0.91728  0.78700  0.39242  1.0000
  H   H1283     1.0  0.91442  0.82674  0.45019  1.0000
  H   H1284     1.0  0.74355  0.83803  0.39123  1.0000
  H   H1285     1.0  0.60564  0.56063  0.51145  1.0000
  C   C729      1.0  0.91205  0.74295  0.60828  1.0000
  H   H1286     1.0  0.66373  0.78663  0.36858  1.0000
  H   H1287     1.0  0.69257  0.83146  0.37580  1.0000
  H   H1288     1.0  0.89192  0.75800  0.61338  1.0000
  C   C730      1.0  0.70462  0.78446  0.34568  1.0000
  C   C731      1.0  0.59654  0.72987  0.55345  1.0000
  H   H1289     1.0  0.84288  0.98450  0.34605  1.0000
  H   H1290     1.0  0.95573  0.80661  0.57769  1.0000
  H   H1291     1.0  0.74519  0.76347  0.38107  1.0000
  H   H1292     1.0  0.59778  0.57553  0.61784  1.0000
  H   H1293     1.0  0.90139  0.70390  0.59396  1.0000
  H   H1294     1.0  0.55329  0.58040  0.62929  1.0000
  H   H1295     1.0  0.65181  0.57673  0.52626  1.0000
  C   C732      1.0  0.71781  0.86884  0.37041  1.0000
  H   H1296     1.0  0.63577  0.74579  0.53454  1.0000
  H   H1297     1.0  0.61478  0.59149  0.55288  1.0000
  H   H1298     1.0  0.99106  0.78616  0.60595  1.0000
  H   H1299     1.0  0.69077  0.73827  0.52198  1.0000
  H   H1300     1.0  0.77592  0.83347  0.36136  1.0000
  H   H1301     1.0  0.93090  0.87362  0.37683  1.0000
  C   C733      1.0  0.54686  0.50711  0.63183  1.0000
  H   H1302     1.0  0.68151  0.68921  0.48037  1.0000
  C   C734      1.0  0.76069  0.72535  0.66037  1.0000
  C   C735      1.0  0.66480  0.68000  0.65935  1.0000
  C   C736      1.0  0.62365  0.72614  0.53741  1.0000
  H   H1303     1.0  0.58113  0.69672  0.52055  1.0000
  H   H1304     1.0  0.64239  0.73055  0.47586  1.0000
  H   H1305     1.0  0.60752  0.59599  0.51401  1.0000
  H   H1306     1.0  0.58779  0.57170  0.57933  1.0000
  H   H1307     1.0  0.57294  0.52160  0.54761  1.0000
  N   N39       1.0  0.74385  0.79582  0.35952  1.0000
  C   C737      1.0  0.91958  0.77013  0.57825  1.0000
  H   H1308     1.0  0.93102  0.71413  0.56818  1.0000
  H   H1309     1.0  0.81620  0.77858  0.39299  1.0000
  H   H1310     1.0  0.56177  0.60192  0.57513  1.0000
  H   H1311     1.0  0.69227  0.75801  0.65666  1.0000
  C   C738      1.0  0.94567  0.78911  0.56764  1.0000
  H   H1312     1.0  0.89266  0.81029  0.54928  1.0000
  C   C739      1.0  0.88318  0.72175  0.59539  1.0000
  C   C740      1.0  0.84852  0.71357  0.60634  1.0000
  C   C741      1.0  0.96270  0.90478  0.39581  1.0000
  C   C742      1.0  0.91991  0.79908  0.54673  1.0000
  C   C743      1.0  0.60067  0.57517  0.54231  1.0000
  H   H1313     1.0  0.89379  0.78181  0.58215  1.0000
  H   H1314     1.0  0.90394  0.75606  0.56599  1.0000
  H   H1315     1.0  0.70231  0.87822  0.38200  1.0000
  H   H1316     1.0  0.70744  0.76277  0.34467  1.0000
  C   C744      1.0  0.65999  0.51335  0.59966  1.0000
  C   C745      1.0  0.72339  0.83968  0.37520  1.0000
  C   C746      1.0  0.92865  0.92542  0.39066  1.0000
  H   H1317     1.0  0.58363  0.71080  0.55728  1.0000
  H   H1318     1.0  0.60549  0.69271  0.46782  1.0000
  H   H1319     1.0  0.82912  0.69789  0.59700  1.0000
  C   C747      1.0  0.98948  0.85075  0.35902  1.0000
  H   H1320     1.0  0.59711  0.78015  0.34195  1.0000
  H   H1321     1.0  0.96872  0.84407  0.40023  1.0000
  H   H1322     1.0  0.62488  0.76515  0.65506  1.0000
  H   H1323     1.0  0.86775  0.72859  0.57949  1.0000
  C   C748      1.0  0.59906  0.70152  0.65954  1.0000
  H   H1324     1.0  0.86177  0.70589  0.62235  1.0000
  H   H1325     1.0  0.82791  0.73038  0.60748  1.0000
  H   H1326     1.0  0.93080  0.93879  0.40433  1.0000
  H   H1327     1.0  0.57040  0.74336  0.54726  1.0000
  H   H1328     1.0  0.61567  0.73833  0.56822  1.0000
  H   H1329     1.0  0.74862  0.87849  0.37171  1.0000
  H   H1330     1.0  0.70770  0.64466  0.51235  1.0000
  H   H1331     1.0  0.89731  0.91608  0.38726  1.0000
  H   H1332     1.0  0.90871  0.78246  0.53590  1.0000
  N   N40       1.0  0.94313  0.75619  0.59765  1.0000
  C   C749      1.0  0.59020  0.69650  0.48116  1.0000
  H   H1333     1.0  0.92242  0.84224  0.35308  1.0000
  H   H1334     1.0  0.98144  0.72191  0.60574  1.0000
  C   C750      1.0  0.67389  0.67429  0.49131  1.0000
  H   H1335     1.0  0.72822  0.65131  0.48942  1.0000
  C   C751      1.0  0.98824  0.76709  0.63491  1.0000
  H   H1336     1.0  0.79334  0.72359  0.65859  1.0000
  C   C752      1.0  0.55719  0.52325  0.56096  1.0000
  C   C753      1.0  0.96307  0.72207  0.57164  1.0000
  H   H1337     1.0  0.95411  0.81789  0.36896  1.0000
  C   C754      1.0  0.65234  0.68664  0.50791  1.0000
  H   H1338     1.0  0.53933  0.56524  0.52320  1.0000
  H   H1339     1.0  0.78156  0.76609  0.42206  1.0000
  H   H1340     1.0  0.63561  0.79977  0.65781  1.0000
  C   C755      1.0  0.74357  0.82544  0.35886  1.0000
  H   H1341     1.0  0.94473  0.79281  0.61483  1.0000
  H   H1342     1.0  0.72417  0.79230  0.38916  1.0000
  H   H1343     1.0  0.64646  0.51183  0.61331  1.0000
  H   H1344     1.0  0.58011  0.52965  0.57523  1.0000
  H   H1345     1.0  0.85142  0.51406  0.56723  1.0000
  C   C756      1.0  0.62743  0.77378  0.33888  1.0000
  H   H1346     1.0  0.82177  0.79063  0.42982  1.0000
  H   H1347     1.0  0.56087  0.79054  0.65227  1.0000
  C   C757      1.0  0.79038  0.78671  0.41969  1.0000
  C   C758      1.0  0.55625  0.58040  0.57583  1.0000
  C   C759      1.0  0.95999  0.88510  0.37743  1.0000
  H   H1348     1.0  0.65265  0.65959  0.48176  1.0000
  H   H1349     1.0  0.93223  0.93724  0.37686  1.0000
  H   H1350     1.0  0.53291  0.55376  0.59728  1.0000
  C   C760      1.0  0.55122  0.71330  0.47226  1.0000
  N   N41       1.0  0.62129  0.70782  0.49978  1.0000
  H   H1351     1.0  0.53644  0.63469  0.48166  1.0000
  H   H1352     1.0  0.65456  0.81131  0.34820  1.0000
  C   C761      1.0  0.52147  0.64130  0.49392  1.0000
  H   H1353     1.0  0.64988  0.71335  0.54468  1.0000
  C   C762      1.0  0.64129  0.73203  0.49280  1.0000
  H   H1354     1.0  0.61201  0.55667  0.55016  1.0000
  H   H1355     1.0  0.73700  0.67445  0.51086  1.0000
  C   C763      1.0  0.56680  0.58499  0.61552  1.0000
  C   C764      1.0  0.70025  0.76574  0.49866  1.0000
  H   H1356     1.0  0.99127  0.84070  0.43951  1.0000
  H   H1357     1.0  0.62161  0.74946  0.49372  1.0000
  C   C765      1.0  0.82028  0.51083  0.55667  1.0000
  N   N42       1.0  0.53047  0.57104  0.55492  1.0000
  H   H1358     1.0  0.54663  0.59799  0.53246  1.0000
  C   C766      1.0  0.79162  0.79140  0.39669  1.0000
  C   C767      1.0  0.61721  0.57726  0.52221  1.0000
  H   H1359     1.0  0.72796  0.83223  0.34283  1.0000
  H   H1360     1.0  0.68046  0.78113  0.50340  1.0000
  H   H1361     1.0  0.73312  0.76953  0.50691  1.0000
  H   H1362     1.0  0.69814  0.76685  0.48142  1.0000
  H   H1363     1.0  0.82360  0.50980  0.54008  1.0000
  H   H1364     1.0  0.80989  0.79492  0.36003  1.0000
  H   H1365     1.0  0.63672  0.67036  0.51456  1.0000
  H   H1366     1.0  0.95825  0.89418  0.41004  1.0000
  C   C768      1.0  0.71410  0.66033  0.50169  1.0000
  H   H1367     1.0  0.70334  0.80370  0.66166  1.0000
  H   H1368     1.0  0.80116  0.81201  0.39511  1.0000
  C   C769      1.0  0.59786  0.71444  0.51659  1.0000
  H   H1369     1.0  0.70895  0.72434  0.50067  1.0000
  N   N43       1.0  0.99667  0.86709  0.37891  1.0000
  H   H1370     1.0  0.57351  0.72926  0.51079  1.0000
  C   C770      1.0  0.66281  0.79053  0.35178  1.0000
  H   H1371     1.0  0.99282  0.91547  0.39953  1.0000
  H   H1372     1.0  0.73967  0.72502  0.64444  1.0000
  H   H1373     1.0  0.76785  0.80010  0.42463  1.0000
  C   C771      1.0  0.52590  0.65293  0.53052  1.0000
  H   H1374     1.0  0.93943  0.81224  0.53925  1.0000
  H   H1375     1.0  0.51735  0.51829  0.62913  1.0000
  H   H1376     1.0  0.52970  0.71302  0.48322  1.0000
  H   H1377     1.0  0.99938  0.80630  0.64862  1.0000
  H   H1378     1.0  0.80034  0.52786  0.55827  1.0000
  C   C772      1.0  0.78024  0.78607  0.35103  1.0000
  H   H1379     1.0  0.95384  0.89598  0.36227  1.0000
  H   H1380     1.0  0.78356  0.76447  0.35316  1.0000
  C   C773      1.0  0.96623  0.77677  0.61266  1.0000
  C   C774      1.0  0.95206  0.83136  0.35548  1.0000
  H   H1381     1.0  0.96548  0.73549  0.55860  1.0000
  H   H1382     1.0  0.96492  0.76228  0.64434  1.0000
  C   C775      1.0  0.51998  0.54224  0.55512  1.0000
  H   H1383     1.0  0.56710  0.51380  0.64696  1.0000
  H   H1384     1.0  0.56014  0.73386  0.46981  1.0000
  C   C776      1.0  0.97447  0.73683  0.59301  1.0000
  H   H1385     1.0  0.97385  0.77941  0.56468  1.0000
  H   H1386     1.0  0.63191  0.75282  0.34321  1.0000
  H   H1387     1.0  0.57088  0.60658  0.61488  1.0000
  H   H1388     1.0  0.56276  0.51147  0.61882  1.0000
  H   H1389     1.0  0.50747  0.58515  0.59399  1.0000
  H   H1390     1.0  0.98864  0.68412  0.58276  1.0000
  H   H1391     1.0  0.54564  0.70302  0.43914  1.0000
  S   S167      1.0  0.86685  0.91399  0.33836  1.0000
  C   C777      1.0  0.82717  0.00150  0.33829  1.0000
  C   C778      1.0  0.62594  0.78234  0.66565  1.0000
  H   H1392     1.0  0.76643  0.76710  0.66340  1.0000
  C   C779      1.0  0.95026  0.81449  0.33588  1.0000
  H   H1393     1.0  0.97895  0.80264  0.33757  1.0000
  C   C780      1.0  0.52663  0.70233  0.45125  1.0000
  H   H1394     1.0  0.70674  0.85330  0.66336  1.0000
  H   H1395     1.0  0.50212  0.53578  0.53938  1.0000
  C   C781      1.0  0.99253  0.69923  0.57110  1.0000
  H   H1396     1.0  0.51676  0.68177  0.45315  1.0000
  H   H1397     1.0  0.98528  0.69008  0.55519  1.0000
  C   C782      1.0  0.00021  0.84870  0.39748  1.0000
  Fe  Fe85      1.0  0.62261  0.79379  0.74555  1.0000
  S   S168      1.0  0.64194  0.75176  0.74886  1.0000
  S   S169      1.0  0.66875  0.82508  0.74014  1.0000
  C   C783      1.0  0.91862  0.99263  0.80643  1.0000
  S   S170      1.0  0.54496  0.73746  0.74997  1.0000
  Fe  Fe86      1.0  0.60343  0.74933  0.77356  1.0000
  S   S171      1.0  0.63571  0.73389  0.80618  1.0000
  Fe  Fe87      1.0  0.58259  0.74341  0.72508  1.0000
  S   S172      1.0  0.57395  0.71924  0.69469  1.0000
  S   S173      1.0  0.58782  0.79230  0.77150  1.0000
  S   S174      1.0  0.56487  0.78589  0.72031  1.0000
  Fe  Fe88      1.0  0.61299  0.66212  0.91353  1.0000
  S   S175      1.0  0.66468  0.63291  0.92173  1.0000
  S   S176      1.0  0.57818  0.67075  0.87966  1.0000
  Fe  Fe89      1.0  0.60269  0.66423  0.96000  1.0000
  S   S177      1.0  0.65478  0.63561  0.97111  1.0000
  H   H1398     1.0  0.81706  0.99244  0.80030  1.0000
  Fe  Fe90      1.0  0.68891  0.65874  0.95021  1.0000
  S   S178      1.0  0.75930  0.66583  0.95500  1.0000
  Fe  Fe91      1.0  0.62704  0.61237  0.94174  1.0000
  S   S179      1.0  0.60010  0.57080  0.93950  1.0000
  S   S180      1.0  0.63846  0.68902  0.94089  1.0000
  S   S181      1.0  0.57383  0.64002  0.93186  1.0000
  C   C784      1.0  0.68327  0.51231  0.93735  1.0000
  S   S182      1.0  0.91224  0.90151  0.83504  1.0000
  H   H1399     1.0  0.78533  0.92309  0.73983  1.0000
  Fe  Fe92      1.0  0.96868  0.86980  0.79462  1.0000
  S   S183      1.0  0.90711  0.89012  0.78502  1.0000
  Fe  Fe93      1.0  0.93544  0.92098  0.80878  1.0000
  S   S184      1.0  0.93079  0.96256  0.79559  1.0000
  Fe  Fe94      1.0  0.88871  0.86908  0.81174  1.0000
  S   S185      1.0  0.82834  0.84809  0.81349  1.0000
  S   S186      1.0  0.94783  0.84588  0.81961  1.0000
  H   H1400     1.0  0.82319  0.95198  0.81110  1.0000
  H   H1401     1.0  0.56617  0.59004  0.79001  1.0000
  H   H1402     1.0  0.84547  0.94209  0.78054  1.0000
  H   H1403     1.0  0.86961  0.80786  0.87427  1.0000
  C   C785      1.0  0.98958  0.80703  0.91988  1.0000
  H   H1404     1.0  0.61390  0.53889  0.84790  1.0000
  H   H1405     1.0  0.69656  0.73604  0.67774  1.0000
  H   H1406     1.0  0.72490  0.93870  0.74076  1.0000
  H   H1407     1.0  0.78467  0.69270  0.88555  1.0000
  H   H1408     1.0  0.89909  0.97610  0.83307  1.0000
  H   H1409     1.0  0.76965  0.95141  0.81247  1.0000
  H   H1410     1.0  0.51077  0.62643  0.87743  1.0000
  H   H1411     1.0  0.74396  0.71218  0.89262  1.0000
  C   C786      1.0  0.80774  0.91421  0.83848  1.0000
  H   H1412     1.0  0.56798  0.57881  0.88788  1.0000
  C   C787      1.0  0.97488  0.82634  0.88457  1.0000
  C   C788      1.0  0.65583  0.77696  0.68727  1.0000
  H   H1413     1.0  0.58234  0.62227  0.78372  1.0000
  H   H1414     1.0  0.63685  0.57764  0.88540  1.0000
  C   C789      1.0  0.62455  0.53990  0.93981  1.0000
  C   C790      1.0  0.66612  0.53740  0.93837  1.0000
  H   H1415     1.0  0.69872  0.65527  0.88037  1.0000
  H   H1416     1.0  0.68483  0.55474  0.93765  1.0000
  H   H1417     1.0  0.54387  0.67419  0.83534  1.0000
  C   C791      1.0  0.79366  0.68978  0.96950  1.0000
  C   C792      1.0  0.83623  0.68883  0.96912  1.0000
  H   H1418     1.0  0.68541  0.61478  0.84435  1.0000
  H   H1419     1.0  0.88796  0.70787  0.90643  1.0000
  H   H1420     1.0  0.83492  0.92702  0.84515  1.0000
  C   C793      1.0  0.78004  0.70958  0.98120  1.0000
  H   H1421     1.0  0.84716  0.67354  0.96021  1.0000
  H   H1422     1.0  0.96144  0.82459  0.86788  1.0000
  H   H1423     1.0  0.82188  0.78273  0.97629  1.0000
  H   H1424     1.0  0.71527  0.51054  0.93593  1.0000
  C   C794      1.0  0.64936  0.69602  0.69237  1.0000
  C   C795      1.0  0.71382  0.83077  0.76029  1.0000
  C   C796      1.0  0.71749  0.81994  0.78029  1.0000
  C   C797      1.0  0.75291  0.82538  0.79630  1.0000
  C   C798      1.0  0.78535  0.84131  0.79242  1.0000
  C   C799      1.0  0.78210  0.85183  0.77230  1.0000
  C   C800      1.0  0.74625  0.84674  0.75633  1.0000
  H   H1425     1.0  0.69281  0.80757  0.78352  1.0000
  H   H1426     1.0  0.75520  0.81713  0.81180  1.0000
  H   H1427     1.0  0.80709  0.86389  0.76909  1.0000
  H   H1428     1.0  0.74373  0.85510  0.74087  1.0000
  C   C801      1.0  0.61987  0.71540  0.82622  1.0000
  C   C802      1.0  0.64419  0.71662  0.84693  1.0000
  C   C803      1.0  0.63210  0.70305  0.86349  1.0000
  C   C804      1.0  0.59552  0.68799  0.85948  1.0000
  C   C805      1.0  0.57184  0.68616  0.83868  1.0000
  C   C806      1.0  0.58423  0.69950  0.82211  1.0000
  H   H1429     1.0  0.67229  0.72848  0.85023  1.0000
  H   H1430     1.0  0.65087  0.70444  0.87936  1.0000
  C   C807      1.0  0.81538  0.93290  0.77243  1.0000
  H   H1431     1.0  0.56656  0.69727  0.80611  1.0000
  H   H1432     1.0  0.69304  0.95239  0.75699  1.0000
  H   H1433     1.0  0.62695  0.80448  0.84636  1.0000
  H   H1434     1.0  0.61253  0.50678  0.87562  1.0000
  H   H1435     1.0  0.62079  0.59715  0.79138  1.0000
  C   C808      1.0  0.79305  0.94151  0.80515  1.0000
  N   N44       1.0  0.61161  0.59592  0.85531  1.0000
  C   C809      1.0  0.60979  0.59035  0.83236  1.0000
  C   C810      1.0  0.63221  0.57325  0.86825  1.0000
  C   C811      1.0  0.56775  0.59996  0.85822  1.0000
  C   C812      1.0  0.63636  0.62053  0.86236  1.0000
  C   C813      1.0  0.68242  0.62073  0.86032  1.0000
  C   C814      1.0  0.59654  0.61366  0.81713  1.0000
  C   C815      1.0  0.67627  0.68353  0.68134  1.0000
  C   C816      1.0  0.86493  0.70725  0.98035  1.0000
  H   H1436     1.0  0.92381  0.73466  0.90613  1.0000
  C   C817      1.0  0.70165  0.64808  0.86465  1.0000
  S   S187      1.0  0.55405  0.68070  0.97687  1.0000
  H   H1437     1.0  0.77222  0.90054  0.80880  1.0000
  H   H1438     1.0  0.58748  0.57401  0.82674  1.0000
  Fe  Fe95      1.0  0.53109  0.78077  0.74649  1.0000
  H   H1439     1.0  0.66161  0.52422  0.88187  1.0000
  H   H1440     1.0  0.66018  0.90830  0.75923  1.0000
  C   C818      1.0  0.79959  0.91353  0.81445  1.0000
  H   H1441     1.0  0.55596  0.61939  0.85189  1.0000
  H   H1442     1.0  0.62066  0.63780  0.85390  1.0000
  H   H1443     1.0  0.63695  0.62467  0.87908  1.0000
  H   H1444     1.0  0.83625  0.83277  0.88088  1.0000
  H   H1445     1.0  0.54574  0.58546  0.84887  1.0000
  H   H1446     1.0  0.56658  0.62203  0.81904  1.0000
  H   H1447     1.0  0.62057  0.62943  0.82005  1.0000
  H   H1448     1.0  0.64589  0.75778  0.69264  1.0000
  H   H1449     1.0  0.54406  0.77612  0.80234  1.0000
  H   H1450     1.0  0.87794  0.93878  0.75046  1.0000
  H   H1451     1.0  0.57577  0.54772  0.86251  1.0000
  H   H1452     1.0  0.82897  0.69974  0.92153  1.0000
  H   H1453     1.0  0.55071  0.75290  0.82259  1.0000
  H   H1454     1.0  0.55618  0.79067  0.84957  1.0000
  C   C819      1.0  0.97122  0.80547  0.89822  1.0000
  H   H1455     1.0  0.74997  0.90553  0.77245  1.0000
  C   C820      1.0  0.51753  0.60584  0.88245  1.0000
  C   C821      1.0  0.72026  0.85179  0.68053  1.0000
  H   H1456     1.0  0.75937  0.97414  0.75872  1.0000
  H   H1457     1.0  0.66417  0.57027  0.86571  1.0000
  H   H1458     1.0  0.56177  0.55594  0.99977  1.0000
  N   N45       1.0  0.78005  0.94315  0.78142  1.0000
  H   H1459     1.0  0.83523  0.98511  0.77676  1.0000
  C   C822      1.0  0.59116  0.60512  0.79418  1.0000
  H   H1460     1.0  0.81462  0.89410  0.84472  1.0000
  S   S188      1.0  0.96480  0.79766  0.99024  1.0000
  C   C823      1.0  0.60956  0.78896  0.83597  1.0000
  H   H1461     1.0  0.66937  0.82939  0.68704  1.0000
  H   H1462     1.0  0.64035  0.58318  0.83009  1.0000
  H   H1463     1.0  0.82831  0.80815  0.91232  1.0000
  H   H1464     1.0  0.70114  0.60727  0.87201  1.0000
  S   S189      1.0  0.98904  0.77884  0.93573  1.0000
  H   H1465     1.0  0.97095  0.71795  0.93803  1.0000
  H   H1466     1.0  0.78850  0.71906  0.92842  1.0000
  C   C824      1.0  0.56275  0.79263  0.83367  1.0000
  H   H1467     1.0  0.56844  0.51883  0.94168  1.0000
  H   H1468     1.0  0.74490  0.97830  0.78304  1.0000
  H   H1469     1.0  0.95500  0.78776  0.89183  1.0000
  C   C825      1.0  0.85139  0.72692  0.99213  1.0000
  H   H1470     1.0  0.85576  0.90630  0.74438  1.0000
  C   C826      1.0  0.70972  0.93446  0.75392  1.0000
  S   S190      1.0  0.99335  0.85143  0.76789  1.0000
  H   H1471     1.0  0.85817  0.80974  0.98001  1.0000
  C   C827      1.0  0.99752  0.84889  0.89241  1.0000
  H   H1472     1.0  0.88625  0.82698  0.89815  1.0000
  H   H1473     1.0  0.81254  0.81057  0.95874  1.0000
  H   H1474     1.0  0.65811  0.69789  0.70932  1.0000
  H   H1475     1.0  0.77991  0.92144  0.84369  1.0000
  H   H1476     1.0  0.52755  0.59973  0.95424  1.0000
  C   C828      1.0  0.56197  0.59876  0.88126  1.0000
  C   C829      1.0  0.81082  0.93593  0.74839  1.0000
  C   C830      1.0  0.80882  0.72796  0.99253  1.0000
  C   C831      1.0  0.53720  0.77240  0.81805  1.0000
  H   H1477     1.0  0.75957  0.68189  0.90605  1.0000
  S   S191      1.0  0.98992  0.73623  0.98367  1.0000
  C   C832      1.0  0.61049  0.70506  0.68152  1.0000
  H   H1478     1.0  0.52714  0.62049  0.97608  1.0000
  H   H1479     1.0  0.65402  0.91952  0.73249  1.0000
  Fe  Fe96      1.0  0.97233  0.87916  0.84153  1.0000
  C   C833      1.0  0.60067  0.51712  0.94066  1.0000
  H   H1480     1.0  0.75480  0.85126  0.68331  1.0000
  C   C834      1.0  0.80779  0.99105  0.78289  1.0000
  C   C835      1.0  0.77084  0.97153  0.77591  1.0000
  H   H1481     1.0  0.89762  0.70599  0.98012  1.0000
  C   C836      1.0  0.72609  0.77326  0.70959  1.0000
  H   H1482     1.0  0.71724  0.82722  0.70672  1.0000
  H   H1483     1.0  0.77656  0.74958  0.68789  1.0000
  H   H1484     1.0  0.84712  0.93133  0.72457  1.0000
  H   H1485     1.0  0.95975  0.69314  0.91788  1.0000
  C   C837      1.0  0.72396  0.74571  0.71923  1.0000
  H   H1486     1.0  0.62079  0.53197  0.89544  1.0000
  H   H1487     1.0  0.74743  0.71057  0.98166  1.0000
  C   C838      1.0  0.85043  0.92757  0.74164  1.0000
  C   C839      1.0  0.75565  0.75068  0.67205  1.0000
  C   C840      1.0  0.74794  0.74521  0.74220  1.0000
  H   H1488     1.0  0.70599  0.67629  0.68993  1.0000
  H   H1489     1.0  0.71507  0.78728  0.72025  1.0000
  H   H1490     1.0  0.75959  0.77832  0.71110  1.0000
  C   C841      1.0  0.60966  0.54640  0.86330  1.0000
  H   H1491     1.0  0.61927  0.76970  0.84315  1.0000
  H   H1492     1.0  0.64936  0.79123  0.69908  1.0000
  H   H1493     1.0  0.80486  0.95648  0.74332  1.0000
  C   C842      1.0  0.67705  0.91294  0.74666  1.0000
  H   H1494     1.0  0.57244  0.56676  0.97568  1.0000
  C   C843      1.0  0.70951  0.75474  0.67316  1.0000
  H   H1495     1.0  0.58999  0.61146  0.99093  1.0000
  H   H1496     1.0  0.69131  0.73996  0.71873  1.0000
  H   H1497     1.0  0.73778  0.73064  0.71063  1.0000
  H   H1498     1.0  0.61806  0.79020  0.82041  1.0000
  C   C844      1.0  0.74126  0.92632  0.77431  1.0000
  C   C845      1.0  0.55852  0.57297  0.98894  1.0000
  H   H1499     1.0  0.68594  0.66201  0.85240  1.0000
  H   H1500     1.0  0.81974  0.91164  0.77573  1.0000
  C   C846      1.0  0.90294  0.99389  0.82470  1.0000
  N   N46       1.0  0.70171  0.77675  0.68722  1.0000
  H   H1501     1.0  0.72252  0.92592  0.78664  1.0000
  H   H1502     1.0  0.93468  0.69163  0.93985  1.0000
  H   H1503     1.0  0.58345  0.61248  0.89160  1.0000
  H   H1504     1.0  0.73552  0.76003  0.75169  1.0000
  H   H1505     1.0  0.74466  0.72559  0.74900  1.0000
  H   H1506     1.0  0.78157  0.74929  0.74332  1.0000
  H   H1507     1.0  0.73523  0.64753  0.86434  1.0000
  H   H1508     1.0  0.69197  0.89483  0.74250  1.0000
  H   H1509     1.0  0.82690  0.90450  0.81000  1.0000
  N   N47       1.0  0.85323  0.75426  0.92097  1.0000
  C   C847      1.0  0.86962  0.77535  0.90866  1.0000
  C   C848      1.0  0.88925  0.73738  0.93145  1.0000
  C   C849      1.0  0.82042  0.73851  0.90601  1.0000
  C   C850      1.0  0.83367  0.76579  0.93779  1.0000
  C   C851      1.0  0.86174  0.78465  0.95361  1.0000
  C   C852      1.0  0.83869  0.79740  0.89961  1.0000
  C   C853      1.0  0.80367  0.71376  0.91540  1.0000
  C   C854      1.0  0.91039  0.72146  0.91645  1.0000
  C   C855      1.0  0.94606  0.70504  0.92889  1.0000
  C   C856      1.0  0.83688  0.79769  0.96799  1.0000
  C   C857      1.0  0.85907  0.81740  0.88752  1.0000
  C   C858      1.0  0.77101  0.69934  0.89879  1.0000
  H   H1510     1.0  0.87982  0.76664  0.89498  1.0000
  H   H1511     1.0  0.89828  0.78465  0.91832  1.0000
  H   H1512     1.0  0.91424  0.74962  0.94136  1.0000
  H   H1513     1.0  0.87953  0.72357  0.94263  1.0000
  H   H1514     1.0  0.83194  0.73243  0.89190  1.0000
  H   H1515     1.0  0.79277  0.75085  0.89973  1.0000
  H   H1516     1.0  0.80415  0.77594  0.93059  1.0000
  H   H1517     1.0  0.82433  0.74999  0.94758  1.0000
  H   H1518     1.0  0.87560  0.80042  0.94564  1.0000
  H   H1519     1.0  0.88741  0.77358  0.96373  1.0000
  H   H1520     1.0  0.81086  0.78929  0.88855  1.0000
  C   C859      1.0  0.62740  0.52617  0.88008  1.0000
  C   C860      1.0  0.53375  0.66821  0.99813  1.0000
  H   H1521     1.0  0.50184  0.71695  0.81158  1.0000
  H   H1522     1.0  0.55560  0.81288  0.82794  1.0000
  H   H1523     1.0  0.75341  0.70816  0.66938  1.0000
  H   H1524     1.0  0.52981  0.73866  0.84939  1.0000
  H   H1525     1.0  0.64496  0.57768  0.99688  1.0000
  C   C861      1.0  0.70367  0.82738  0.68955  1.0000
  H   H1526     1.0  0.53172  0.52291  0.97816  1.0000
  H   H1527     1.0  0.74993  0.80260  0.68112  1.0000
  H   H1528     1.0  0.52113  0.73236  0.79087  1.0000
  C   C862      1.0  0.71541  0.80214  0.67898  1.0000
  H   H1529     1.0  0.71140  0.86947  0.68843  1.0000
  H   H1530     1.0  0.51407  0.60390  0.89896  1.0000
  H   H1531     1.0  0.00012  0.97034  0.77011  1.0000
  H   H1532     1.0  0.50467  0.55586  0.95282  1.0000
  H   H1533     1.0  0.58042  0.80479  0.67793  1.0000
  H   H1534     1.0  0.56928  0.77001  0.67515  1.0000
  N   N48       1.0  0.51306  0.57967  0.98098  1.0000
  C   C863      1.0  0.51088  0.60354  0.96711  1.0000
  H   H1535     1.0  0.98660  0.90285  0.68100  1.0000
  H   H1536     1.0  0.50625  0.75625  0.88021  1.0000
  C   C864      1.0  0.58149  0.78721  0.66800  1.0000
  S   S192      1.0  0.99814  0.90150  0.81710  1.0000
