data_image0
_chemical_formula_structural       FeS2HFeSHSH2FeHSFeS2FeSHFeSFeS3CH2CHCH2SFeSHSFeS2FeS2FeSFeS4HCH2FeHC9H4C4HCH4CH4SH2C2HC6H4C6H9C4H2C6H4C2HCHCH2CHNC6HC4H13CH8CH6CH3CH6CH4FeHCH5FeH6SCH2NCHCH2CHCNH3C2HC2H3CHCH3CH9CHCHC2H2CH3C3NC12H16CH2CH8CH2C2HCH4C2SFeHCHC2HC2HCH2C2H3C2SH2CH4CFeHC2HCH6CH4CNHCNHCHSCSH4NH2C2HCHCH2C2H6CHNHC2H3C4H3C2H7NH5CSCHFeH2C3HCH8CH4C3H4CHCHCHSCNSH4CH3CH4CH4FeH8CH3CHCH3CSHC3HCHC2FeHCH3C2H2FeS2FeS2FeSFeS3FeHSCHFe2S2FeS2FeSFeS3FeS2FeS2FeSFeS3H4CHCH4SFeSCFeH3FeSCSH2CNH2C6H4CH2SHC2SH5FeC6H4C5H2SH2C6H4C6H4C6H4FeHC3H6C2HCH2SNC12H27NC12H30C2H2C5HC2H9CH3SH4FeHSH2CH2CH5CH3C3HC2HC2HC2H2CH2CHCHSH3CH5CHC3H3NC12H28CH9CHCHCH8NC2H2SC2H2CHCHCSNH3CH4CHCHC2H4SCH3C2H2CH3C4N2C4HC3HNHCHSCH18SH2CHFeHCH3C3H2CH2C2SH3CH4C2H2C4SH3C2HNH2CH4CH5CHCH2C3H2CFeSHFeSCFeSFeS3FeS2Fe2S2C3HC2FeS2FeSHFeS2FeSFeS3HS2HSHSH2CSHSC6H4C2H3CH5FeC2H2NHC7H5C7H4C3H7C6H4C6H4C2H2C2H2C3H6CH2FeHSH7CH4C2H3NC9H21NC5FeC4H2SH3CH9C2H5FeH4CH2NC3HC4H4NC12H24CH3CH2CH2C3H3CHC3H2C2H5CH2CH4SH2SCH5CHNH4CHCSHCH2CHCHFeCHCHCH3CH3CHC2H5CH3C3HCH3CH2NH3CH5SH2CH2CHCHC2HSHC2H2C2HCSH4FeNHC4SHCH7SH3C2H3CH2C2H7CH9CH2CFeH4C3FeH2CFeCSHCSCFeS2FeSHFeSFeS3FeS2FeSHFeSFeHS2HSFeH2FeHSHFeSCSC6H5CH5C2HCH4C2H3CH3C6H6C6H7NC9HC2H23CH4CHFeHCH3CH5C2H2CHCH5C2H2CHCH7C2HCH4C2HC2HCHCNHSH2C3H5CH3CH5CH2CHCSCHCHCNCH5SHCH5CHC2H4CH3C5H3C6H2NH2CHC2H5SC3HCH3CH3S2HCNHFeH2SHCSCHCHSNH2CH2CH2NH2CH2CHCHSCHSHCH3SFeS2FeS2FeSFeS3HNSH3C2SFeS2FeS2FeSFeS3H3SNHCH3C2H2C2H4CH3C6H4C6H4C2HCHCH3C6H3C2H4CH2C4H4CHC2SH5CHC2H2CH8C2HCH3CH3CH2CH6CH2C3HCH3CH2CH3FeCH6NCH2CH3NC3HC2HCHC3H13CHFeCH14SHCH6C2HCH3CH9CH5CHCH4CHCH2CHC3H2CH6FeCH2C2HC2HFeH7CSHSHCH2CSH3NC12H21CHCH2C5H2C3HCHCH5NCH2C4SH2CHCH3SHSCH6CHC2H6CH2CHSCHSHFeSFeSH2FeS2FeS2FeSFeS3HCSFeS2FeS2FeSFeS3FeS2FeS2FeSFeS3H7CHCHC2HC2H4CFeC7H4C6H3C5H3NCHC6H4CSC3H3SHCHNC2H4SCH3C6H4C6H4CHCHCNHCHC5HCH4FeH6CH4CHCH3CH2CH2C4H2CHCHCHC2H7CSH4CH3CHCH2CH3C2HNC12H28CHC2H2CH4CH4NC12H33CHFeHC5H8FeH3NC12H28CHCHCH7CH4NH3C3H3C2H2C2FeH2CHC2HSH3CHCHC2SCHC2H3C2H6NHCHSHNH3CH2C2H4CH5SH2CH2SFeS2FeSHFeHFeS3H3FeS2FeS2FeS2FeCFeS3FeS2FeS2FeSFeS3HC3H3C6H4C6H4SC5H4C6H5C6H5C6H9NC6HC4H5CH18NC11H16C2H6NC4HCH3C3H2CH5C2H3CHSNH2CH6C2H3SHCH10CH3NC12H33CH3CH3CHCH4CH2CNC2H5CH2C2H9CHC2H3C2HCHCFeH2SH4SCH2CH2CH5C2H2C2HSHC2HC3H5CH4CH2FeHC4H4CH2NCH2C2HFeSC2HNCH4C2H4CSCHC2H3CH11SCH3SHFeS2FeS2FeSFeS3FeS2FeS2FeSFeS3HC2HC3H4C6H3CH2NH2C7H4FeHC2HC4H4C6H4CHCHC3H5CHC4HCHCH2C2SHCH6CH3SCHNC12H28SH2FeH2CH2CHCHCH2C4HC2HCHCH5CH2C3H2CNC2HCH4CHCH4C2H5CHC2H2CH2NCHNC5HC3H2CH10C2H16CFeH8CH3CH4CHCHCNCH5CH5CHCNHCH2NH2SCH3C2H2CH4CH6CHCHCHCH4FeSH3CH3C2HCFeS2FeS2FeSFeS3C2HFeS2FeS2FeSFeS3H3FeS2CH2CFeSHSFeS2FeCSFeCH2C3FeS2HC6H7CH5C3HCH3C6H4SHC5H5C2HC6H2CHC6H4C6HSH3C2H5CH2CH2C2H4CH3CH6C2HCHCHCH5FeC2SCNC2HC2HNC6H10CH9C3NC12H19NH2NH6CHCH4CH7CHCHCHC2FeHC3HC2H2SNH7NH9CH2CH2FeC3HCH2CH3C2H2CH6CHC2H2C2HCNCHCHCHCHCH2CHCH7NCH5CH3CH3CSCHC2H5FeCH5CHSHCH4CH3CHCH2SH5SHSH2SH4CH2FeHCSHCHCH5CSC3H3FeSHFeS2FeSFeSFeS2H2FeSCSC2HCHC2HC2H2CH2CHSC2H3CH4C6H4CH4CH2SCH3CH3SCH3C2H2CH3FeH2C2HCH2CH2CH2C2H2CNH2C2H5C2H2CH3C4H3C2H6C2H3C2H3C2H2CHCNC7H3C2H16C2HCH6CH3CHCHCH2CH3CFeSHC2H5CHCH3C2H2CHC2H6C2HNCS2H3NH2CHC2HCH3CH3CH4CHFeSHCH2CHSH2SHCH6C2SHC3HC3H2CHCHSH6C2HC2H3SHFeS2FeS2FeSFeS3H2SHCH3SH2SH2SCHFeS3C6H6C2H4CHC2H5CHCSH2CH2C6H4C2HCH5CHC3H2CH3CH2CHCHSNH2C3H6C2HC2H5CHFeHCFeH4CHCH4SFeHCHSHCHCH2CH2C2H7CNCH3C3H3C2SC2H2CHC2H2C2H4C3H4CH3CH4CH5NH3C2H2CH3NCSCH3C2H2CHCH6CHFeH2FeCH2CH5CHCHC2HCHC2H2CH3CHNHSHC2HCHCNCNH3CH4CH4CH4CSH2CHCHFeS2FeS2FeSFeS4HFeSHSFeS2FeS2FeSFeS3CHCFeHFeSHSFeS2FeS2FeSFeS3CSH3CHCHC3H7CNC7H5CSC6H4CHCH2C6H5CH7C6H4C6H4C6H6C4H4C2HC2H7C2H7NC12H33C2H2CH7NH3C6H2CH4C2HC4H2NHCFeH2CH4SH4CH3NHCH7C2HNC8HC2H3CH14SH7CH2CH3SH7CFeHC2H2CHSH5CHC3H2CH2CHCHCHSCFeHNC12H21CSHCH4CH4SHCHCH2CH2CHCNC2HCH3C3H2FeCSHCHCH2CH3CH12CSCH2CH4CHCH3C2HCH3CH3CHC2H5C2HCH4CFeH4CHC2H4C2H2CH3CHC2H6FeS2FeS2FeSFeS3CHS2C2HSCFeSHFeS2FeSFeS3FeS2C2HFeS2FeS2FeSFeS3C3H4C2SH2C6H5CHC6H5C6H4CHC4H4C6H4CSHC2H4CFeH2C2HC3NHCH9CHCHCH2CHC2HSCH4CHC3H3CHFeH8CH2C2H7CHCH2NH2C2HCHCHCHNC8HCNC2H14C2H5NH6SH7SHCH2C2H2CH2C2H3CHCH8C2H2C2FeCH2CHCH4CHCH5CHCH3CHCNC12H22C2H5CH2CH3NHCH2C2HCH3CH6CH5C2FeNHCH2C2HCH12NHCSCH4CHCH2SH2FeH3C2H7C2SCH2CH2CH2CH2C2HCS2HCHSH4CHFeS2FeS2FeSFeS3FeS2FeS3FeSHS2H5C6H3C7H4FeHC3H4C6H5CHC6H2FeC7H5NCH3FeCH3CH3C2HCHCHCH2C4HCH2C2HCH2C2HCHCHCHC2H5SH3FeHCHCH3FeCH9CH2CH6CHNC11H30CHCH5C2H4CH3CH2CHC2HCHCH3C2H4C3H4SHNC10HCH22CHCH5C4SH4CHNHCH4FeH4CH3NH5SCNC2HC2H15CH3CSH5C2H4C2HSHCFeS2C2HFeS2FeSFeS2FeSFeCS2HCHCH2FeHSHS2H3FeCH3C2HCH2C3H3C6H8CH5C5HCH4CHC2HC3SH2C3HNSHFeH5CHC3H7CHC4H2CH3CH4C3H6FeH3CHC2H4CHCH2C2HCHSH2NCH3CH5NH8C3H5CH2C3HCHCHCHC3H4CNCHSH4CSHCHCH2CH2CH12SCHC2SC2HNCH5C3H9CHC2H2SHCH2CHCH3CH2SNCH2C2H3CH3CH5CH3CH3FeCFeS2HC2FeS2FeS2FeSFeS3FeS2FeNC2HSH2C2S2FeS2FeS2FeSFeS3FeS2FeS2FeSFeS3CH2C2HCH2CH3CHCHCHC7H4C6H4C6H4C6H4C6H4C3H4C2H4C6H3C2HC3HCH2CNHNC10HCH24SH3NC12H25SFeH2NC6HC4H9FeCH3CHSCH3CH4CHCH6CH8CH4CH3CH4C4H2CH2CHSH3CHFeCHC2H2CH3CH5CH8CH2CH5CH3FeCHFeH4CHCHCH4CHC2NC9H17CHNC12H28CH2CH3C3H4NH2SH2SH3CH3C2H3NCSH3CH6CH3CH2CH4CH2CH2CH2CH4SCH6CH2CHS2FeS2FeS2FeSFeS3H3SC2HSH2FeS2FeS2FeS2FeSFeS3CH2CFeCHCSCHCH4CHCH2C2HC2HC6H4C6H4C6H4CH3C3H3C3HC2H3CH2CH5CH4C2HCH2CH2C2H6CH2CH2FeCH2CHC2HCSHCH4C2SH7NHC2HCHNC3H5CH3C2H2C2H6CHCHNCH3NC12H23FeH9C2SCH2CH2NCHCHCH7CHCH2CHCHNH2CH2CHC2HCHCH2CHC2H5C2H3CH3CSCH4C2HC2H6CHCH3CHCH2NH3C2H3C3H2CH2CH4CHCHCH2CH4C2HCSCHCHCH3NHSH4C3H2CHSH5SH3CNH5FeHSFeHSFeSCSHCSHFeS2FeS2FeSFeS3FeS2FeS2FeSFeS3H6S2H3C2HNCH2CHCHC2HC6H4CHCH4C6H5C9H4C6H4C6H4C3HCHCH7CH7CH2CH3CH2NC10H25CH7CH3C2H4SH2C4H6CH5C6HNC2H3CNHCH5C2SHCH3SH2CH10CH3C2H4CH2NC12H23CH8SCNHC3H2CFeC3S2CH2CH3CHCH8C2H4C3HC2HCHC2HCHC2H9CH5CH2CH2CNH3C2HCH3FeHCHC3H8CH2FeCH4C2HNH5FeSHCH2CHCHCH3CH4FeS2FeS2FeSFeS3FeCH2S2FeS2FeS2FeSFeS3FeS2FeS2FeSFeS3HCH4SHCH3C6H4CHCH2C2HCHCHCHC6H4C2H2C2HC8H4C6H5CH3CHCH2C6H4C6H4C2H8CH4CHCH4C2H7NC8HC3H16CH11NC11H14CH5FeHNH6NHC3H2C2HSHCFeHCH6CH13C2H4CH2CH3CHCSCHSCH5NC2H3CHCHCH3C2HCHNH3CNHCHC2SC4H2CH4CH16CFeC3HNC11H28SH2C2H3CH3C2H5CHC3HC2H4SCH2C2HCHCH2CHC2H3CHFeH3FeS2FeS2FeSFeS3HC2H3SHCH2SFeSHFeS2FeS2FeSFeHS3HCSHC2SH2SC4H4NH4C3H5C6H6CHCH2C6H4C6H4C6H5C5H4CH11C2H3CH2C4H5C4H2SCNC2HC3HC2FeCH6CHCH14CH2CH6CHCHCHCHCH6CH2CH2CH4C3HC3HC2H5C4NH12CH2SH9CH4CHC2H2CNCH2CH2CH3CHC2H2CNSH4CH3CH4SC2H3C2H2CH2C2H5CH4CH2CHCHCHSH3SHCH2CHCH3NSH4CHSC4HC2H5C2HCHC2HFeCHCH2FeHFeH2C3H2FeS2FeS2FeSFeS3FeS2HFeS2FeS2FeSFeS3HSCFeS2FeSFeS3H2CHCH7C6HCH3C2H2C6H4C6H4C4FeCH4C6H5C4H13C2H3CH3CH4SC2HC2HC4NFeHCH2CH6CH12NH5CHC3HCH6C3H5NC12H18CH9NC5H9S2H3CHC2H8SHCH3CFeHNHSH2CHCH2CSH2C3H3CH7CH2C2HCH7CH3C2H2C2H3CH4C2HCHCH3CH4CHC4HNC2HC3H2CH3CH4C3H3CH5CHCH3FeH4CH3C2HC2H4CHCHCH9C2SCHCHNH2FeCNHCFeS2FeS2FeSFeS3HFeS2FeSFeSCSH2CH3CSCFeS2FeSCFeSFeS3FeS2CHC2HC2H2CH2C3H2CH4C4NC2H2CSCHC4H4C6H2C2HC6HCH2C7H3C6H6C2H4NHCH2SH3C2H2FeC2H5C2H9SCH8CH3C2HNCHCHC2H3FeCH4CH4S2H2CHCHC2NH8FeNC11H19NH4CH4FeH6FeHCHCHCH3C3H5CH4CHCHC2H2CHC2HNC2H3C3HC2SH3CHNFeH5C2HCHC2H9C4HCH8CH2CH8CH4CH3CH4CHSHCHSCSH7CHSHCH2CHCHCH2CNHCH3C4H2CH2CHC2H6CH5SH5SC4H3C2H3CH2CH2SCH2CHC2H4C2H2C2H3C2H4FeS2FeS2FeSFeS3FeS2CSH2FeHFeS2FeSHSHFeS2FeHSFeSCNS2FeS2FeS2FeSFeS3FeSCFeS2FeHSHFeSCS2H2CSC3HC6H4C6H5CHC6H6NH2C4H4C4H5C6H4C6H4C6H4CH2C5H6C3H2CH5CH2C2H2NCH3C2HCH5CHSH3C2H4CHCH2CH5CH3FeH3CH3CHSH3C2H2CHN2C9H2CH10CH8CHFeH4SHNC11H25NC11H25C4NC7H15CFeH3CHC3H10NHCH2C3HCH6CH4CH2CH7CH2CH2CH5NH2C3HCH3CH3CH4CH4CHCHCH4C3H4NH3C2H3CH4CHC2HCSH3C2SH4SC2HCHCH5CH2CH5C2HSH6CH2CHCHC2NCHC3HCHCFeH2CHCHSH3SCSHSFeS2FeS2FeSFeS3CHSH3FeS2H5SHSHSH2CH2CHC6H7FeHSC6H2FeC7H5CFeSCH6C2HCHC6HC4H3FeH2CHSH8CHCH3SCHC2H7CSH2C2H4CH3CHC2H2CH6CHCH4CH3CH2C2HCH7CHNH3CH2SHNC3HC3FeH2CSH2NCHCFeCHCH9CH3CH2NH2C2HCNH2C2FeCH2SCH3C2HCHCH6CHC2H3C3NH8CHFeCFe2H7C2H4C2HC4H3CH5CH6CHC2H2C2H2CHNH3CH7CH5CH3CHCH2C2H2CH5C2H3CH2CH2NCH2CH6CHCH3C2HC3S
_chemical_formula_sum              "Fe384 S768 H6144 C3456 N192"
_cell_length_a       85.6447
_cell_length_b       85.9181
_cell_length_c       86.149
_cell_angle_alpha    74.3287
_cell_angle_beta     74.2977
_cell_angle_gamma    74.336

_space_group_name_H-M_alt    "P 1"
_space_group_IT_number       1

loop_
  _space_group_symop_operation_xyz
  'x, y, z'

loop_
  _atom_site_type_symbol
  _atom_site_label
  _atom_site_symmetry_multiplicity
  _atom_site_fract_x
  _atom_site_fract_y
  _atom_site_fract_z
  _atom_site_occupancy
  Fe  Fe1       1.0  0.39308  0.28219  0.09312  1.0000
  S   S1        1.0  0.39566  0.27923  0.06746  1.0000
  S   S2        1.0  0.38212  0.26426  0.11473  1.0000
  H   H1        1.0  0.43205  0.05289  0.16506  1.0000
  Fe  Fe2       1.0  0.42081  0.28489  0.06298  1.0000
  S   S3        1.0  0.44176  0.27079  0.04643  1.0000
  H   H2        1.0  0.48128  0.29168  0.06494  1.0000
  S   S4        1.0  0.41917  0.28541  0.08929  1.0000
  H   H3        1.0  0.28551  0.29201  0.08899  1.0000
  H   H4        1.0  0.35290  0.27983  0.01348  1.0000
  Fe  Fe3       1.0  0.47868  0.28514  0.17450  1.0000
  H   H5        1.0  0.02238  0.14188  0.18783  1.0000
  S   S5        1.0  0.47538  0.29601  0.14858  1.0000
  Fe  Fe4       1.0  0.43572  0.18578  0.13817  1.0000
  S   S6        1.0  0.41643  0.18761  0.16153  1.0000
  S   S7        1.0  0.43120  0.19542  0.11251  1.0000
  Fe  Fe5       1.0  0.46330  0.16832  0.15610  1.0000
  S   S8        1.0  0.44648  0.16853  0.18107  1.0000
  H   H6        1.0  0.31063  0.18327  0.18909  1.0000
  Fe  Fe6       1.0  0.42886  0.16131  0.17036  1.0000
  S   S9        1.0  0.41499  0.14106  0.18465  1.0000
  Fe  Fe7       1.0  0.43571  0.19487  0.16988  1.0000
  S   S10       1.0  0.42814  0.21605  0.18327  1.0000
  S   S11       1.0  0.44670  0.15897  0.14636  1.0000
  S   S12       1.0  0.45394  0.19511  0.14580  1.0000
  C   C1        1.0  0.48616  0.26033  0.05966  1.0000
  H   H7        1.0  0.46780  0.25968  0.12806  1.0000
  H   H8        1.0  0.06637  0.27712  0.02810  1.0000
  C   C2        1.0  0.28665  0.99806  0.09039  1.0000
  H   H9        1.0  0.47113  0.20753  0.11466  1.0000
  C   C3        1.0  0.39775  0.00351  0.15040  1.0000
  H   H10       1.0  0.26629  0.05643  0.05778  1.0000
  H   H11       1.0  0.48952  0.17073  0.09351  1.0000
  S   S13       1.0  0.23931  0.29179  0.01816  1.0000
  Fe  Fe8       1.0  0.29699  0.29780  0.02096  1.0000
  S   S14       1.0  0.31564  0.28332  0.03691  1.0000
  H   H12       1.0  0.23597  0.01880  0.13268  1.0000
  S   S15       1.0  0.36860  0.31880  0.04441  1.0000
  Fe  Fe9       1.0  0.38154  0.07638  0.16279  1.0000
  S   S16       1.0  0.35670  0.07625  0.15867  1.0000
  S   S17       1.0  0.39636  0.09590  0.14777  1.0000
  Fe  Fe10      1.0  0.37983  0.04726  0.19213  1.0000
  S   S18       1.0  0.35447  0.04513  0.19152  1.0000
  S   S19       1.0  0.39613  0.03340  0.21014  1.0000
  Fe  Fe11      1.0  0.36423  0.04855  0.16408  1.0000
  S   S20       1.0  0.36057  0.03106  0.15040  1.0000
  Fe  Fe12      1.0  0.34860  0.07294  0.18615  1.0000
  S   S21       1.0  0.32639  0.09134  0.19557  1.0000
  S   S22       1.0  0.39025  0.04885  0.16511  1.0000
  S   S23       1.0  0.37274  0.07470  0.18990  1.0000
  S   S24       1.0  0.29177  0.02101  0.14429  1.0000
  H   H13       1.0  0.41633  0.28650  0.12726  1.0000
  C   C4        1.0  0.46389  0.12300  0.18087  1.0000
  H   H14       1.0  0.45310  0.20452  0.21062  1.0000
  H   H15       1.0  0.45747  0.21740  0.09142  1.0000
  Fe  Fe13      1.0  0.38605  0.30654  0.06192  1.0000
  H   H16       1.0  0.07249  0.30579  0.01108  1.0000
  C   C5        1.0  0.47842  0.21193  0.10229  1.0000
  C   C6        1.0  0.21208  0.29428  0.06295  1.0000
  C   C7        1.0  0.09346  0.27658  0.00224  1.0000
  C   C8        1.0  0.34090  0.02819  0.15029  1.0000
  C   C9        1.0  0.32699  0.04126  0.15023  1.0000
  C   C10       1.0  0.31194  0.03889  0.14850  1.0000
  C   C11       1.0  0.31051  0.02331  0.14747  1.0000
  C   C12       1.0  0.32424  0.01011  0.14809  1.0000
  C   C13       1.0  0.33946  0.01267  0.14907  1.0000
  H   H17       1.0  0.32802  0.05333  0.15090  1.0000
  H   H18       1.0  0.30142  0.04919  0.14786  1.0000
  H   H19       1.0  0.35018  0.00257  0.14876  1.0000
  H   H20       1.0  0.47483  0.17493  0.19582  1.0000
  C   C14       1.0  0.31126  0.08305  0.21133  1.0000
  C   C15       1.0  0.31418  0.06639  0.21947  1.0000
  C   C16       1.0  0.42995  0.28088  0.15950  1.0000
  C   C17       1.0  0.45309  0.12281  0.12545  1.0000
  H   H21       1.0  0.38883  0.00603  0.14228  1.0000
  C   C18       1.0  0.29585  0.09343  0.21557  1.0000
  H   H22       1.0  0.32612  0.05840  0.21624  1.0000
  H   H23       1.0  0.45434  0.22766  0.03343  1.0000
  H   H24       1.0  0.47236  0.13039  0.17150  1.0000
  H   H25       1.0  0.29357  0.10629  0.20927  1.0000
  C   C19       1.0  0.43001  0.22845  0.04879  1.0000
  H   H26       1.0  0.42457  0.22826  0.03854  1.0000
  H   H27       1.0  0.42073  0.07140  0.17221  1.0000
  H   H28       1.0  0.40115  0.24769  0.00561  1.0000
  H   H29       1.0  0.09478  0.29004  0.02026  1.0000
  S   S25       1.0  0.28972  0.28890  0.00205  1.0000
  H   H30       1.0  0.46828  0.11921  0.19261  1.0000
  H   H31       1.0  0.42486  0.01062  0.21888  1.0000
  C   C20       1.0  0.31025  0.01658  0.09340  1.0000
  C   C21       1.0  0.37782  0.27429  0.99758  1.0000
  H   H32       1.0  0.49374  0.21815  0.13091  1.0000
  C   C22       1.0  0.41012  0.12869  0.17405  1.0000
  C   C23       1.0  0.41171  0.13281  0.15690  1.0000
  C   C24       1.0  0.40728  0.12278  0.14899  1.0000
  C   C25       1.0  0.40155  0.10842  0.15810  1.0000
  C   C26       1.0  0.40018  0.10429  0.17519  1.0000
  C   C27       1.0  0.40429  0.11444  0.18313  1.0000
  H   H33       1.0  0.41605  0.14388  0.14978  1.0000
  H   H34       1.0  0.40830  0.12615  0.13577  1.0000
  H   H35       1.0  0.39625  0.09313  0.18235  1.0000
  H   H36       1.0  0.40310  0.11113  0.19638  1.0000
  C   C28       1.0  0.46201  0.24946  0.18334  1.0000
  C   C29       1.0  0.46554  0.24140  0.17022  1.0000
  C   C30       1.0  0.45531  0.23107  0.16995  1.0000
  C   C31       1.0  0.44134  0.22900  0.18266  1.0000
  C   C32       1.0  0.43750  0.23761  0.19537  1.0000
  C   C33       1.0  0.44790  0.24753  0.19585  1.0000
  H   H37       1.0  0.45730  0.06408  0.15408  1.0000
  H   H38       1.0  0.45823  0.22468  0.15995  1.0000
  H   H39       1.0  0.42671  0.23615  0.20523  1.0000
  H   H40       1.0  0.44527  0.25334  0.20623  1.0000
  H   H41       1.0  0.21131  0.28270  0.06010  1.0000
  H   H42       1.0  0.48682  0.21232  0.16232  1.0000
  H   H43       1.0  0.05365  0.30286  0.03865  1.0000
  H   H44       1.0  0.33027  0.02389  0.18775  1.0000
  H   H45       1.0  0.48866  0.27687  0.12030  1.0000
  C   C34       1.0  0.33006  0.29342  0.03929  1.0000
  C   C35       1.0  0.33813  0.28696  0.05258  1.0000
  C   C36       1.0  0.34988  0.29469  0.05446  1.0000
  C   C37       1.0  0.40128  0.01169  0.21382  1.0000
  H   H46       1.0  0.33524  0.27599  0.06149  1.0000
  H   H47       1.0  0.35585  0.28983  0.06487  1.0000
  C   C38       1.0  0.39443  0.24462  0.11332  1.0000
  C   C39       1.0  0.39183  0.23099  0.12617  1.0000
  C   C40       1.0  0.40281  0.21564  0.12569  1.0000
  C   C41       1.0  0.41622  0.21388  0.11229  1.0000
  C   C42       1.0  0.41827  0.22731  0.09909  1.0000
  C   C43       1.0  0.40756  0.24270  0.09972  1.0000
  H   H48       1.0  0.38161  0.23239  0.13664  1.0000
  H   H49       1.0  0.40085  0.20518  0.13565  1.0000
  H   H50       1.0  0.42857  0.22610  0.08874  1.0000
  H   H51       1.0  0.40987  0.25315  0.08989  1.0000
  C   C44       1.0  0.46241  0.27038  0.04647  1.0000
  C   C45       1.0  0.46888  0.26346  0.06075  1.0000
  H   H52       1.0  0.42241  0.02834  0.12029  1.0000
  C   C46       1.0  0.41551  0.27173  0.16377  1.0000
  H   H53       1.0  0.26322  0.02771  0.12614  1.0000
  C   C47       1.0  0.47313  0.27486  0.03139  1.0000
  H   H54       1.0  0.46068  0.25973  0.07241  1.0000
  H   H55       1.0  0.33345  0.02150  0.09462  1.0000
  C   C48       1.0  0.47065  0.18845  0.19499  1.0000
  H   H56       1.0  0.46827  0.28005  0.02029  1.0000
  N   N1        1.0  0.27206  0.04361  0.19995  1.0000
  C   C49       1.0  0.27369  0.05977  0.18783  1.0000
  C   C50       1.0  0.26771  0.03254  0.19156  1.0000
  C   C51       1.0  0.25876  0.04724  0.21486  1.0000
  C   C52       1.0  0.28808  0.03493  0.20548  1.0000
  C   C53       1.0  0.30358  0.03199  0.19142  1.0000
  C   C54       1.0  0.28109  0.07164  0.19313  1.0000
  H   H57       1.0  0.26276  0.05448  0.22147  1.0000
  C   C55       1.0  0.25032  0.03828  0.18723  1.0000
  C   C56       1.0  0.24767  0.02650  0.17818  1.0000
  C   C57       1.0  0.31943  0.02597  0.19806  1.0000
  C   C58       1.0  0.28306  0.08704  0.17948  1.0000
  H   H58       1.0  0.19579  0.31672  0.06999  1.0000
  H   H59       1.0  0.26133  0.06688  0.18543  1.0000
  H   H60       1.0  0.28115  0.05756  0.17554  1.0000
  H   H61       1.0  0.27692  0.03124  0.17979  1.0000
  H   H62       1.0  0.26871  0.01973  0.19916  1.0000
  H   H63       1.0  0.24726  0.05532  0.21111  1.0000
  H   H64       1.0  0.43536  0.30754  0.10875  1.0000
  H   H65       1.0  0.29062  0.04168  0.21359  1.0000
  H   H66       1.0  0.28705  0.02249  0.21338  1.0000
  H   H67       1.0  0.30501  0.04345  0.18200  1.0000
  H   H68       1.0  0.30276  0.02249  0.18528  1.0000
  H   H69       1.0  0.27282  0.07575  0.20428  1.0000
  H   H70       1.0  0.29355  0.06571  0.19583  1.0000
  C   C59       1.0  0.48917  0.09834  0.13621  1.0000
  H   H71       1.0  0.16540  0.27694  0.04139  1.0000
  H   H72       1.0  0.24031  0.03858  0.19850  1.0000
  H   H73       1.0  0.24889  0.05076  0.17905  1.0000
  H   H74       1.0  0.25678  0.02656  0.16623  1.0000
  H   H75       1.0  0.24907  0.01371  0.18580  1.0000
  H   H76       1.0  0.23497  0.03045  0.17567  1.0000
  H   H77       1.0  0.25835  0.04097  0.10732  1.0000
  H   H78       1.0  0.16133  0.31528  0.08178  1.0000
  C   C60       1.0  0.39170  0.28870  0.00893  1.0000
  H   H79       1.0  0.29165  0.08355  0.16814  1.0000
  H   H80       1.0  0.27085  0.09394  0.17660  1.0000
  H   H81       1.0  0.28839  0.09531  0.18357  1.0000
  H   H82       1.0  0.39515  0.31310  0.11880  1.0000
  H   H83       1.0  0.37025  0.27572  0.03230  1.0000
  H   H84       1.0  0.42993  0.28996  0.14765  1.0000
  C   C61       1.0  0.48521  0.19684  0.19298  1.0000
  H   H85       1.0  0.34901  0.99699  0.20081  1.0000
  H   H86       1.0  0.41535  0.30830  0.00070  1.0000
  H   H87       1.0  0.42156  0.00983  0.14757  1.0000
  C   C62       1.0  0.26383  0.01412  0.10772  1.0000
  H   H88       1.0  0.02755  0.12184  0.20125  1.0000
  H   H89       1.0  0.44675  0.18602  0.21117  1.0000
  H   H90       1.0  0.36434  0.07744  0.22743  1.0000
  H   H91       1.0  0.28288  0.28648  0.07123  1.0000
  H   H92       1.0  0.45121  0.13086  0.18303  1.0000
  H   H93       1.0  0.45629  0.31783  0.08312  1.0000
  C   C63       1.0  0.38280  0.26262  0.16526  1.0000
  H   H94       1.0  0.12407  0.26206  0.01049  1.0000
  H   H95       1.0  0.41751  0.29995  0.17374  1.0000
  H   H96       1.0  0.46661  0.28422  0.10372  1.0000
  H   H97       1.0  0.47998  0.08163  0.15874  1.0000
  Fe  Fe14      1.0  0.14154  0.30731  0.99160  1.0000
  H   H98       1.0  0.21130  0.28278  0.08897  1.0000
  C   C64       1.0  0.10323  0.28331  0.01082  1.0000
  H   H99       1.0  0.32419  0.02131  0.23193  1.0000
  H   H100      1.0  0.47654  0.24266  0.16065  1.0000
  H   H101      1.0  0.38332  0.26758  0.17568  1.0000
  H   H102      1.0  0.38552  0.24242  0.06581  1.0000
  H   H103      1.0  0.44441  0.11966  0.16148  1.0000
  Fe  Fe15      1.0  0.28585  0.99550  0.15073  1.0000
  H   H104      1.0  0.46455  0.19387  0.18432  1.0000
  H   H105      1.0  0.41222  0.25661  0.01418  1.0000
  H   H106      1.0  0.44861  0.13953  0.10248  1.0000
  H   H107      1.0  0.25159  0.04007  0.08355  1.0000
  H   H108      1.0  0.26315  0.99286  0.08892  1.0000
  H   H109      1.0  0.31518  0.03454  0.10431  1.0000
  S   S26       1.0  0.47696  0.25845  0.18634  1.0000
  C   C65       1.0  0.02546  0.13542  0.20002  1.0000
  H   H110      1.0  0.28796  0.02948  0.10712  1.0000
  H   H111      1.0  0.25010  0.04880  0.05439  1.0000
  N   N2        1.0  0.48705  0.29446  0.08677  1.0000
  C   C66       1.0  0.45755  0.19112  0.21062  1.0000
  H   H112      1.0  0.03712  0.30718  0.02768  1.0000
  C   C67       1.0  0.01154  0.14108  0.21400  1.0000
  H   H113      1.0  0.41849  0.26039  0.17336  1.0000
  H   H114      1.0  0.15449  0.30654  0.06864  1.0000
  C   C68       1.0  0.46370  0.10769  0.17518  1.0000
  H   H115      1.0  0.25409  0.01253  0.10239  1.0000
  C   C69       1.0  0.48003  0.21680  0.07175  1.0000
  N   N3        1.0  0.41225  0.26719  0.14935  1.0000
  H   H116      1.0  0.43416  0.24751  0.15013  1.0000
  H   H117      1.0  0.32840  0.31232  0.01725  1.0000
  H   H118      1.0  0.27586  0.00052  0.06926  1.0000
  C   C70       1.0  0.41408  0.00827  0.13961  1.0000
  C   C71       1.0  0.34591  0.31507  0.02954  1.0000
  H   H119      1.0  0.27514  0.31674  0.06908  1.0000
  C   C72       1.0  0.49438  0.19958  0.16304  1.0000
  C   C73       1.0  0.37789  0.25046  0.05690  1.0000
  H   H120      1.0  0.26551  0.00296  0.11781  1.0000
  H   H121      1.0  0.36457  0.04809  0.23071  1.0000
  H   H122      1.0  0.29735  0.31698  0.08459  1.0000
  C   C74       1.0  0.47975  0.27996  0.09760  1.0000
  H   H123      1.0  0.46590  0.12470  0.12288  1.0000
  C   C75       1.0  0.39023  0.00246  0.21348  1.0000
  H   H124      1.0  0.03949  0.28914  0.04412  1.0000
  H   H125      1.0  0.46272  0.18476  0.22177  1.0000
  H   H126      1.0  0.48065  0.24691  0.11360  1.0000
  C   C76       1.0  0.40421  0.28893  0.01885  1.0000
  H   H127      1.0  0.21007  0.31072  0.00546  1.0000
  H   H128      1.0  0.32147  0.01315  0.11429  1.0000
  H   H129      1.0  0.49125  0.25443  0.07051  1.0000
  H   H130      1.0  0.01551  0.13468  0.22576  1.0000
  H   H131      1.0  0.41812  0.30548  0.02132  1.0000
  H   H132      1.0  0.11078  0.29173  0.00171  1.0000
  H   H133      1.0  0.34562  0.01741  0.22096  1.0000
  H   H134      1.0  0.33763  0.29374  0.99152  1.0000
  H   H135      1.0  0.34695  0.99659  0.18063  1.0000
  C   C77       1.0  0.49015  0.16451  0.11932  1.0000
  H   H136      1.0  0.39832  0.28697  0.03216  1.0000
  C   C78       1.0  0.23023  0.28958  0.00290  1.0000
  H   H137      1.0  0.04982  0.28134  0.01719  1.0000
  C   C79       1.0  0.25398  0.03193  0.22793  1.0000
  C   C80       1.0  0.47864  0.30128  0.07230  1.0000
  H   H138      1.0  0.27107  0.09505  0.23042  1.0000
  H   H139      1.0  0.37843  0.00872  0.21021  1.0000
  C   C81       1.0  0.18294  0.29715  0.04729  1.0000
  H   H140      1.0  0.37146  0.26198  0.06139  1.0000
  H   H141      1.0  0.37074  0.25753  0.02611  1.0000
  H   H142      1.0  0.38001  0.29719  0.01357  1.0000
  C   C82       1.0  0.26244  0.04508  0.05772  1.0000
  C   C83       1.0  0.37271  0.24913  0.17243  1.0000
  C   C84       1.0  0.21935  0.28951  0.07836  1.0000
  N   N4        1.0  0.35320  0.14059  0.16833  1.0000
  C   C85       1.0  0.36619  0.14966  0.16796  1.0000
  C   C86       1.0  0.35379  0.12553  0.18232  1.0000
  C   C87       1.0  0.35786  0.13447  0.15245  1.0000
  C   C88       1.0  0.33591  0.15137  0.16974  1.0000
  C   C89       1.0  0.33173  0.16526  0.17953  1.0000
  C   C90       1.0  0.36998  0.16317  0.15221  1.0000
  C   C91       1.0  0.34725  0.12296  0.15124  1.0000
  C   C92       1.0  0.35123  0.12848  0.19986  1.0000
  C   C93       1.0  0.35462  0.11207  0.21216  1.0000
  C   C94       1.0  0.31320  0.17313  0.18243  1.0000
  C   C95       1.0  0.37971  0.17446  0.15479  1.0000
  C   C96       1.0  0.35159  0.11943  0.13394  1.0000
  H   H143      1.0  0.37809  0.14071  0.16915  1.0000
  H   H144      1.0  0.36301  0.15544  0.17876  1.0000
  H   H145      1.0  0.34403  0.11883  0.18323  1.0000
  H   H146      1.0  0.36584  0.11661  0.17976  1.0000
  H   H147      1.0  0.37106  0.12767  0.15035  1.0000
  H   H148      1.0  0.35697  0.14505  0.14169  1.0000
  H   H149      1.0  0.33342  0.15778  0.15728  1.0000
  H   H150      1.0  0.32648  0.14355  0.17527  1.0000
  H   H151      1.0  0.33851  0.17521  0.17251  1.0000
  H   H152      1.0  0.33520  0.16067  0.19168  1.0000
  H   H153      1.0  0.37772  0.15725  0.14186  1.0000
  H   H154      1.0  0.35839  0.17091  0.14847  1.0000
  H   H155      1.0  0.33379  0.12855  0.15417  1.0000
  H   H156      1.0  0.34969  0.11087  0.15991  1.0000
  H   H157      1.0  0.35969  0.13594  0.20046  1.0000
  H   H158      1.0  0.33816  0.13463  0.20409  1.0000
  C   C97       1.0  0.44787  0.12660  0.10898  1.0000
  H   H159      1.0  0.35235  0.11438  0.22474  1.0000
  H   H160      1.0  0.05741  0.30679  0.00020  1.0000
  C   C98       1.0  0.43150  0.31853  0.11380  1.0000
  H   H161      1.0  0.30922  0.17841  0.17048  1.0000
  H   H162      1.0  0.30582  0.16381  0.19004  1.0000
  H   H163      1.0  0.38303  0.18338  0.14306  1.0000
  H   H164      1.0  0.37215  0.18155  0.16432  1.0000
  H   H165      1.0  0.39135  0.16709  0.15870  1.0000
  H   H166      1.0  0.34895  0.13104  0.12463  1.0000
  H   H167      1.0  0.36493  0.11337  0.13074  1.0000
  H   H168      1.0  0.34404  0.11093  0.13351  1.0000
  C   C99       1.0  0.47041  0.21016  0.08924  1.0000
  H   H169      1.0  0.45538  0.10071  0.18521  1.0000
  H   H170      1.0  0.42804  0.24152  0.04972  1.0000
  C   C100      1.0  0.23819  0.03052  0.12393  1.0000
  C   C101      1.0  0.39513  0.29764  0.14347  1.0000
  H   H171      1.0  0.29276  0.00793  0.11533  1.0000
  C   C102      1.0  0.47933  0.19536  0.05823  1.0000
  H   H172      1.0  0.44973  0.21288  0.07072  1.0000
  H   H173      1.0  0.38562  0.29457  0.15471  1.0000
  H   H174      1.0  0.47871  0.23023  0.07060  1.0000
  H   H175      1.0  0.40356  0.02384  0.11872  1.0000
  C   C103      1.0  0.40031  0.25565  0.15580  1.0000
  C   C104      1.0  0.48550  0.17101  0.04456  1.0000
  S   S27       1.0  0.41146  0.31220  0.05527  1.0000
  Fe  Fe16      1.0  0.48880  0.31636  0.17773  1.0000
  H   H176      1.0  0.42339  0.22156  0.06048  1.0000
  C   C105      1.0  0.19469  0.30598  0.06573  1.0000
  H   H177      1.0  0.41582  0.27947  0.01690  1.0000
  C   C106      1.0  0.48066  0.25502  0.12167  1.0000
  C   C107      1.0  0.25667  0.02917  0.11615  1.0000
  H   H178      1.0  0.48597  0.19213  0.16214  1.0000
  C   C108      1.0  0.44853  0.22051  0.04537  1.0000
  C   C109      1.0  0.47584  0.08861  0.14714  1.0000
  H   H179      1.0  0.36846  0.24393  0.05655  1.0000
  C   C110      1.0  0.42846  0.25768  0.14093  1.0000
  H   H180      1.0  0.37125  0.24412  0.16241  1.0000
  H   H181      1.0  0.47651  0.10011  0.17368  1.0000
  C   C111      1.0  0.37886  0.26537  0.02688  1.0000
  C   C112      1.0  0.45745  0.11262  0.15884  1.0000
  H   H182      1.0  0.47871  0.22506  0.10098  1.0000
  H   H183      1.0  0.17734  0.28905  0.05871  1.0000
  H   H184      1.0  0.47352  0.16749  0.05140  1.0000
  C   C113      1.0  0.29020  0.29273  0.07553  1.0000
  C   C114      1.0  0.32067  0.02180  0.10221  1.0000
  S   S28       1.0  0.46454  0.30776  0.18466  1.0000
  H   H185      1.0  0.31252  0.31308  0.06654  1.0000
  H   H186      1.0  0.44668  0.30885  0.13216  1.0000
  C   C115      1.0  0.48375  0.22361  0.04184  1.0000
  H   H187      1.0  0.12256  0.27445  0.02493  1.0000
  H   H188      1.0  0.25696  0.02267  0.07419  1.0000
  H   H189      1.0  0.15890  0.30745  0.03971  1.0000
  H   H190      1.0  0.47975  0.21036  0.19098  1.0000
  C   C116      1.0  0.40588  0.28211  0.13687  1.0000
  Fe  Fe17      1.0  0.40776  0.31235  0.08210  1.0000
  H   H191      1.0  0.36018  0.25439  0.17912  1.0000
  C   C117      1.0  0.29218  0.01724  0.10355  1.0000
  C   C118      1.0  0.11527  0.26923  0.01946  1.0000
  H   H192      1.0  0.47009  0.19697  0.09103  1.0000
  C   C119      1.0  0.40921  0.30567  0.01396  1.0000
  H   H193      1.0  0.28025  0.04007  0.08205  1.0000
  H   H194      1.0  0.39581  0.29491  0.99586  1.0000
  H   H195      1.0  0.45620  0.11813  0.10101  1.0000
  H   H196      1.0  0.36050  0.29790  0.00100  1.0000
  H   H197      1.0  0.03716  0.13835  0.20051  1.0000
  H   H198      1.0  0.42890  0.28127  0.18499  1.0000
  C   C120      1.0  0.35388  0.30871  0.04283  1.0000
  H   H199      1.0  0.39861  0.26024  0.04089  1.0000
  H   H200      1.0  0.17665  0.30935  0.02296  1.0000
  H   H201      1.0  0.23374  0.04066  0.13082  1.0000
  H   H202      1.0  0.40427  0.27935  0.17015  1.0000
  C   C121      1.0  0.33405  0.30749  0.02780  1.0000
  N   N5        1.0  0.38842  0.27203  0.00984  1.0000
  H   H203      1.0  0.22104  0.30017  0.05268  1.0000
  C   C122      1.0  0.07107  0.26286  0.99291  1.0000
  N   N6        1.0  0.27994  0.01468  0.09516  1.0000
  H   H204      1.0  0.47627  0.07891  0.14061  1.0000
  C   C123      1.0  0.38906  0.25436  0.03982  1.0000
  H   H205      1.0  0.40586  0.24413  0.16392  1.0000
  S   S29       1.0  0.25877  0.99582  0.15458  1.0000
  C   C124      1.0  0.45140  0.10512  0.13539  1.0000
  S   S30       1.0  0.12799  0.31403  0.01607  1.0000
  H   H206      1.0  0.45321  0.23330  0.06156  1.0000
  H   H207      1.0  0.43782  0.10559  0.13838  1.0000
  H   H208      1.0  0.22065  0.30072  0.08157  1.0000
  H   H209      1.0  0.49125  0.20439  0.10123  1.0000
  N   N7        1.0  0.08031  0.28917  0.99415  1.0000
  H   H210      1.0  0.39818  0.31573  0.01641  1.0000
  H   H211      1.0  0.39245  0.01269  0.15840  1.0000
  C   C125      1.0  0.21494  0.29988  0.00029  1.0000
  C   C126      1.0  0.15720  0.31795  0.06999  1.0000
  H   H212      1.0  0.43512  0.09470  0.16741  1.0000
  C   C127      1.0  0.42890  0.28999  0.17285  1.0000
  H   H213      1.0  0.44204  0.27186  0.15829  1.0000
  C   C128      1.0  0.04632  0.29723  0.03365  1.0000
  H   H214      1.0  0.40312  0.03471  0.13414  1.0000
  H   H215      1.0  0.44340  0.23832  0.10729  1.0000
  C   C129      1.0  0.41054  0.02480  0.12747  1.0000
  C   C130      1.0  0.44769  0.08733  0.16308  1.0000
  H   H216      1.0  0.23093  0.03328  0.11425  1.0000
  H   H217      1.0  0.43771  0.05815  0.18139  1.0000
  H   H218      1.0  0.31645  0.00378  0.09191  1.0000
  H   H219      1.0  0.18306  0.27922  0.02427  1.0000
  H   H220      1.0  0.45304  0.23582  0.12424  1.0000
  H   H221      1.0  0.37891  0.23888  0.18123  1.0000
  C   C131      1.0  0.27824  0.02849  0.08013  1.0000
  H   H222      1.0  0.43978  0.29580  0.16965  1.0000
  N   N8        1.0  0.45837  0.09861  0.15090  1.0000
  H   H223      1.0  0.40311  0.30415  0.14654  1.0000
  C   C132      1.0  0.05777  0.28697  0.02135  1.0000
  C   C133      1.0  0.45645  0.22038  0.05956  1.0000
  H   H224      1.0  0.44025  0.07753  0.14539  1.0000
  H   H225      1.0  0.45288  0.08138  0.17430  1.0000
  H   H226      1.0  0.30337  0.28603  0.07321  1.0000
  C   C134      1.0  0.48883  0.26938  0.11160  1.0000
  C   C135      1.0  0.36004  0.28506  0.00127  1.0000
  C   C136      1.0  0.17060  0.28554  0.03021  1.0000
  C   C137      1.0  0.44456  0.24457  0.11649  1.0000
  H   H227      1.0  0.41941  0.25838  0.11904  1.0000
  H   H228      1.0  0.44985  0.25560  0.10972  1.0000
  H   H229      1.0  0.39807  0.25166  0.14549  1.0000
  C   C138      1.0  0.44532  0.07295  0.15675  1.0000
  C   C139      1.0  0.42746  0.24971  0.12718  1.0000
  H   H230      1.0  0.42235  0.23836  0.13278  1.0000
  H   H231      1.0  0.37597  0.27246  0.15669  1.0000
  H   H232      1.0  0.08355  0.25453  0.99086  1.0000
  H   H233      1.0  0.23185  0.28133  0.07598  1.0000
  H   H234      1.0  0.39864  0.27858  0.12992  1.0000
  H   H235      1.0  0.27148  0.03879  0.04820  1.0000
  H   H236      1.0  0.47949  0.27149  0.08997  1.0000
  N   N9        1.0  0.47495  0.21379  0.05751  1.0000
  H   H237      1.0  0.36775  0.10552  0.20879  1.0000
  H   H238      1.0  0.16232  0.28887  0.02133  1.0000
  H   H239      1.0  0.08822  0.26657  0.01157  1.0000
  H   H240      1.0  0.45321  0.29759  0.08384  1.0000
  H   H241      1.0  0.43750  0.26587  0.13526  1.0000
  C   C140      1.0  0.49018  0.27243  0.03047  1.0000
  S   S31       1.0  0.49077  0.15801  0.15217  1.0000
  C   C141      1.0  0.06715  0.29796  0.00637  1.0000
  H   H242      1.0  0.46912  0.18946  0.06662  1.0000
  Fe  Fe18      1.0  0.26330  0.30084  0.01214  1.0000
  H   H243      1.0  0.10841  0.26081  0.02950  1.0000
  H   H244      1.0  0.44954  0.20768  0.04437  1.0000
  C   C142      1.0  0.43324  0.06330  0.16969  1.0000
  C   C143      1.0  0.45298  0.31446  0.06055  1.0000
  C   C144      1.0  0.40421  0.25965  0.00514  1.0000
  H   H245      1.0  0.28824  0.02538  0.06940  1.0000
  C   C145      1.0  0.27604  0.99254  0.08173  1.0000
  H   H246      1.0  0.43486  0.12529  0.11100  1.0000
  H   H247      1.0  0.19481  0.28914  0.04219  1.0000
  H   H248      1.0  0.06586  0.26069  0.00634  1.0000
  H   H249      1.0  0.47859  0.23710  0.04112  1.0000
  H   H250      1.0  0.46451  0.12179  0.15034  1.0000
  H   H251      1.0  0.31052  0.02488  0.08103  1.0000
  H   H252      1.0  0.47441  0.19585  0.03404  1.0000
  H   H253      1.0  0.37149  0.00750  0.17833  1.0000
  C   C146      1.0  0.28317  0.08711  0.22755  1.0000
  H   H254      1.0  0.48140  0.22117  0.03077  1.0000
  H   H255      1.0  0.45679  0.09645  0.12681  1.0000
  H   H256      1.0  0.32100  0.03548  0.20371  1.0000
  H   H257      1.0  0.18682  0.29912  0.07644  1.0000
  C   C147      1.0  0.48400  0.30696  0.09724  1.0000
  C   C148      1.0  0.38617  0.30984  0.13050  1.0000
  C   C149      1.0  0.48379  0.18969  0.04163  1.0000
  H   H258      1.0  0.39538  0.24234  0.03625  1.0000
  H   H259      1.0  0.43881  0.25100  0.99461  1.0000
  H   H260      1.0  0.49310  0.19700  0.13207  1.0000
  H   H261      1.0  0.47767  0.16242  0.12329  1.0000
  C   C150      1.0  0.17172  0.30122  0.03463  1.0000
  H   H262      1.0  0.44477  0.13205  0.13253  1.0000
  C   C151      1.0  0.41633  0.00354  0.21847  1.0000
  H   H263      1.0  0.24987  0.02381  0.22252  1.0000
  C   C152      1.0  0.26133  0.03346  0.07472  1.0000
  H   H264      1.0  0.34630  0.10403  0.21237  1.0000
  S   S32       1.0  0.38139  0.30921  0.08810  1.0000
  C   C153      1.0  0.29957  0.31959  0.07086  1.0000
  N   N10       1.0  0.18640  0.31186  0.05119  1.0000
  S   S33       1.0  0.27041  0.30688  0.03281  1.0000
  H   H265      1.0  0.42147  0.99898  0.13224  1.0000
  H   H266      1.0  0.06024  0.28866  0.98349  1.0000
  H   H267      1.0  0.29887  0.99778  0.08166  1.0000
  H   H268      1.0  0.43944  0.31944  0.06368  1.0000
  C   C154      1.0  0.37231  0.99403  0.18288  1.0000
  H   H269      1.0  0.32333  0.99809  0.14716  1.0000
  H   H270      1.0  0.20811  0.31045  0.03151  1.0000
  H   H271      1.0  0.49084  0.30177  0.10742  1.0000
  C   C155      1.0  0.28846  0.31075  0.06617  1.0000
  H   H272      1.0  0.31909  0.01423  0.20739  1.0000
  H   H273      1.0  0.49025  0.18931  0.06398  1.0000
  H   H274      1.0  0.48912  0.19375  0.20495  1.0000
  H   H275      1.0  0.37693  0.30438  0.12804  1.0000
  C   C156      1.0  0.45961  0.30767  0.07639  1.0000
  H   H276      1.0  0.40617  0.99478  0.17866  1.0000
  H   H277      1.0  0.48785  0.24756  0.13114  1.0000
  H   H278      1.0  0.45522  0.30452  0.05371  1.0000
  H   H279      1.0  0.47067  0.30968  0.10352  1.0000
  Fe  Fe19      1.0  0.46276  0.31901  0.15812  1.0000
  H   H280      1.0  0.27000  0.99070  0.20902  1.0000
  H   H281      1.0  0.24822  0.26775  0.99751  1.0000
  H   H282      1.0  0.48954  0.10866  0.14145  1.0000
  H   H283      1.0  0.10270  0.27017  0.99289  1.0000
  H   H284      1.0  0.48379  0.31172  0.06366  1.0000
  H   H285      1.0  0.29219  0.31076  0.05280  1.0000
  H   H286      1.0  0.48675  0.10326  0.12360  1.0000
  H   H287      1.0  0.37654  0.26202  0.99664  1.0000
  C   C157      1.0  0.23663  0.27600  0.99534  1.0000
  H   H288      1.0  0.04707  0.26490  0.98745  1.0000
  H   H289      1.0  0.05993  0.24434  0.98969  1.0000
  H   H290      1.0  0.09303  0.30947  0.98757  1.0000
  C   C158      1.0  0.20581  0.29630  0.99086  1.0000
  H   H291      1.0  0.31219  0.98829  0.21073  1.0000
  C   C159      1.0  0.19747  0.31991  0.03610  1.0000
  H   H292      1.0  0.49339  0.21119  0.07152  1.0000
  H   H293      1.0  0.48910  0.16718  0.03254  1.0000
  H   H294      1.0  0.01033  0.15457  0.21250  1.0000
  C   C160      1.0  0.43787  0.31925  0.12707  1.0000
  S   S34       1.0  0.15222  0.28090  0.98931  1.0000
  H   H295      1.0  0.19398  0.30422  0.98918  1.0000
  C   C161      1.0  0.06001  0.25769  0.98479  1.0000
  C   C162      1.0  0.07267  0.28108  0.98529  1.0000
  C   C163      1.0  0.22765  0.27259  0.98561  1.0000
  H   H296      1.0  0.42907  0.23969  0.98630  1.0000
  C   C164      1.0  0.35469  0.99114  0.19001  1.0000
  H   H297      1.0  0.34896  0.27347  0.98851  1.0000
  C   C165      1.0  0.35028  0.28599  0.98847  1.0000
  C   C166      1.0  0.41529  0.26481  0.98792  1.0000
  Fe  Fe20      1.0  0.29096  0.31446  0.98684  1.0000
  H   H298      1.0  0.41852  0.27684  0.98657  1.0000
  C   C167      1.0  0.30152  0.06011  0.23177  1.0000
  H   H299      1.0  0.43342  0.99035  0.18450  1.0000
  H   H300      1.0  0.37882  0.98985  0.19313  1.0000
  H   H301      1.0  0.99706  0.12414  0.21293  1.0000
  C   C168      1.0  0.21204  0.28251  0.98363  1.0000
  C   C169      1.0  0.43155  0.25201  0.98533  1.0000
  H   H302      1.0  0.38378  0.28022  0.98500  1.0000
  H   H303      1.0  0.37959  0.32136  0.13497  1.0000
  Fe  Fe21      1.0  0.29449  0.06552  0.37901  1.0000
  S   S35       1.0  0.30833  0.08576  0.37377  1.0000
  S   S36       1.0  0.30366  0.04677  0.36269  1.0000
  Fe  Fe22      1.0  0.27018  0.07792  0.40810  1.0000
  S   S37       1.0  0.28138  0.09960  0.40496  1.0000
  S   S38       1.0  0.24695  0.07522  0.42734  1.0000
  Fe  Fe23      1.0  0.28320  0.10224  0.37807  1.0000
  S   S39       1.0  0.27811  0.12688  0.36115  1.0000
  Fe  Fe24      1.0  0.30548  0.08153  0.40116  1.0000
  S   S40       1.0  0.32638  0.08247  0.41192  1.0000
  S   S41       1.0  0.26943  0.08251  0.38134  1.0000
  S   S42       1.0  0.29428  0.05931  0.40620  1.0000
  Fe  Fe25      1.0  0.31165  0.15187  0.46113  1.0000
  H   H304      1.0  0.38869  0.02341  0.24624  1.0000
  S   S43       1.0  0.32819  0.14413  0.43804  1.0000
  C   C170      1.0  0.21125  0.04950  0.41127  1.0000
  H   H305      1.0  0.00323  0.20774  0.39089  1.0000
  Fe  Fe26      1.0  0.26753  0.00364  0.27477  1.0000
  Fe  Fe27      1.0  0.18111  0.12651  0.43574  1.0000
  S   S44       1.0  0.16383  0.14485  0.45023  1.0000
  S   S45       1.0  0.18580  0.09894  0.44507  1.0000
  Fe  Fe28      1.0  0.18930  0.15285  0.40550  1.0000
  S   S46       1.0  0.17242  0.17317  0.41751  1.0000
  S   S47       1.0  0.20226  0.16053  0.37919  1.0000
  Fe  Fe29      1.0  0.18374  0.15971  0.43943  1.0000
  S   S48       1.0  0.18988  0.17523  0.45356  1.0000
  Fe  Fe30      1.0  0.15437  0.15637  0.42686  1.0000
  S   S49       1.0  0.12690  0.16644  0.42715  1.0000
  S   S50       1.0  0.20178  0.14044  0.42678  1.0000
  S   S51       1.0  0.17047  0.13703  0.41307  1.0000
  Fe  Fe31      1.0  0.06162  0.14322  0.39420  1.0000
  S   S52       1.0  0.05921  0.14107  0.36959  1.0000
  S   S53       1.0  0.08630  0.13040  0.40141  1.0000
  Fe  Fe32      1.0  0.02683  0.16495  0.40039  1.0000
  S   S54       1.0  0.02181  0.16509  0.37610  1.0000
  S   S55       1.0  0.00899  0.17802  0.41973  1.0000
  Fe  Fe33      1.0  0.03330  0.13804  0.38170  1.0000
  S   S56       1.0  0.02327  0.11838  0.37713  1.0000
  Fe  Fe34      1.0  0.04815  0.16811  0.36613  1.0000
  S   S57       1.0  0.05624  0.18387  0.34145  1.0000
  S   S58       1.0  0.03655  0.13747  0.40692  1.0000
  S   S59       1.0  0.05224  0.17066  0.38983  1.0000
  H   H306      1.0  0.00135  0.09432  0.26593  1.0000
  H   H307      1.0  0.18392  0.06930  0.42918  1.0000
  H   H308      1.0  0.20789  0.08314  0.40288  1.0000
  H   H309      1.0  0.40898  0.99882  0.27389  1.0000
  C   C171      1.0  0.22196  0.09795  0.38300  1.0000
  H   H310      1.0  0.21574  0.12516  0.45930  1.0000
  C   C172      1.0  0.09777  0.11859  0.45456  1.0000
  H   H311      1.0  0.29411  0.18257  0.42762  1.0000
  H   H312      1.0  0.07001  0.20206  0.26181  1.0000
  H   H313      1.0  0.13353  0.13721  0.48034  1.0000
  H   H314      1.0  0.09600  0.10432  0.43743  1.0000
  S   S60       1.0  0.03833  0.26933  0.29553  1.0000
  Fe  Fe35      1.0  0.27610  0.03736  0.26464  1.0000
  S   S61       1.0  0.25427  0.02799  0.28162  1.0000
  C   C173      1.0  0.23140  0.06703  0.39315  1.0000
  Fe  Fe36      1.0  0.30012  0.00716  0.27802  1.0000
  H   H315      1.0  0.24833  0.10688  0.43698  1.0000
  H   H316      1.0  0.00248  0.25879  0.40719  1.0000
  H   H317      1.0  0.04542  0.21403  0.41999  1.0000
  Fe  Fe37      1.0  0.26930  0.02147  0.30105  1.0000
  S   S62       1.0  0.25760  0.03106  0.32461  1.0000
  C   C174      1.0  0.25925  0.03649  0.39954  1.0000
  S   S63       1.0  0.29047  0.03217  0.28423  1.0000
  H   H318      1.0  0.37961  0.05096  0.24013  1.0000
  H   H319      1.0  0.99672  0.22535  0.30254  1.0000
  C   C175      1.0  0.28119  0.18586  0.42573  1.0000
  N   N11       1.0  0.99804  0.23222  0.39565  1.0000
  H   H320      1.0  0.22048  0.06180  0.36649  1.0000
  H   H321      1.0  0.00152  0.21503  0.34667  1.0000
  C   C176      1.0  0.04999  0.20482  0.34216  1.0000
  C   C177      1.0  0.04467  0.21620  0.32869  1.0000
  C   C178      1.0  0.03849  0.23279  0.32946  1.0000
  C   C179      1.0  0.03832  0.23830  0.34335  1.0000
  C   C180      1.0  0.04427  0.22706  0.35663  1.0000
  C   C181      1.0  0.04963  0.21020  0.35623  1.0000
  H   H322      1.0  0.04476  0.21223  0.31781  1.0000
  H   H323      1.0  0.03370  0.24122  0.31927  1.0000
  H   H324      1.0  0.04419  0.23128  0.36739  1.0000
  H   H325      1.0  0.05337  0.20142  0.36679  1.0000
  C   C182      1.0  0.01932  0.12094  0.35747  1.0000
  H   H326      1.0  0.20915  0.10673  0.46048  1.0000
  H   H327      1.0  0.26458  0.09256  0.46739  1.0000
  S   S64       1.0  0.30180  0.17854  0.46326  1.0000
  H   H328      1.0  0.11035  0.08653  0.46992  1.0000
  C   C183      1.0  0.00928  0.13543  0.35033  1.0000
  C   C184      1.0  0.28596  0.07049  0.23562  1.0000
  S   S65       1.0  0.32673  0.99458  0.27684  1.0000
  H   H329      1.0  0.21550  0.04401  0.43643  1.0000
  H   H330      1.0  0.35917  0.07551  0.24948  1.0000
  H   H331      1.0  0.37207  0.15401  0.34945  1.0000
  H   H332      1.0  0.29049  0.16942  0.37003  1.0000
  H   H333      1.0  0.27100  0.14126  0.42511  1.0000
  Fe  Fe38      1.0  0.02568  0.29589  0.28823  1.0000
  C   C185      1.0  0.11586  0.15698  0.41906  1.0000
  C   C186      1.0  0.12394  0.14406  0.41086  1.0000
  C   C187      1.0  0.11475  0.13629  0.40517  1.0000
  C   C188      1.0  0.09743  0.14138  0.40756  1.0000
  C   C189      1.0  0.08934  0.15452  0.41546  1.0000
  C   C190      1.0  0.09854  0.16226  0.42123  1.0000
  H   H334      1.0  0.13725  0.13993  0.40902  1.0000
  H   H335      1.0  0.12107  0.12614  0.39904  1.0000
  H   H336      1.0  0.07597  0.15842  0.41750  1.0000
  H   H337      1.0  0.09219  0.17225  0.42758  1.0000
  C   C191      1.0  0.12155  0.14432  0.47699  1.0000
  C   C192      1.0  0.99675  0.26251  0.39629  1.0000
  C   C193      1.0  0.20939  0.19259  0.45876  1.0000
  C   C194      1.0  0.20892  0.17726  0.45644  1.0000
  C   C195      1.0  0.40755  0.99555  0.26280  1.0000
  H   H338      1.0  0.13970  0.08311  0.47075  1.0000
  H   H339      1.0  0.01544  0.24742  0.38058  1.0000
  S   S66       1.0  0.01055  0.29758  0.31355  1.0000
  H   H340      1.0  0.22323  0.20685  0.46467  1.0000
  H   H341      1.0  0.01333  0.15370  0.27990  1.0000
  C   C196      1.0  0.29071  0.04291  0.35191  1.0000
  C   C197      1.0  0.27398  0.05089  0.35343  1.0000
  C   C198      1.0  0.26398  0.04727  0.34489  1.0000
  C   C199      1.0  0.27063  0.03568  0.33475  1.0000
  C   C200      1.0  0.28741  0.02791  0.33301  1.0000
  C   C201      1.0  0.29740  0.03151  0.34158  1.0000
  H   H342      1.0  0.26874  0.05976  0.36123  1.0000
  H   H343      1.0  0.25108  0.05353  0.34606  1.0000
  H   H344      1.0  0.29265  0.01894  0.32524  1.0000
  H   H345      1.0  0.31033  0.02528  0.34033  1.0000
  C   C202      1.0  0.25701  0.13602  0.36637  1.0000
  C   C203      1.0  0.24682  0.12903  0.38080  1.0000
  C   C204      1.0  0.22999  0.13662  0.38499  1.0000
  C   C205      1.0  0.22332  0.15104  0.37460  1.0000
  C   C206      1.0  0.23352  0.15795  0.36016  1.0000
  C   C207      1.0  0.25037  0.15052  0.35610  1.0000
  H   H346      1.0  0.25184  0.11777  0.38876  1.0000
  H   H347      1.0  0.22211  0.13108  0.39603  1.0000
  H   H348      1.0  0.22837  0.16910  0.35211  1.0000
  H   H349      1.0  0.25820  0.15594  0.34493  1.0000
  C   C208      1.0  0.32582  0.09955  0.41990  1.0000
  C   C209      1.0  0.31097  0.11015  0.42572  1.0000
  C   C210      1.0  0.31137  0.12340  0.43229  1.0000
  C   C211      1.0  0.32666  0.12641  0.43242  1.0000
  C   C212      1.0  0.34136  0.11585  0.42649  1.0000
  C   C213      1.0  0.34093  0.10234  0.42060  1.0000
  H   H350      1.0  0.29922  0.10802  0.42536  1.0000
  H   H351      1.0  0.29996  0.13161  0.43672  1.0000
  H   H352      1.0  0.35319  0.11816  0.42645  1.0000
  H   H353      1.0  0.35243  0.09419  0.41623  1.0000
  Fe  Fe39      1.0  0.27794  0.16984  0.47592  1.0000
  H   H354      1.0  0.00298  0.23558  0.35951  1.0000
  C   C214      1.0  0.26345  0.05692  0.45203  1.0000
  C   C215      1.0  0.24887  0.06743  0.44795  1.0000
  C   C216      1.0  0.23522  0.07139  0.46051  1.0000
  H   H355      1.0  0.99661  0.14733  0.33033  1.0000
  H   H356      1.0  0.27392  0.05359  0.44236  1.0000
  H   H357      1.0  0.22397  0.07947  0.45729  1.0000
  H   H358      1.0  0.23673  0.13567  0.42545  1.0000
  H   H359      1.0  0.27536  0.04197  0.47192  1.0000
  H   H360      1.0  0.23748  0.07014  0.40143  1.0000
  C   C217      1.0  0.99670  0.10794  0.26380  1.0000
  C   C218      1.0  0.99644  0.18709  0.33507  1.0000
  H   H361      1.0  0.32138  0.04418  0.43933  1.0000
  C   C219      1.0  0.06012  0.20278  0.27315  1.0000
  H   H362      1.0  0.24054  0.06758  0.38115  1.0000
  H   H363      1.0  0.24179  0.04099  0.37757  1.0000
  S   S67       1.0  0.28009  0.99575  0.29639  1.0000
  N   N12       1.0  0.33585  0.12619  0.36075  1.0000
  C   C220      1.0  0.34103  0.10939  0.37139  1.0000
  C   C221      1.0  0.32382  0.13733  0.37159  1.0000
  C   C222      1.0  0.32655  0.12399  0.34912  1.0000
  C   C223      1.0  0.35042  0.13386  0.35073  1.0000
  C   C224      1.0  0.36592  0.12964  0.35846  1.0000
  C   C225      1.0  0.35123  0.09563  0.36184  1.0000
  C   C226      1.0  0.31850  0.14007  0.33810  1.0000
  C   C227      1.0  0.33074  0.14174  0.38429  1.0000
  C   C228      1.0  0.31705  0.15223  0.39496  1.0000
  C   C229      1.0  0.37799  0.14092  0.34885  1.0000
  C   C230      1.0  0.36039  0.08088  0.37283  1.0000
  C   C231      1.0  0.31316  0.13621  0.32424  1.0000
  H   H364      1.0  0.32987  0.10493  0.37954  1.0000
  H   H365      1.0  0.34812  0.11001  0.38016  1.0000
  H   H366      1.0  0.31892  0.14946  0.36401  1.0000
  H   H367      1.0  0.31283  0.13176  0.37834  1.0000
  H   H368      1.0  0.31640  0.11738  0.35617  1.0000
  H   H369      1.0  0.33493  0.11607  0.34060  1.0000
  H   H370      1.0  0.35508  0.13015  0.33857  1.0000
  H   H371      1.0  0.34632  0.14758  0.34762  1.0000
  H   H372      1.0  0.37274  0.11673  0.35819  1.0000
  H   H373      1.0  0.36271  0.13078  0.37149  1.0000
  H   H374      1.0  0.34281  0.09096  0.35725  1.0000
  H   H375      1.0  0.36045  0.10031  0.35099  1.0000
  H   H376      1.0  0.32719  0.14857  0.33241  1.0000
  H   H377      1.0  0.30715  0.14660  0.34555  1.0000
  H   H378      1.0  0.33617  0.13054  0.39265  1.0000
  H   H379      1.0  0.34020  0.14928  0.37788  1.0000
  H   H380      1.0  0.32230  0.15537  0.40389  1.0000
  H   H381      1.0  0.31154  0.16396  0.38724  1.0000
  H   H382      1.0  0.30723  0.14527  0.40197  1.0000
  H   H383      1.0  0.38912  0.13732  0.35434  1.0000
  H   H384      1.0  0.38206  0.13979  0.33574  1.0000
  H   H385      1.0  0.35141  0.07506  0.38318  1.0000
  H   H386      1.0  0.36772  0.07145  0.36552  1.0000
  H   H387      1.0  0.36900  0.08479  0.37790  1.0000
  H   H388      1.0  0.30446  0.12763  0.32941  1.0000
  H   H389      1.0  0.30668  0.14783  0.31712  1.0000
  H   H390      1.0  0.32412  0.13054  0.31570  1.0000
  N   N13       1.0  0.27668  0.08552  0.29619  1.0000
  C   C232      1.0  0.27318  0.10206  0.28454  1.0000
  C   C233      1.0  0.27517  0.08826  0.31320  1.0000
  C   C234      1.0  0.29454  0.07731  0.29021  1.0000
  C   C235      1.0  0.26557  0.07426  0.29675  1.0000
  C   C236      1.0  0.24761  0.08261  0.29439  1.0000
  C   C237      1.0  0.27739  0.10152  0.26595  1.0000
  C   C238      1.0  0.30164  0.06130  0.30185  1.0000
  C   C239      1.0  0.25816  0.09760  0.32155  1.0000
  C   C240      1.0  0.25931  0.10164  0.33739  1.0000
  C   C241      1.0  0.23689  0.06982  0.29855  1.0000
  C   C242      1.0  0.26946  0.11775  0.25569  1.0000
  C   C243      1.0  0.31864  0.05264  0.29343  1.0000
  H   H391      1.0  0.28036  0.11050  0.28589  1.0000
  H   H392      1.0  0.26001  0.10846  0.28767  1.0000
  H   H393      1.0  0.27764  0.07623  0.32205  1.0000
  H   H394      1.0  0.28481  0.09495  0.31284  1.0000
  H   H395      1.0  0.30286  0.08608  0.28785  1.0000
  H   H396      1.0  0.29607  0.07392  0.27819  1.0000
  H   H397      1.0  0.27103  0.06687  0.28699  1.0000
  H   H398      1.0  0.26477  0.06487  0.30856  1.0000
  H   H399      1.0  0.24778  0.08908  0.28134  1.0000
  H   H400      1.0  0.24135  0.09180  0.30214  1.0000
  H   H401      1.0  0.29104  0.09957  0.26114  1.0000
  H   H402      1.0  0.27313  0.09126  0.26394  1.0000
  H   H403      1.0  0.29319  0.05258  0.30568  1.0000
  H   H404      1.0  0.30335  0.06411  0.31306  1.0000
  H   H405      1.0  0.25356  0.10947  0.31349  1.0000
  H   H406      1.0  0.24894  0.08965  0.32511  1.0000
  H   H407      1.0  0.24700  0.10831  0.34320  1.0000
  H   H408      1.0  0.26323  0.09012  0.34631  1.0000
  H   H409      1.0  0.26832  0.10971  0.33473  1.0000
  H   H410      1.0  0.24250  0.06054  0.29070  1.0000
  H   H411      1.0  0.23562  0.06341  0.31174  1.0000
  H   H412      1.0  0.22432  0.07602  0.29622  1.0000
  H   H413      1.0  0.27324  0.12837  0.25762  1.0000
  H   H414      1.0  0.27359  0.11740  0.24239  1.0000
  H   H415      1.0  0.25572  0.11960  0.25908  1.0000
  H   H416      1.0  0.32764  0.06085  0.28979  1.0000
  H   H417      1.0  0.32328  0.04133  0.30220  1.0000
  H   H418      1.0  0.31775  0.04896  0.28235  1.0000
  H   H419      1.0  0.22797  0.02852  0.39098  1.0000
  H   H420      1.0  0.21348  0.02764  0.36976  1.0000
  C   C244      1.0  0.00462  0.13630  0.33558  1.0000
  C   C245      1.0  0.29790  0.07432  0.46172  1.0000
  H   H421      1.0  0.18717  0.12367  0.47672  1.0000
  H   H422      1.0  0.23005  0.09754  0.37059  1.0000
  C   C246      1.0  0.27132  0.02836  0.41108  1.0000
  C   C247      1.0  0.31316  0.06082  0.45631  1.0000
  C   C248      1.0  0.18043  0.09247  0.46661  1.0000
  C   C249      1.0  0.25747  0.14630  0.42581  1.0000
  C   C250      1.0  0.21629  0.08163  0.39082  1.0000
  H   H423      1.0  0.99584  0.20112  0.36608  1.0000
  C   C251      1.0  0.30964  0.05183  0.44501  1.0000
  C   C252      1.0  0.21098  0.18881  0.40550  1.0000
  H   H424      1.0  0.02669  0.22594  0.43032  1.0000
  H   H425      1.0  0.01703  0.19897  0.32262  1.0000
  H   H426      1.0  0.21423  0.06537  0.42634  1.0000
  H   H427      1.0  0.29652  0.08450  0.45066  1.0000
  H   H428      1.0  0.28673  0.06897  0.46468  1.0000
  H   H429      1.0  0.99816  0.28813  0.39290  1.0000
  H   H430      1.0  0.27008  0.03626  0.41983  1.0000
  H   H431      1.0  0.04382  0.13483  0.31944  1.0000
  H   H432      1.0  0.24093  0.04524  0.41955  1.0000
  C   C253      1.0  0.24102  0.03938  0.40945  1.0000
  H   H433      1.0  0.20114  0.05759  0.40521  1.0000
  H   H434      1.0  0.08828  0.09592  0.45885  1.0000
  H   H435      1.0  0.32383  0.06664  0.44930  1.0000
  S   S68       1.0  0.00600  0.28928  0.27985  1.0000
  H   H436      1.0  0.06368  0.11908  0.45959  1.0000
  H   H437      1.0  0.21101  0.10829  0.38175  1.0000
  H   H438      1.0  0.99664  0.21602  0.24821  1.0000
  H   H439      1.0  0.33601  0.01250  0.30893  1.0000
  Fe  Fe40      1.0  0.02151  0.27061  0.32040  1.0000
  H   H440      1.0  0.23809  0.02700  0.41559  1.0000
  S   S69       1.0  0.25329  0.18593  0.47101  1.0000
  H   H441      1.0  0.01533  0.23247  0.25018  1.0000
  H   H442      1.0  0.20893  0.07983  0.38295  1.0000
  C   C254      1.0  0.07151  0.11649  0.44761  1.0000
  H   H443      1.0  0.30098  0.04359  0.45208  1.0000
  H   H444      1.0  0.24772  0.11994  0.45043  1.0000
  C   C255      1.0  0.16742  0.10202  0.47608  1.0000
  H   H445      1.0  0.02026  0.18636  0.28171  1.0000
  H   H446      1.0  0.07160  0.12833  0.43834  1.0000
  H   H447      1.0  0.27814  0.15411  0.39761  1.0000
  H   H448      1.0  0.26718  0.11216  0.43742  1.0000
  H   H449      1.0  0.20402  0.05284  0.38115  1.0000
  C   C256      1.0  0.35918  0.01788  0.24717  1.0000
  H   H450      1.0  0.23593  0.19229  0.39661  1.0000
  H   H451      1.0  0.25231  0.17739  0.37833  1.0000
  H   H452      1.0  0.31690  0.05143  0.46708  1.0000
  C   C257      1.0  0.12196  0.12430  0.45987  1.0000
  C   C258      1.0  0.12547  0.10433  0.44238  1.0000
  C   C259      1.0  0.01188  0.18888  0.32138  1.0000
  H   H453      1.0  0.25101  0.17727  0.43105  1.0000
  C   C260      1.0  0.02526  0.17259  0.32238  1.0000
  C   C261      1.0  0.27815  0.17126  0.36719  1.0000
  H   H454      1.0  0.05268  0.18100  0.27284  1.0000
  C   C262      1.0  0.14427  0.10443  0.43777  1.0000
  C   C263      1.0  0.15316  0.09638  0.42304  1.0000
  H   H455      1.0  0.26260  0.04831  0.39218  1.0000
  C   C264      1.0  0.20901  0.05439  0.42797  1.0000
  C   C265      1.0  0.26422  0.05033  0.46871  1.0000
  H   H456      1.0  0.12274  0.13422  0.44847  1.0000
  H   H457      1.0  0.01850  0.21912  0.37973  1.0000
  C   C266      1.0  0.04349  0.18614  0.29786  1.0000
  H   H458      1.0  0.12085  0.11183  0.43119  1.0000
  H   H459      1.0  0.09792  0.13010  0.44474  1.0000
  C   C267      1.0  0.18940  0.07762  0.47441  1.0000
  H   H460      1.0  0.02750  0.15140  0.30350  1.0000
  C   C268      1.0  0.23980  0.03708  0.24194  1.0000
  H   H461      1.0  0.35253  0.01073  0.31899  1.0000
  S   S70       1.0  0.28832  0.01360  0.25613  1.0000
  H   H462      1.0  0.26114  0.14998  0.39294  1.0000
  H   H463      1.0  0.00274  0.21305  0.41693  1.0000
  H   H464      1.0  0.18495  0.04745  0.43813  1.0000
  C   C269      1.0  0.99659  0.22338  0.29071  1.0000
  H   H465      1.0  0.14606  0.11734  0.43415  1.0000
  H   H466      1.0  0.15049  0.09789  0.44811  1.0000
  H   H467      1.0  0.14754  0.10287  0.41218  1.0000
  H   H468      1.0  0.16642  0.09722  0.41969  1.0000
  H   H469      1.0  0.15250  0.08312  0.42617  1.0000
  C   C270      1.0  0.02538  0.22200  0.40673  1.0000
  H   H470      1.0  0.27993  0.19708  0.41568  1.0000
  C   C271      1.0  0.22931  0.04161  0.38590  1.0000
  C   C272      1.0  0.23622  0.16725  0.41285  1.0000
  C   C273      1.0  0.08916  0.10754  0.44946  1.0000
  H   H471      1.0  0.33831  0.00280  0.23920  1.0000
  H   H472      1.0  0.22773  0.19216  0.41815  1.0000
  H   H473      1.0  0.03284  0.19614  0.29469  1.0000
  N   N14       1.0  0.11544  0.18519  0.36279  1.0000
  C   C274      1.0  0.10929  0.17573  0.35402  1.0000
  C   C275      1.0  0.11926  0.20118  0.35136  1.0000
  C   C276      1.0  0.13141  0.17457  0.36743  1.0000
  C   C277      1.0  0.10334  0.18855  0.37845  1.0000
  C   C278      1.0  0.08582  0.19857  0.37653  1.0000
  C   C279      1.0  0.10463  0.15914  0.36423  1.0000
  C   C280      1.0  0.14064  0.18252  0.37549  1.0000
  C   C281      1.0  0.10863  0.20979  0.33811  1.0000
  C   C282      1.0  0.11166  0.22714  0.32976  1.0000
  C   C283      1.0  0.07442  0.20024  0.39330  1.0000
  C   C284      1.0  0.09934  0.15063  0.35365  1.0000
  C   C285      1.0  0.15766  0.17161  0.37727  1.0000
  H   H474      1.0  0.11882  0.17314  0.34278  1.0000
  H   H475      1.0  0.09801  0.18315  0.34947  1.0000
  H   H476      1.0  0.11852  0.21037  0.35867  1.0000
  H   H477      1.0  0.13232  0.19909  0.34412  1.0000
  H   H478      1.0  0.14022  0.17059  0.35635  1.0000
  H   H479      1.0  0.12914  0.16305  0.37651  1.0000
  H   H480      1.0  0.10208  0.17674  0.38748  1.0000
  H   H481      1.0  0.10811  0.19557  0.38461  1.0000
  H   H482      1.0  0.08011  0.19245  0.37040  1.0000
  H   H483      1.0  0.08641  0.21130  0.36937  1.0000
  H   H484      1.0  0.11520  0.15031  0.36899  1.0000
  H   H485      1.0  0.09407  0.16131  0.37475  1.0000
  H   H486      1.0  0.13353  0.18389  0.38808  1.0000
  H   H487      1.0  0.14261  0.19486  0.36814  1.0000
  H   H488      1.0  0.11204  0.20250  0.32835  1.0000
  H   H489      1.0  0.09514  0.21096  0.34327  1.0000
  H   H490      1.0  0.10776  0.23518  0.33889  1.0000
  H   H491      1.0  0.12498  0.22663  0.32385  1.0000
  H   H492      1.0  0.10424  0.23276  0.32007  1.0000
  H   H493      1.0  0.06204  0.20770  0.39146  1.0000
  H   H494      1.0  0.07287  0.18791  0.40104  1.0000
  H   H495      1.0  0.07953  0.20653  0.39990  1.0000
  H   H496      1.0  0.09628  0.13870  0.36118  1.0000
  H   H497      1.0  0.08818  0.15850  0.34910  1.0000
  H   H498      1.0  0.10953  0.14799  0.34295  1.0000
  H   H499      1.0  0.15637  0.15909  0.38470  1.0000
  H   H500      1.0  0.16579  0.17047  0.36499  1.0000
  H   H501      1.0  0.16375  0.17717  0.38364  1.0000
  C   C286      1.0  0.06632  0.12996  0.32789  1.0000
  H   H502      1.0  0.18951  0.06045  0.44884  1.0000
  H   H503      1.0  0.01888  0.16211  0.32695  1.0000
  H   H504      1.0  0.27970  0.16045  0.43139  1.0000
  H   H505      1.0  0.99569  0.25374  0.37574  1.0000
  H   H506      1.0  0.23064  0.03571  0.35551  1.0000
  H   H507      1.0  0.26124  0.02807  0.39110  1.0000
  H   H508      1.0  0.27748  0.16012  0.36348  1.0000
  H   H509      1.0  0.06585  0.10865  0.44330  1.0000
  H   H510      1.0  0.32545  0.07635  0.47060  1.0000
  C   C287      1.0  0.19070  0.05808  0.43650  1.0000
  H   H511      1.0  0.20562  0.20228  0.40245  1.0000
  C   C288      1.0  0.22856  0.18600  0.40804  1.0000
  H   H512      1.0  0.02582  0.09848  0.32832  1.0000
  C   C289      1.0  0.27742  0.17141  0.42128  1.0000
  H   H513      1.0  0.27678  0.18195  0.35663  1.0000
  H   H514      1.0  0.23707  0.02587  0.25135  1.0000
  H   H515      1.0  0.28426  0.02664  0.40369  1.0000
  H   H516      1.0  0.25220  0.14847  0.43852  1.0000
  H   H517      1.0  0.26892  0.01605  0.41818  1.0000
  H   H518      1.0  0.05969  0.16380  0.31795  1.0000
  H   H519      1.0  0.20863  0.03687  0.41433  1.0000
  H   H520      1.0  0.03121  0.17236  0.33249  1.0000
  N   N15       1.0  0.11509  0.11086  0.45750  1.0000
  C   C290      1.0  0.02113  0.10881  0.33442  1.0000
  C   C291      1.0  0.21779  0.03913  0.36267  1.0000
  H   H521      1.0  0.38818  0.99426  0.25200  1.0000
  H   H522      1.0  0.23360  0.16079  0.40450  1.0000
  S   S71       1.0  0.02150  0.24168  0.27674  1.0000
  C   C292      1.0  0.03217  0.16267  0.29619  1.0000
  C   C293      1.0  0.23671  0.18171  0.46532  1.0000
  H   H523      1.0  0.03280  0.09636  0.35501  1.0000
  H   H524      1.0  0.25730  0.18753  0.41059  1.0000
  C   C294      1.0  0.02515  0.10764  0.34950  1.0000
  H   H525      1.0  0.35326  0.99497  0.30844  1.0000
  C   C295      1.0  0.23606  0.06501  0.47713  1.0000
  H   H526      1.0  0.00656  0.11370  0.26455  1.0000
  C   C296      1.0  0.01062  0.12301  0.32754  1.0000
  S   S72       1.0  0.00110  0.26227  0.31531  1.0000
  N   N16       1.0  0.22803  0.04979  0.39979  1.0000
  H   H527      1.0  0.00784  0.19282  0.30960  1.0000
  H   H528      1.0  0.12413  0.09155  0.44329  1.0000
  H   H529      1.0  0.22890  0.10045  0.39094  1.0000
  C   C297      1.0  0.05680  0.18554  0.28164  1.0000
  H   H530      1.0  0.41475  0.00250  0.25163  1.0000
  H   H531      1.0  0.03562  0.31601  0.30766  1.0000
  H   H532      1.0  0.06263  0.15431  0.30113  1.0000
  H   H533      1.0  0.07310  0.13609  0.33299  1.0000
  C   C298      1.0  0.01582  0.16631  0.27450  1.0000
  H   H534      1.0  0.26586  0.18578  0.38523  1.0000
  C   C299      1.0  0.25033  0.13206  0.42438  1.0000
  H   H535      1.0  0.36078  0.00416  0.25030  1.0000
  C   C300      1.0  0.00495  0.22035  0.38414  1.0000
  C   C301      1.0  0.03166  0.21632  0.42280  1.0000
  H   H536      1.0  0.06420  0.20803  0.28147  1.0000
  H   H537      1.0  0.07433  0.12618  0.31646  1.0000
  H   H538      1.0  0.19940  0.07011  0.46718  1.0000
  H   H539      1.0  0.04872  0.21125  0.26956  1.0000
  S   S73       1.0  0.02989  0.25904  0.34423  1.0000
  C   C302      1.0  0.21704  0.05012  0.37429  1.0000
  H   H540      1.0  0.25600  0.12836  0.41241  1.0000
  H   H541      1.0  0.06354  0.11868  0.33714  1.0000
  H   H542      1.0  0.36794  0.02055  0.23516  1.0000
  C   C303      1.0  0.11386  0.09694  0.47258  1.0000
  C   C304      1.0  0.01798  0.17381  0.28776  1.0000
  H   H543      1.0  0.30417  0.06091  0.43500  1.0000
  H   H544      1.0  0.27264  0.18869  0.43732  1.0000
  C   C305      1.0  0.25931  0.17526  0.41903  1.0000
  H   H545      1.0  0.28630  0.16920  0.40973  1.0000
  H   H546      1.0  0.09998  0.14042  0.47187  1.0000
  H   H547      1.0  0.22857  0.16308  0.42525  1.0000
  C   C306      1.0  0.25364  0.11686  0.43816  1.0000
  C   C307      1.0  0.26434  0.17465  0.38215  1.0000
  C   C308      1.0  0.26498  0.15951  0.39676  1.0000
  C   C309      1.0  0.05333  0.15792  0.31208  1.0000
  N   N17       1.0  0.25449  0.16239  0.41331  1.0000
  N   N18       1.0  0.36356  0.02359  0.26025  1.0000
  C   C310      1.0  0.31462  0.08695  0.47140  1.0000
  C   C311      1.0  0.38208  0.01838  0.25887  1.0000
  C   C312      1.0  0.35434  0.01583  0.27689  1.0000
  C   C313      1.0  0.35849  0.04213  0.25811  1.0000
  H   H548      1.0  0.20298  0.18323  0.41696  1.0000
  C   C314      1.0  0.05010  0.14156  0.32437  1.0000
  C   C315      1.0  0.35911  0.01793  0.29223  1.0000
  C   C316      1.0  0.38923  0.99943  0.26209  1.0000
  H   H549      1.0  0.02784  0.20462  0.43007  1.0000
  N   N19       1.0  0.03824  0.17007  0.30691  1.0000
  H   H550      1.0  0.20966  0.04585  0.35381  1.0000
  C   C317      1.0  0.34962  0.00848  0.30809  1.0000
  H   H551      1.0  0.04229  0.14403  0.33639  1.0000
  S   S74       1.0  0.26952  0.06310  0.25007  1.0000
  C   C318      1.0  0.22319  0.19484  0.46294  1.0000
  H   H552      1.0  0.38602  0.02388  0.26710  1.0000
  H   H553      1.0  0.35579  0.00236  0.27791  1.0000
  H   H554      1.0  0.34077  0.02096  0.27829  1.0000
  H   H555      1.0  0.34473  0.04619  0.26028  1.0000
  H   H556      1.0  0.36214  0.04616  0.26760  1.0000
  H   H557      1.0  0.04843  0.19064  0.30613  1.0000
  H   H558      1.0  0.21102  0.18328  0.39522  1.0000
  H   H559      1.0  0.33187  0.02496  0.25563  1.0000
  H   H560      1.0  0.04268  0.15818  0.28648  1.0000
  H   H561      1.0  0.35602  0.03114  0.29294  1.0000
  H   H562      1.0  0.37251  0.01300  0.29202  1.0000
  H   H563      1.0  0.06873  0.17741  0.28413  1.0000
  H   H564      1.0  0.01666  0.20477  0.35892  1.0000
  H   H565      1.0  0.24325  0.04518  0.24798  1.0000
  H   H566      1.0  0.03111  0.21198  0.39979  1.0000
  H   H567      1.0  0.02990  0.23336  0.39966  1.0000
  H   H568      1.0  0.00607  0.17480  0.29700  1.0000
  H   H569      1.0  0.00467  0.14572  0.35647  1.0000
  S   S75       1.0  0.00549  0.12374  0.30882  1.0000
  H   H570      1.0  0.08933  0.12247  0.46581  1.0000
  H   H571      1.0  0.02711  0.16565  0.26444  1.0000
  C   C319      1.0  0.00709  0.23038  0.27641  1.0000
  H   H572      1.0  0.99767  0.14760  0.41020  1.0000
  Fe  Fe41      1.0  0.01694  0.26266  0.28995  1.0000
  H   H573      1.0  0.16039  0.11339  0.47016  1.0000
  C   C320      1.0  0.22259  0.16400  0.45843  1.0000
  H   H574      1.0  0.28577  0.10590  0.46690  1.0000
  H   H575      1.0  0.19886  0.20284  0.45754  1.0000
  H   H576      1.0  0.00143  0.23313  0.41947  1.0000
  C   C321      1.0  0.99665  0.21786  0.26015  1.0000
  C   C322      1.0  0.34139  0.02538  0.24401  1.0000
  C   C323      1.0  0.23640  0.16617  0.46314  1.0000
  H   H577      1.0  0.13491  0.11963  0.46155  1.0000
  H   H578      1.0  0.12402  0.15394  0.46558  1.0000
  C   C324      1.0  0.00333  0.21058  0.35950  1.0000
  H   H579      1.0  0.01596  0.27599  0.38151  1.0000
  H   H580      1.0  0.99983  0.18264  0.34732  1.0000
  C   C325      1.0  0.21266  0.11361  0.46773  1.0000
  C   C326      1.0  0.00198  0.24875  0.38634  1.0000
  S   S76       1.0  0.28749  0.14387  0.47216  1.0000
  H   H581      1.0  0.31584  0.09519  0.45888  1.0000
  H   H582      1.0  0.22375  0.10580  0.47233  1.0000
  H   H583      1.0  0.24669  0.15588  0.46525  1.0000
  C   C327      1.0  0.00616  0.22512  0.41033  1.0000
  H   H584      1.0  0.33417  0.11063  0.46474  1.0000
  H   H585      1.0  0.38270  0.99281  0.27393  1.0000
  H   H586      1.0  0.00516  0.17418  0.26910  1.0000
  H   H587      1.0  0.22226  0.15203  0.45692  1.0000
  C   C328      1.0  0.99801  0.22504  0.36825  1.0000
  C   C329      1.0  0.26682  0.09180  0.47972  1.0000
  H   H588      1.0  0.15460  0.17385  0.47703  1.0000
  H   H589      1.0  0.27417  0.99382  0.23569  1.0000
  C   C330      1.0  0.35801  0.07058  0.23928  1.0000
  C   C331      1.0  0.00717  0.22731  0.26125  1.0000
  C   C332      1.0  0.00222  0.27831  0.38564  1.0000
  C   C333      1.0  0.33720  0.01615  0.23333  1.0000
  S   S77       1.0  0.03838  0.31676  0.27294  1.0000
  H   H590      1.0  0.34836  0.25898  0.47489  1.0000
  H   H591      1.0  0.20759  0.13804  0.48226  1.0000
  H   H592      1.0  0.22840  0.04371  0.23721  1.0000
  C   C334      1.0  0.11209  0.13278  0.47443  1.0000
  C   C335      1.0  0.36612  0.05221  0.24121  1.0000
  H   H593      1.0  0.34526  0.19353  0.47679  1.0000
  N   N20       1.0  0.29856  0.08100  0.47601  1.0000
  H   H594      1.0  0.34438  0.23950  0.47452  1.0000
  H   H595      1.0  0.34469  0.07263  0.23902  1.0000
  C   C336      1.0  0.28412  0.09550  0.47782  1.0000
  H   H596      1.0  0.36937  0.20439  0.47692  1.0000
  H   H597      1.0  0.34434  0.09082  0.47534  1.0000
  H   H598      1.0  0.99663  0.28282  0.37458  1.0000
  H   H599      1.0  0.30366  0.04724  0.23806  1.0000
  C   C337      1.0  0.33395  0.10168  0.47677  1.0000
  H   H600      1.0  0.45798  0.27245  0.47935  1.0000
  H   H601      1.0  0.48262  0.28041  0.48177  1.0000
  H   H602      1.0  0.34026  0.03853  0.23748  1.0000
  H   H603      1.0  0.26465  0.02461  0.23351  1.0000
  H   H604      1.0  0.36249  0.23975  0.48115  1.0000
  C   C338      1.0  0.34924  0.24580  0.48133  1.0000
  H   H605      1.0  0.18036  0.15163  0.48088  1.0000
  C   C339      1.0  0.25060  0.05451  0.48130  1.0000
  H   H606      1.0  0.25236  0.11684  0.48070  1.0000
  H   H607      1.0  0.00370  0.11135  0.23753  1.0000
  C   C340      1.0  0.12972  0.08934  0.47964  1.0000
  C   C341      1.0  0.19823  0.11744  0.48206  1.0000
  C   C342      1.0  0.26346  0.98958  0.23545  1.0000
  H   H608      1.0  0.10364  0.10102  0.48273  1.0000
  H   H609      1.0  0.13406  0.09887  0.48280  1.0000
  C   C343      1.0  0.28974  0.07205  0.50825  1.0000
  Fe  Fe42      1.0  0.41995  0.23610  0.51861  1.0000
  S   S78       1.0  0.41802  0.22989  0.54586  1.0000
  H   H610      1.0  0.34157  0.28670  0.54941  1.0000
  Fe  Fe43      1.0  0.39310  0.21687  0.52031  1.0000
  S   S79       1.0  0.38931  0.20911  0.54798  1.0000
  C   C344      1.0  0.46292  0.30143  0.53098  1.0000
  Fe  Fe44      1.0  0.39063  0.23513  0.54752  1.0000
  S   S80       1.0  0.37082  0.25059  0.56376  1.0000
  Fe  Fe45      1.0  0.41713  0.20465  0.54374  1.0000
  S   S81       1.0  0.43391  0.18242  0.55560  1.0000
  S   S82       1.0  0.39244  0.24331  0.52012  1.0000
  S   S83       1.0  0.42104  0.21047  0.51619  1.0000
  Fe  Fe46      1.0  0.47996  0.18923  0.64519  1.0000
  S   S84       1.0  0.47542  0.19064  0.62037  1.0000
  S   S85       1.0  0.48537  0.21167  0.64962  1.0000
  Fe  Fe47      1.0  0.47683  0.15342  0.65780  1.0000
  Fe  Fe48      1.0  0.45527  0.17720  0.63486  1.0000
  S   S86       1.0  0.43027  0.18716  0.62829  1.0000
  S   S87       1.0  0.45855  0.17756  0.65970  1.0000
  C   C345      1.0  0.19418  0.99575  0.55235  1.0000
  C   C346      1.0  0.47631  0.27240  0.49215  1.0000
  C   C347      1.0  0.39683  0.24659  0.65220  1.0000
  H   H611      1.0  0.06685  0.99067  0.69272  1.0000
  C   C348      1.0  0.44229  0.27670  0.55582  1.0000
  C   C349      1.0  0.06032  0.03586  0.65781  1.0000
  Fe  Fe49      1.0  0.41665  0.29022  0.64292  1.0000
  S   S88       1.0  0.42242  0.26862  0.66354  1.0000
  S   S89       1.0  0.41989  0.28810  0.61676  1.0000
  Fe  Fe50      1.0  0.23016  0.05667  0.52069  1.0000
  S   S90       1.0  0.21338  0.08145  0.51497  1.0000
  H   H612      1.0  0.47125  0.28925  0.53445  1.0000
  Fe  Fe51      1.0  0.21257  0.05019  0.55679  1.0000
  S   S91       1.0  0.19419  0.07437  0.55403  1.0000
  S   S92       1.0  0.21338  0.03314  0.58172  1.0000
  Fe  Fe52      1.0  0.19300  0.06876  0.53053  1.0000
  S   S93       1.0  0.16869  0.07614  0.52261  1.0000
  Fe  Fe53      1.0  0.21604  0.08495  0.53879  1.0000
  S   S94       1.0  0.21815  0.11019  0.53931  1.0000
  S   S95       1.0  0.20947  0.04340  0.53449  1.0000
  S   S96       1.0  0.23472  0.06128  0.54336  1.0000
  H   H613      1.0  0.45471  0.29457  0.61289  1.0000
  S   S97       1.0  0.12118  0.00531  0.65143  1.0000
  S   S98       1.0  0.29316  0.11587  0.51557  1.0000
  H   H614      1.0  0.35077  0.09739  0.52636  1.0000
  S   S99       1.0  0.25216  0.04665  0.50207  1.0000
  H   H615      1.0  0.11306  0.05320  0.60996  1.0000
  S   S100      1.0  0.47153  0.15202  0.63412  1.0000
  H   H616      1.0  0.33723  0.22469  0.53114  1.0000
  H   H617      1.0  0.12089  0.03168  0.60895  1.0000
  C   C350      1.0  0.16129  0.11328  0.54360  1.0000
  S   S101      1.0  0.13273  0.02122  0.68501  1.0000
  H   H618      1.0  0.30871  0.23537  0.54409  1.0000
  S   S102      1.0  0.05939  0.06045  0.70528  1.0000
  C   C351      1.0  0.11260  0.03279  0.69025  1.0000
  C   C352      1.0  0.10268  0.03949  0.67853  1.0000
  C   C353      1.0  0.08666  0.04900  0.68289  1.0000
  C   C354      1.0  0.08026  0.05097  0.69917  1.0000
  C   C355      1.0  0.09031  0.04448  0.71077  1.0000
  C   C356      1.0  0.10656  0.03566  0.70624  1.0000
  H   H619      1.0  0.10741  0.03747  0.66611  1.0000
  H   H620      1.0  0.07899  0.05432  0.67386  1.0000
  H   H621      1.0  0.38217  0.13525  0.51495  1.0000
  H   H622      1.0  0.11429  0.03074  0.71524  1.0000
  C   C357      1.0  0.19536  0.02540  0.59126  1.0000
  C   C358      1.0  0.18250  0.02869  0.58295  1.0000
  H   H623      1.0  0.48835  0.18753  0.51958  1.0000
  H   H624      1.0  0.18066  0.99817  0.62560  1.0000
  H   H625      1.0  0.48999  0.14399  0.57381  1.0000
  C   C359      1.0  0.19436  0.01486  0.60690  1.0000
  H   H626      1.0  0.18314  0.03692  0.57092  1.0000
  H   H627      1.0  0.47230  0.30345  0.50441  1.0000
  H   H628      1.0  0.20161  0.98870  0.54276  1.0000
  H   H629      1.0  0.37749  0.15729  0.50700  1.0000
  H   H630      1.0  0.11150  0.03723  0.62862  1.0000
  Fe  Fe54      1.0  0.49216  0.16556  0.62178  1.0000
  C   C360      1.0  0.43009  0.30681  0.55640  1.0000
  C   C361      1.0  0.17280  0.08213  0.50108  1.0000
  H   H631      1.0  0.21660  0.15199  0.49532  1.0000
  H   H632      1.0  0.12216  0.07659  0.68004  1.0000
  N   N21       1.0  0.18727  0.13634  0.50348  1.0000
  H   H633      1.0  0.07450  0.01160  0.66680  1.0000
  C   C362      1.0  0.18586  0.07264  0.49164  1.0000
  C   C363      1.0  0.23893  0.11199  0.53320  1.0000
  C   C364      1.0  0.24311  0.12654  0.52278  1.0000
  C   C365      1.0  0.25979  0.12778  0.51726  1.0000
  C   C366      1.0  0.27226  0.11463  0.52257  1.0000
  C   C367      1.0  0.26804  0.10027  0.53333  1.0000
  C   C368      1.0  0.25140  0.09885  0.53846  1.0000
  H   H634      1.0  0.23350  0.13673  0.51870  1.0000
  H   H635      1.0  0.05162  0.03275  0.65225  1.0000
  H   H636      1.0  0.27762  0.09022  0.53766  1.0000
  H   H637      1.0  0.24820  0.08773  0.54677  1.0000
  H   H638      1.0  0.30753  0.10777  0.48391  1.0000
  C   C369      1.0  0.24435  0.99889  0.55433  1.0000
  C   C370      1.0  0.46758  0.22736  0.65285  1.0000
  C   C371      1.0  0.46739  0.24347  0.64337  1.0000
  C   C372      1.0  0.45338  0.25620  0.64624  1.0000
  C   C373      1.0  0.43987  0.25295  0.65910  1.0000
  C   C374      1.0  0.44020  0.23691  0.66873  1.0000
  C   C375      1.0  0.45388  0.22405  0.66538  1.0000
  H   H639      1.0  0.47800  0.24608  0.63372  1.0000
  H   H640      1.0  0.45318  0.26859  0.63882  1.0000
  H   H641      1.0  0.42980  0.23439  0.67873  1.0000
  H   H642      1.0  0.45405  0.21168  0.67284  1.0000
  C   C376      1.0  0.07534  0.03923  0.64401  1.0000
  C   C377      1.0  0.07796  0.99313  0.71960  1.0000
  C   C378      1.0  0.30856  0.24463  0.53229  1.0000
  H   H643      1.0  0.33582  0.10781  0.48574  1.0000
  H   H644      1.0  0.45479  0.20325  0.58693  1.0000
  H   H645      1.0  0.17160  0.00079  0.54333  1.0000
  H   H646      1.0  0.35559  0.19719  0.52963  1.0000
  H   H647      1.0  0.33076  0.18749  0.52945  1.0000
  H   H648      1.0  0.24879  0.01222  0.52856  1.0000
  H   H649      1.0  0.47198  0.31683  0.56215  1.0000
  C   C379      1.0  0.37458  0.28253  0.59706  1.0000
  C   C380      1.0  0.38911  0.27194  0.59052  1.0000
  C   C381      1.0  0.38853  0.26223  0.57980  1.0000
  C   C382      1.0  0.37339  0.26308  0.57581  1.0000
  C   C383      1.0  0.35913  0.27382  0.58224  1.0000
  C   C384      1.0  0.35973  0.28344  0.59272  1.0000
  H   H650      1.0  0.40057  0.27087  0.59411  1.0000
  H   H651      1.0  0.39959  0.25378  0.57506  1.0000
  H   H652      1.0  0.34739  0.27449  0.57938  1.0000
  H   H653      1.0  0.29170  0.16900  0.53087  1.0000
  C   C385      1.0  0.43230  0.18317  0.57610  1.0000
  C   C386      1.0  0.42004  0.19510  0.58339  1.0000
  C   C387      1.0  0.41924  0.19602  0.59960  1.0000
  C   C388      1.0  0.43088  0.18524  0.60841  1.0000
  C   C389      1.0  0.44311  0.17330  0.60113  1.0000
  C   C390      1.0  0.44366  0.17210  0.58507  1.0000
  H   H654      1.0  0.41110  0.20354  0.57661  1.0000
  H   H655      1.0  0.40976  0.20523  0.60521  1.0000
  H   H656      1.0  0.45206  0.16487  0.60792  1.0000
  H   H657      1.0  0.45293  0.16266  0.57959  1.0000
  C   C391      1.0  0.41667  0.30448  0.57263  1.0000
  C   C392      1.0  0.47820  0.28188  0.60072  1.0000
  H   H658      1.0  0.02680  0.06250  0.69268  1.0000
  H   H659      1.0  0.31078  0.05985  0.49206  1.0000
  C   C393      1.0  0.41871  0.29223  0.54291  1.0000
  C   C394      1.0  0.38163  0.24754  0.66689  1.0000
  H   H660      1.0  0.01190  0.00454  0.67554  1.0000
  H   H661      1.0  0.01622  0.03211  0.68973  1.0000
  C   C395      1.0  0.47389  0.25635  0.52013  1.0000
  C   C396      1.0  0.45963  0.25184  0.51877  1.0000
  C   C397      1.0  0.45393  0.25755  0.50395  1.0000
  H   H662      1.0  0.44105  0.30812  0.56003  1.0000
  H   H663      1.0  0.20155  0.13763  0.52016  1.0000
  H   H664      1.0  0.24645  0.00029  0.56601  1.0000
  H   H665      1.0  0.45305  0.24406  0.52911  1.0000
  H   H666      1.0  0.36275  0.28218  0.53796  1.0000
  H   H667      1.0  0.48667  0.22061  0.61196  1.0000
  C   C398      1.0  0.36110  0.20048  0.48846  1.0000
  H   H668      1.0  0.05083  0.99740  0.70889  1.0000
  H   H669      1.0  0.19053  0.11452  0.52290  1.0000
  Fe  Fe55      1.0  0.29559  0.13891  0.49605  1.0000
  H   H670      1.0  0.08440  0.04283  0.64875  1.0000
  S   S103      1.0  0.47675  0.13044  0.67819  1.0000
  H   H671      1.0  0.26296  0.13892  0.50894  1.0000
  H   H672      1.0  0.32611  0.25054  0.49837  1.0000
  H   H673      1.0  0.25479  0.10360  0.50057  1.0000
  H   H674      1.0  0.16625  0.13912  0.49282  1.0000
  H   H675      1.0  0.47999  0.27224  0.61155  1.0000
  H   H676      1.0  0.46412  0.21838  0.58982  1.0000
  H   H677      1.0  0.28579  0.04739  0.52124  1.0000
  C   C399      1.0  0.20051  0.98890  0.56866  1.0000
  H   H678      1.0  0.44534  0.28036  0.57903  1.0000
  H   H679      1.0  0.35276  0.28053  0.51415  1.0000
  H   H680      1.0  0.40522  0.27105  0.52140  1.0000
  H   H681      1.0  0.07321  0.02706  0.67730  1.0000
  C   C400      1.0  0.35578  0.14674  0.51865  1.0000
  C   C401      1.0  0.18104  0.00681  0.61382  1.0000
  H   H682      1.0  0.28952  0.26250  0.52045  1.0000
  H   H683      1.0  0.47598  0.16782  0.55506  1.0000
  H   H684      1.0  0.35670  0.22776  0.53116  1.0000
  N   N22       1.0  0.39805  0.23462  0.64168  1.0000
  C   C402      1.0  0.41279  0.23561  0.62730  1.0000
  C   C403      1.0  0.38253  0.23988  0.63475  1.0000
  C   C404      1.0  0.39889  0.21707  0.65157  1.0000
  C   C405      1.0  0.41260  0.20985  0.66173  1.0000
  C   C406      1.0  0.38239  0.23094  0.62133  1.0000
  C   C407      1.0  0.42861  0.23872  0.63038  1.0000
  C   C408      1.0  0.44338  0.23561  0.61619  1.0000
  C   C409      1.0  0.41046  0.19304  0.67284  1.0000
  C   C410      1.0  0.36552  0.23614  0.61652  1.0000
  H   H685      1.0  0.41635  0.22421  0.62221  1.0000
  H   H686      1.0  0.40944  0.24604  0.61699  1.0000
  H   H687      1.0  0.38027  0.25344  0.62923  1.0000
  H   H688      1.0  0.37144  0.23792  0.64476  1.0000
  H   H689      1.0  0.38675  0.21575  0.66006  1.0000
  H   H690      1.0  0.40096  0.20843  0.64333  1.0000
  H   H691      1.0  0.41243  0.21798  0.66982  1.0000
  H   H692      1.0  0.42496  0.20772  0.65337  1.0000
  H   H693      1.0  0.38490  0.21733  0.62571  1.0000
  H   H694      1.0  0.39185  0.23406  0.60997  1.0000
  H   H695      1.0  0.42652  0.25177  0.63136  1.0000
  H   H696      1.0  0.43210  0.23077  0.64181  1.0000
  H   H697      1.0  0.45429  0.23894  0.61807  1.0000
  H   H698      1.0  0.44662  0.22229  0.61576  1.0000
  H   H699      1.0  0.44035  0.24321  0.60434  1.0000
  H   H700      1.0  0.42064  0.18801  0.67971  1.0000
  H   H701      1.0  0.39843  0.19424  0.68191  1.0000
  H   H702      1.0  0.41106  0.18414  0.66532  1.0000
  H   H703      1.0  0.36192  0.24980  0.61281  1.0000
  H   H704      1.0  0.36616  0.23078  0.60592  1.0000
  H   H705      1.0  0.35584  0.23165  0.62703  1.0000
  N   N23       1.0  0.33389  0.12898  0.53389  1.0000
  C   C411      1.0  0.25035  0.01293  0.54073  1.0000
  C   C412      1.0  0.32711  0.11537  0.53177  1.0000
  C   C413      1.0  0.32086  0.14479  0.53148  1.0000
  C   C414      1.0  0.33721  0.12557  0.55100  1.0000
  C   C415      1.0  0.35487  0.11596  0.55346  1.0000
  Fe  Fe56      1.0  0.13353  0.00121  0.67236  1.0000
  C   C416      1.0  0.30342  0.14451  0.54297  1.0000
  C   C417      1.0  0.33813  0.09775  0.53421  1.0000
  C   C418      1.0  0.33062  0.08572  0.52974  1.0000
  C   C419      1.0  0.35557  0.11115  0.57172  1.0000
  H   H706      1.0  0.39430  0.31289  0.56219  1.0000
  H   H707      1.0  0.21853  0.01109  0.56039  1.0000
  S   S104      1.0  0.42466  0.31446  0.63652  1.0000
  H   H708      1.0  0.16916  0.01278  0.66814  1.0000
  H   H709      1.0  0.31515  0.11421  0.54067  1.0000
  H   H710      1.0  0.32426  0.11855  0.51926  1.0000
  C   C420      1.0  0.48573  0.16947  0.56033  1.0000
  H   H711      1.0  0.32506  0.15525  0.53325  1.0000
  H   H712      1.0  0.33515  0.13737  0.55509  1.0000
  H   H713      1.0  0.32806  0.11874  0.56011  1.0000
  H   H714      1.0  0.26370  0.01213  0.53987  1.0000
  H   H715      1.0  0.35893  0.10453  0.54858  1.0000
  H   H716      1.0  0.48415  0.19893  0.57344  1.0000
  H   H717      1.0  0.48465  0.10065  0.70196  1.0000
  H   H718      1.0  0.30428  0.13802  0.55581  1.0000
  H   H719      1.0  0.29649  0.13812  0.53832  1.0000
  C   C421      1.0  0.33914  0.24435  0.49907  1.0000
  C   C422      1.0  0.16867  0.00936  0.60509  1.0000
  H   H720      1.0  0.31783  0.08555  0.53724  1.0000
  H   H721      1.0  0.33013  0.08942  0.51648  1.0000
  H   H722      1.0  0.41219  0.30468  0.53713  1.0000
  H   H723      1.0  0.36839  0.10466  0.57310  1.0000
  H   H724      1.0  0.33894  0.09312  0.54737  1.0000
  Fe  Fe57      1.0  0.42506  0.31369  0.61055  1.0000
  H   H725      1.0  0.48970  0.24072  0.60100  1.0000
  H   H726      1.0  0.39101  0.31427  0.58324  1.0000
  H   H727      1.0  0.24330  0.02508  0.54355  1.0000
  H   H728      1.0  0.34704  0.10271  0.57872  1.0000
  C   C423      1.0  0.47138  0.31016  0.51409  1.0000
  H   H729      1.0  0.28287  0.24441  0.53403  1.0000
  H   H730      1.0  0.02900  0.04413  0.67383  1.0000
  N   N24       1.0  0.48519  0.19829  0.54058  1.0000
  C   C424      1.0  0.04290  0.00758  0.67812  1.0000
  C   C425      1.0  0.07312  0.00633  0.70487  1.0000
  C   C426      1.0  0.37356  0.14554  0.50856  1.0000
  H   H731      1.0  0.48849  0.22328  0.52930  1.0000
  C   C427      1.0  0.01938  0.99318  0.68198  1.0000
  C   C428      1.0  0.34309  0.23241  0.53530  1.0000
  C   C429      1.0  0.33923  0.22825  0.55446  1.0000
  C   C430      1.0  0.34004  0.20976  0.56138  1.0000
  H   H732      1.0  0.34857  0.23169  0.55896  1.0000
  H   H733      1.0  0.33733  0.20726  0.57507  1.0000
  H   H734      1.0  0.33079  0.20558  0.55747  1.0000
  H   H735      1.0  0.35267  0.20256  0.55708  1.0000
  N   N25       1.0  0.15091  0.05494  0.63265  1.0000
  C   C431      1.0  0.14682  0.06851  0.64210  1.0000
  C   C432      1.0  0.16256  0.05963  0.61634  1.0000
  C   C433      1.0  0.13492  0.05412  0.62888  1.0000
  C   C434      1.0  0.15814  0.03819  0.64223  1.0000
  C   C435      1.0  0.16924  0.03791  0.65396  1.0000
  C   C436      1.0  0.13266  0.06699  0.65777  1.0000
  C   C437      1.0  0.13642  0.04187  0.61797  1.0000
  C   C438      1.0  0.17969  0.06191  0.61694  1.0000
  C   C439      1.0  0.18861  0.06974  0.59986  1.0000
  C   C440      1.0  0.17825  0.02032  0.66037  1.0000
  C   C441      1.0  0.13274  0.07772  0.66927  1.0000
  C   C442      1.0  0.11937  0.04101  0.61632  1.0000
  H   H736      1.0  0.14310  0.08079  0.63399  1.0000
  H   H737      1.0  0.15787  0.06941  0.64587  1.0000
  H   H738      1.0  0.16563  0.04994  0.60901  1.0000
  H   H739      1.0  0.15634  0.07119  0.60880  1.0000
  H   H740      1.0  0.12877  0.06660  0.62278  1.0000
  H   H741      1.0  0.12601  0.05028  0.64051  1.0000
  H   H742      1.0  0.14811  0.03175  0.65009  1.0000
  H   H743      1.0  0.16543  0.02997  0.63358  1.0000
  H   H744      1.0  0.16154  0.04290  0.66487  1.0000
  H   H745      1.0  0.17873  0.04539  0.64790  1.0000
  H   H746      1.0  0.12040  0.07107  0.65422  1.0000
  H   H747      1.0  0.13372  0.05404  0.66479  1.0000
  H   H748      1.0  0.14261  0.02928  0.62350  1.0000
  H   H749      1.0  0.14348  0.04575  0.60526  1.0000
  H   H750      1.0  0.17877  0.07000  0.62534  1.0000
  H   H751      1.0  0.18765  0.04963  0.62082  1.0000
  H   H752      1.0  0.20140  0.07004  0.60021  1.0000
  H   H753      1.0  0.18951  0.06241  0.59073  1.0000
  H   H754      1.0  0.18189  0.08261  0.59574  1.0000
  H   H755      1.0  0.18586  0.01441  0.64997  1.0000
  H   H756      1.0  0.28372  0.10065  0.48847  1.0000
  H   H757      1.0  0.19810  0.16569  0.48958  1.0000
  H   H758      1.0  0.14442  0.07354  0.67391  1.0000
  H   H759      1.0  0.13143  0.09091  0.66276  1.0000
  C   C443      1.0  0.46390  0.29450  0.60147  1.0000
  H   H760      1.0  0.31640  0.26793  0.52063  1.0000
  H   H761      1.0  0.15339  0.10413  0.50064  1.0000
  H   H762      1.0  0.32680  0.23514  0.55964  1.0000
  C   C444      1.0  0.06035  0.00173  0.69803  1.0000
  H   H763      1.0  0.06807  0.01831  0.70879  1.0000
  H   H764      1.0  0.19605  0.10548  0.49021  1.0000
  C   C445      1.0  0.48776  0.29416  0.57202  1.0000
  H   H765      1.0  0.35927  0.25451  0.53383  1.0000
  H   H766      1.0  0.14109  0.16139  0.49216  1.0000
  C   C446      1.0  0.29308  0.16199  0.54346  1.0000
  C   C447      1.0  0.14515  0.99564  0.72689  1.0000
  C   C448      1.0  0.12652  0.07628  0.49550  1.0000
  H   H767      1.0  0.15911  0.10353  0.53874  1.0000
  H   H768      1.0  0.35212  0.12234  0.57707  1.0000
  H   H769      1.0  0.46333  0.21689  0.54717  1.0000
  C   C449      1.0  0.46232  0.26790  0.49079  1.0000
  H   H770      1.0  0.45090  0.22422  0.57509  1.0000
  C   C450      1.0  0.39973  0.31584  0.57108  1.0000
  C   C451      1.0  0.47564  0.20950  0.56737  1.0000
  C   C452      1.0  0.46036  0.21416  0.58056  1.0000
  H   H771      1.0  0.43940  0.31032  0.52311  1.0000
  H   H772      1.0  0.34642  0.13201  0.50814  1.0000
  C   C453      1.0  0.47368  0.30704  0.57289  1.0000
  C   C454      1.0  0.47084  0.20523  0.55315  1.0000
  H   H773      1.0  0.46207  0.19671  0.55851  1.0000
  H   H774      1.0  0.42065  0.30766  0.58239  1.0000
  H   H775      1.0  0.37170  0.25885  0.68822  1.0000
  H   H776      1.0  0.29904  0.16877  0.54873  1.0000
  H   H777      1.0  0.01415  0.05012  0.70902  1.0000
  C   C455      1.0  0.34966  0.28766  0.53685  1.0000
  H   H778      1.0  0.45776  0.21587  0.49572  1.0000
  H   H779      1.0  0.37435  0.14358  0.49611  1.0000
  C   C456      1.0  0.06571  0.02188  0.67216  1.0000
  H   H780      1.0  0.19484  0.99831  0.57632  1.0000
  H   H781      1.0  0.17010  0.17184  0.49840  1.0000
  H   H782      1.0  0.31749  0.08832  0.49542  1.0000
  H   H783      1.0  0.39647  0.25933  0.64441  1.0000
  S   S105      1.0  0.38073  0.21108  0.50245  1.0000
  H   H784      1.0  0.05449  0.04750  0.66228  1.0000
  H   H785      1.0  0.46933  0.18648  0.53386  1.0000
  S   S106      1.0  0.43636  0.25270  0.50085  1.0000
  C   C457      1.0  0.31960  0.25699  0.53054  1.0000
  H   H786      1.0  0.45792  0.19506  0.50768  1.0000
  H   H787      1.0  0.18659  0.02063  0.66811  1.0000
  H   H788      1.0  0.34335  0.26606  0.50292  1.0000
  H   H789      1.0  0.33837  0.07304  0.53211  1.0000
  H   H790      1.0  0.11690  0.08185  0.50517  1.0000
  C   C458      1.0  0.47833  0.19468  0.52782  1.0000
  H   H791      1.0  0.22385  0.00174  0.54313  1.0000
  N   N26       1.0  0.33819  0.25046  0.52736  1.0000
  H   H792      1.0  0.29506  0.08150  0.51027  1.0000
  H   H793      1.0  0.43256  0.26981  0.56359  1.0000
  H   H794      1.0  0.47966  0.17350  0.57215  1.0000
  H   H795      1.0  0.35940  0.12019  0.52174  1.0000
  C   C459      1.0  0.16922  0.02059  0.58984  1.0000
  H   H796      1.0  0.27624  0.07710  0.50925  1.0000
  C   C460      1.0  0.20197  0.12837  0.49179  1.0000
  S   S107      1.0  0.32076  0.14455  0.48479  1.0000
  H   H797      1.0  0.21188  0.12073  0.49851  1.0000
  C   C461      1.0  0.34587  0.26010  0.53451  1.0000
  H   H798      1.0  0.31517  0.26175  0.54215  1.0000
  H   H799      1.0  0.30492  0.05170  0.52268  1.0000
  C   C462      1.0  0.29051  0.25357  0.53236  1.0000
  H   H800      1.0  0.08156  0.02804  0.63880  1.0000
  C   C463      1.0  0.34738  0.19436  0.48834  1.0000
  H   H801      1.0  0.47056  0.25929  0.58180  1.0000
  Fe  Fe58      1.0  0.30896  0.17057  0.48813  1.0000
  C   C464      1.0  0.35327  0.19663  0.51811  1.0000
  H   H802      1.0  0.45693  0.21527  0.52438  1.0000
  C   C465      1.0  0.46896  0.20989  0.51694  1.0000
  H   H803      1.0  0.16682  0.13725  0.53540  1.0000
  C   C466      1.0  0.33924  0.19105  0.51795  1.0000
  H   H804      1.0  0.34028  0.25928  0.54790  1.0000
  H   H805      1.0  0.39733  0.27199  0.54281  1.0000
  H   H806      1.0  0.47308  0.25571  0.56152  1.0000
  C   C467      1.0  0.46382  0.25932  0.57244  1.0000
  H   H807      1.0  0.34800  0.15758  0.51201  1.0000
  H   H808      1.0  0.21149  0.16432  0.51985  1.0000
  H   H809      1.0  0.14994  0.11742  0.55265  1.0000
  C   C468      1.0  0.20388  0.15866  0.50015  1.0000
  H   H810      1.0  0.45588  0.25012  0.57775  1.0000
  C   C469      1.0  0.46518  0.20495  0.50281  1.0000
  C   C470      1.0  0.45328  0.27655  0.56756  1.0000
  H   H811      1.0  0.33146  0.28488  0.52533  1.0000
  H   H812      1.0  0.40805  0.24374  0.65735  1.0000
  H   H813      1.0  0.20423  0.01246  0.61341  1.0000
  H   H814      1.0  0.37001  0.25340  0.66234  1.0000
  H   H815      1.0  0.38059  0.23509  0.67459  1.0000
  C   C471      1.0  0.18059  0.12257  0.51644  1.0000
  H   H816      1.0  0.19516  0.00891  0.54755  1.0000
  H   H817      1.0  0.35945  0.24841  0.50705  1.0000
  H   H818      1.0  0.44982  0.26886  0.54689  1.0000
  C   C472      1.0  0.22568  0.99966  0.55590  1.0000
  C   C473      1.0  0.16512  0.12794  0.52964  1.0000
  C   C474      1.0  0.17434  0.14686  0.49382  1.0000
  H   H819      1.0  0.38404  0.27062  0.67109  1.0000
  C   C475      1.0  0.01791  0.05428  0.69542  1.0000
  H   H820      1.0  0.07127  0.04948  0.63396  1.0000
  H   H821      1.0  0.42675  0.28528  0.51866  1.0000
  H   H822      1.0  0.01902  0.19448  0.72271  1.0000
  C   C476      1.0  0.29161  0.05699  0.52246  1.0000
  H   H823      1.0  0.31905  0.14832  0.51856  1.0000
  H   H824      1.0  0.48415  0.31052  0.51445  1.0000
  N   N27       1.0  0.43456  0.29344  0.54664  1.0000
  H   H825      1.0  0.46186  0.28506  0.56192  1.0000
  H   H826      1.0  0.08559  0.04628  0.72327  1.0000
  H   H827      1.0  0.47624  0.21965  0.51130  1.0000
  C   C477      1.0  0.48230  0.26658  0.50668  1.0000
  H   H828      1.0  0.47686  0.20049  0.49430  1.0000
  H   H829      1.0  0.42777  0.26789  0.53599  1.0000
  H   H830      1.0  0.15476  0.00324  0.72267  1.0000
  H   H831      1.0  0.35529  0.14911  0.53082  1.0000
  H   H832      1.0  0.44920  0.28931  0.52267  1.0000
  S   S108      1.0  0.38954  0.30190  0.64594  1.0000
  H   H833      1.0  0.47826  0.25211  0.53152  1.0000
  H   H834      1.0  0.05186  0.99894  0.67056  1.0000
  C   C478      1.0  0.02583  0.03942  0.68729  1.0000
  H   H835      1.0  0.15411  0.13304  0.52395  1.0000
  H   H836      1.0  0.28051  0.16135  0.55124  1.0000
  C   C479      1.0  0.25289  0.10405  0.48821  1.0000
  H   H837      1.0  0.17692  0.11433  0.51071  1.0000
  C   C480      1.0  0.19353  0.14613  0.51180  1.0000
  H   H838      1.0  0.36411  0.12376  0.54704  1.0000
  C   C481      1.0  0.36407  0.20183  0.50331  1.0000
  C   C482      1.0  0.29803  0.06718  0.49131  1.0000
  H   H839      1.0  0.17174  0.10805  0.55009  1.0000
  S   S109      1.0  0.15299  0.99797  0.61240  1.0000
  H   H840      1.0  0.28547  0.26025  0.54264  1.0000
  C   C483      1.0  0.42054  0.28036  0.53148  1.0000
  C   C484      1.0  0.34439  0.27879  0.52654  1.0000
  H   H841      1.0  0.04861  0.03719  0.69496  1.0000
  H   H842      1.0  0.41538  0.29146  0.57731  1.0000
  C   C485      1.0  0.16343  0.09673  0.49331  1.0000
  C   C486      1.0  0.34910  0.13115  0.52035  1.0000
  H   H843      1.0  0.28525  0.06072  0.53437  1.0000
  C   C487      1.0  0.44594  0.29874  0.53033  1.0000
  S   S110      1.0  0.37345  0.29433  0.61144  1.0000
  H   H844      1.0  0.24086  0.10057  0.49009  1.0000
  H   H845      1.0  0.40998  0.28793  0.55450  1.0000
  H   H846      1.0  0.31277  0.23772  0.52226  1.0000
  H   H847      1.0  0.39553  0.29073  0.52687  1.0000
  Fe  Fe59      1.0  0.39332  0.30140  0.61927  1.0000
  N   N28       1.0  0.05216  0.01530  0.68559  1.0000
  H   H848      1.0  0.18324  0.15294  0.51999  1.0000
  C   C488      1.0  0.49006  0.28161  0.58596  1.0000
  C   C489      1.0  0.16291  0.16230  0.50011  1.0000
  C   C490      1.0  0.33616  0.18989  0.50307  1.0000
  C   C491      1.0  0.40356  0.27847  0.53066  1.0000
  S   S111      1.0  0.31802  0.18298  0.50377  1.0000
  H   H849      1.0  0.15955  0.02273  0.58315  1.0000
  C   C492      1.0  0.04111  0.02870  0.69438  1.0000
  H   H850      1.0  0.15699  0.15930  0.51334  1.0000
  H   H851      1.0  0.34868  0.30095  0.53081  1.0000
  H   H852      1.0  0.19318  0.06139  0.49761  1.0000
  H   H853      1.0  0.03598  0.01701  0.66939  1.0000
  H   H854      1.0  0.13493  0.00291  0.72048  1.0000
  H   H855      1.0  0.39397  0.25216  0.68376  1.0000
  H   H856      1.0  0.13816  0.07106  0.50019  1.0000
  S   S112      1.0  0.28402  0.16419  0.50092  1.0000
  H   H857      1.0  0.03605  0.02339  0.70755  1.0000
  H   H858      1.0  0.34845  0.29146  0.59777  1.0000
  H   H859      1.0  0.29115  0.05815  0.49057  1.0000
  C   C493      1.0  0.38296  0.25794  0.67814  1.0000
  C   C494      1.0  0.20572  0.17096  0.50912  1.0000
  H   H860      1.0  0.19343  0.17873  0.51340  1.0000
  H   H861      1.0  0.21383  0.17919  0.50054  1.0000
  H   H862      1.0  0.22533  0.06802  0.48664  1.0000
  C   C495      1.0  0.34568  0.25277  0.50908  1.0000
  H   H863      1.0  0.33978  0.23104  0.50454  1.0000
  H   H864      1.0  0.48178  0.22023  0.56263  1.0000
  C   C496      1.0  0.49406  0.12217  0.68744  1.0000
  C   C497      1.0  0.46168  0.30708  0.58756  1.0000
  H   H865      1.0  0.00673  0.06151  0.69057  1.0000
  H   H866      1.0  0.12249  0.06603  0.49315  1.0000
  H   H867      1.0  0.26598  0.07916  0.48703  1.0000
  H   H868      1.0  0.08475  0.00720  0.69533  1.0000
  H   H869      1.0  0.16815  0.00211  0.56456  1.0000
  H   H870      1.0  0.14141  0.18143  0.49479  1.0000
  H   H871      1.0  0.02254  0.00475  0.69987  1.0000
  C   C498      1.0  0.14917  0.17017  0.49041  1.0000
  H   H872      1.0  0.06694  0.99177  0.72984  1.0000
  H   H873      1.0  0.10982  0.12355  0.48614  1.0000
  H   H874      1.0  0.46181  0.30915  0.53976  1.0000
  H   H875      1.0  0.21895  0.99405  0.58779  1.0000
  H   H876      1.0  0.15359  0.99109  0.69416  1.0000
  H   H877      1.0  0.03141  0.10921  0.72752  1.0000
  H   H878      1.0  0.17219  0.98994  0.70090  1.0000
  H   H879      1.0  0.11405  0.15060  0.48715  1.0000
  H   H880      1.0  0.02600  0.13825  0.72952  1.0000
  C   C499      1.0  0.03049  0.99760  0.69061  1.0000
  H   H881      1.0  0.08708  0.99696  0.72400  1.0000
  H   H882      1.0  0.99921  0.20659  0.73078  1.0000
  C   C500      1.0  0.00592  0.19400  0.72889  1.0000
  Fe  Fe60      1.0  0.14474  0.98970  0.63995  1.0000
  H   H883      1.0  0.14386  0.02687  0.73113  1.0000
  H   H884      1.0  0.00002  0.19035  0.72079  1.0000
  H   H885      1.0  0.42615  0.31915  0.54849  1.0000
  H   H886      1.0  0.00206  0.99334  0.72355  1.0000
  C   C501      1.0  0.31728  0.09638  0.48306  1.0000
  C   C502      1.0  0.49478  0.10698  0.69885  1.0000
  C   C503      1.0  0.17596  0.99512  0.55503  1.0000
  Fe  Fe61      1.0  0.05211  0.05141  0.73263  1.0000
  H   H887      1.0  0.04538  0.27812  0.78756  1.0000
  H   H888      1.0  0.05496  0.21191  0.78296  1.0000
  C   C504      1.0  0.15742  0.26198  0.92242  1.0000
  Fe  Fe62      1.0  0.14048  0.28725  0.96718  1.0000
  C   C505      1.0  0.15340  0.23185  0.87944  1.0000
  S   S113      1.0  0.12767  0.26795  0.96458  1.0000
  H   H889      1.0  0.10014  0.29580  0.97364  1.0000
  C   C506      1.0  0.08917  0.00437  0.78337  1.0000
  S   S114      1.0  0.16332  0.29483  0.94966  1.0000
  C   C507      1.0  0.00704  0.21967  0.80446  1.0000
  Fe  Fe63      1.0  0.06061  0.25356  0.91672  1.0000
  S   S115      1.0  0.07228  0.24621  0.89221  1.0000
  S   S116      1.0  0.07306  0.26948  0.92548  1.0000
  Fe  Fe64      1.0  0.02775  0.24371  0.91762  1.0000
  S   S117      1.0  0.03719  0.23618  0.89329  1.0000
  H   H890      1.0  0.02673  0.23543  0.82734  1.0000
  Fe  Fe65      1.0  0.06045  0.22417  0.90255  1.0000
  S   S118      1.0  0.07428  0.19908  0.89762  1.0000
  Fe  Fe66      1.0  0.04802  0.25883  0.88517  1.0000
  S   S119      1.0  0.04721  0.27535  0.86023  1.0000
  S   S120      1.0  0.05062  0.23015  0.92786  1.0000
  S   S121      1.0  0.03668  0.26762  0.90873  1.0000
  Fe  Fe67      1.0  0.05248  0.16780  0.82987  1.0000
  S   S122      1.0  0.05026  0.16653  0.80483  1.0000
  S   S123      1.0  0.07271  0.17855  0.83257  1.0000
  Fe  Fe68      1.0  0.02405  0.15133  0.84716  1.0000
  S   S124      1.0  0.01905  0.14850  0.82399  1.0000
  H   H891      1.0  0.06222  0.22228  0.84736  1.0000
  Fe  Fe69      1.0  0.04653  0.14063  0.81633  1.0000
  S   S125      1.0  0.05862  0.12087  0.80116  1.0000
  Fe  Fe70      1.0  0.02287  0.17442  0.81394  1.0000
  H   H892      1.0  0.24736  0.31130  0.90573  1.0000
  S   S126      1.0  0.05141  0.14110  0.84063  1.0000
  S   S127      1.0  0.02534  0.17811  0.83787  1.0000
  H   H893      1.0  0.10129  0.23760  0.84140  1.0000
  S   S128      1.0  0.06195  0.02479  0.74319  1.0000
  Fe  Fe71      1.0  0.03630  0.02532  0.75863  1.0000
  H   H894      1.0  0.01701  0.04734  0.81578  1.0000
  H   H895      1.0  0.06356  0.21308  0.82251  1.0000
  Fe  Fe72      1.0  0.03403  0.05959  0.76571  1.0000
  H   H896      1.0  0.15525  0.24328  0.90365  1.0000
  S   S129      1.0  0.01929  0.07897  0.78075  1.0000
  H   H897      1.0  0.03711  0.28867  0.80461  1.0000
  Fe  Fe73      1.0  0.06670  0.03468  0.76255  1.0000
  S   S130      1.0  0.09002  0.02454  0.77230  1.0000
  C   C508      1.0  0.00387  0.19216  0.87536  1.0000
  S   S131      1.0  0.04174  0.03338  0.77908  1.0000
  C   C509      1.0  0.04690  0.11019  0.79528  1.0000
  C   C510      1.0  0.05364  0.10378  0.78096  1.0000
  C   C511      1.0  0.04528  0.09425  0.77639  1.0000
  C   C512      1.0  0.03000  0.09113  0.78605  1.0000
  C   C513      1.0  0.02296  0.09807  0.80005  1.0000
  C   C514      1.0  0.03143  0.10745  0.80474  1.0000
  H   H898      1.0  0.06551  0.10601  0.77348  1.0000
  H   H899      1.0  0.05067  0.08939  0.76536  1.0000
  H   H900      1.0  0.01101  0.09598  0.80747  1.0000
  H   H901      1.0  0.02609  0.11235  0.81580  1.0000
  H   H902      1.0  0.00262  0.13461  0.75658  1.0000
  C   C515      1.0  0.07566  0.99783  0.78412  1.0000
  H   H903      1.0  0.09457  0.00153  0.82702  1.0000
  H   H904      1.0  0.99893  0.24619  0.76203  1.0000
  H   H905      1.0  0.03265  0.15379  0.89079  1.0000
  H   H906      1.0  0.16601  0.26880  0.91253  1.0000
  H   H907      1.0  0.29893  0.28255  0.96712  1.0000
  C   C516      1.0  0.06190  0.23484  0.83932  1.0000
  C   C517      1.0  0.01377  0.16386  0.74345  1.0000
  H   H908      1.0  0.02457  0.10292  0.74946  1.0000
  C   C518      1.0  0.01569  0.13443  0.75661  1.0000
  H   H909      1.0  0.02335  0.28523  0.79390  1.0000
  H   H910      1.0  0.08747  0.22538  0.85616  1.0000
  H   H911      1.0  0.09743  0.21344  0.91386  1.0000
  H   H912      1.0  0.06065  0.25687  0.80695  1.0000
  C   C519      1.0  0.02649  0.28106  0.85850  1.0000
  C   C520      1.0  0.01413  0.27634  0.87203  1.0000
  H   H913      1.0  0.00534  0.22924  0.85718  1.0000
  H   H914      1.0  0.99998  0.23009  0.90391  1.0000
  H   H915      1.0  0.00280  0.29898  0.82990  1.0000
  C   C521      1.0  0.02235  0.28938  0.84332  1.0000
  H   H916      1.0  0.01721  0.26990  0.88379  1.0000
  H   H917      1.0  0.13687  0.04841  0.74719  1.0000
  H   H918      1.0  0.03192  0.29305  0.83287  1.0000
  C   C522      1.0  0.07223  0.18397  0.85110  1.0000
  C   C523      1.0  0.08734  0.18237  0.85532  1.0000
  C   C524      1.0  0.08774  0.18704  0.86957  1.0000
  C   C525      1.0  0.07308  0.19413  0.87940  1.0000
  C   C526      1.0  0.05788  0.19621  0.87502  1.0000
  C   C527      1.0  0.05743  0.19079  0.86106  1.0000
  H   H919      1.0  0.09883  0.17720  0.84766  1.0000
  H   H920      1.0  0.09950  0.18526  0.87290  1.0000
  H   H921      1.0  0.04651  0.20168  0.88257  1.0000
  H   H922      1.0  0.04575  0.19220  0.85774  1.0000
  H   H923      1.0  0.03676  0.13881  0.77189  1.0000
  H   H924      1.0  0.08156  0.24775  0.85202  1.0000
  C   C528      1.0  0.11245  0.26872  0.95361  1.0000
  C   C529      1.0  0.10596  0.28316  0.94313  1.0000
  C   C530      1.0  0.09384  0.28313  0.93481  1.0000
  C   C531      1.0  0.08822  0.26863  0.93657  1.0000
  C   C532      1.0  0.09477  0.25417  0.94700  1.0000
  C   C533      1.0  0.10674  0.25426  0.95549  1.0000
  H   H925      1.0  0.11033  0.29433  0.94137  1.0000
  H   H926      1.0  0.08888  0.29441  0.92680  1.0000
  H   H927      1.0  0.09054  0.24294  0.94863  1.0000
  H   H928      1.0  0.11166  0.24300  0.96355  1.0000
  H   H929      1.0  0.07292  0.22893  0.80829  1.0000
  H   H930      1.0  0.06206  0.19953  0.80120  1.0000
  H   H931      1.0  0.03842  0.17919  0.93415  1.0000
  N   N29       1.0  0.07172  0.05185  0.81311  1.0000
  C   C534      1.0  0.05326  0.05570  0.81999  1.0000
  C   C535      1.0  0.08014  0.05819  0.82269  1.0000
  C   C536      1.0  0.07501  0.06009  0.79506  1.0000
  C   C537      1.0  0.07847  0.03349  0.81458  1.0000
  C   C538      1.0  0.07425  0.02248  0.83202  1.0000
  C   C539      1.0  0.04263  0.04850  0.81287  1.0000
  C   C540      1.0  0.09345  0.06002  0.78646  1.0000
  C   C541      1.0  0.07595  0.07727  0.82102  1.0000
  C   C542      1.0  0.08593  0.08238  0.83035  1.0000
  H   H932      1.0  0.27356  0.30241  0.96084  1.0000
  C   C543      1.0  0.02439  0.05195  0.82168  1.0000
  C   C544      1.0  0.09505  0.06867  0.76827  1.0000
  H   H933      1.0  0.04832  0.06932  0.81752  1.0000
  H   H934      1.0  0.05045  0.05166  0.83368  1.0000
  H   H935      1.0  0.07671  0.05278  0.83610  1.0000
  H   H936      1.0  0.09387  0.05396  0.81930  1.0000
  H   H937      1.0  0.06808  0.07309  0.79326  1.0000
  H   H938      1.0  0.07011  0.05416  0.78790  1.0000
  H   H939      1.0  0.07425  0.02886  0.80586  1.0000
  H   H940      1.0  0.09223  0.03082  0.81068  1.0000
  H   H941      1.0  0.06066  0.02423  0.83692  1.0000
  H   H942      1.0  0.07994  0.02534  0.84077  1.0000
  H   H943      1.0  0.04334  0.05437  0.79963  1.0000
  H   H944      1.0  0.04679  0.03493  0.81413  1.0000
  H   H945      1.0  0.10088  0.04721  0.78705  1.0000
  H   H946      1.0  0.09906  0.06662  0.79223  1.0000
  H   H947      1.0  0.07877  0.08393  0.80798  1.0000
  H   H948      1.0  0.06262  0.08176  0.82621  1.0000
  H   H949      1.0  0.09945  0.07877  0.82525  1.0000
  H   H950      1.0  0.08256  0.09605  0.82899  1.0000
  H   H951      1.0  0.08312  0.07658  0.84370  1.0000
  H   H952      1.0  0.15130  0.22239  0.89101  1.0000
  H   H953      1.0  0.10824  0.06904  0.76252  1.0000
  H   H954      1.0  0.06068  0.13658  0.88599  1.0000
  H   H955      1.0  0.00621  0.24290  0.81027  1.0000
  C   C545      1.0  0.00509  0.18183  0.74557  1.0000
  H   H956      1.0  0.00270  0.19158  0.92799  1.0000
  H   H957      1.0  0.28094  0.32156  0.89052  1.0000
  H   H958      1.0  0.09068  0.06186  0.76157  1.0000
  H   H959      1.0  0.08769  0.08157  0.76697  1.0000
  C   C546      1.0  0.15586  0.22386  0.86486  1.0000
  H   H960      1.0  0.16516  0.23554  0.87852  1.0000
  Fe  Fe74      1.0  0.17396  0.29068  0.97206  1.0000
  H   H961      1.0  0.10195  0.29614  0.87310  1.0000
  C   C547      1.0  0.02619  0.99126  0.74997  1.0000
  H   H962      1.0  0.10963  0.21380  0.92782  1.0000
  H   H963      1.0  0.03111  0.25527  0.80371  1.0000
  H   H964      1.0  0.01950  0.15047  0.93849  1.0000
  C   C548      1.0  0.26572  0.28691  0.94882  1.0000
  H   H965      1.0  0.09270  0.23102  0.92318  1.0000
  H   H966      1.0  0.23351  0.26225  0.92244  1.0000
  H   H967      1.0  0.29532  0.26805  0.95751  1.0000
  H   H968      1.0  0.13379  0.25565  0.92678  1.0000
  H   H969      1.0  0.27221  0.27610  0.94309  1.0000
  C   C549      1.0  0.10486  0.27023  0.88607  1.0000
  C   C550      1.0  0.10297  0.22151  0.91801  1.0000
  H   H970      1.0  0.13248  0.23155  0.91601  1.0000
  H   H971      1.0  0.23255  0.26189  0.98004  1.0000
  C   C551      1.0  0.03550  0.16412  0.91065  1.0000
  H   H972      1.0  0.03016  0.16815  0.77558  1.0000
  C   C552      1.0  0.01374  0.18907  0.88857  1.0000
  H   H973      1.0  0.07450  0.30835  0.96180  1.0000
  H   H974      1.0  0.04990  0.26359  0.82537  1.0000
  H   H975      1.0  0.02283  0.26557  0.82055  1.0000
  H   H976      1.0  0.12565  0.03578  0.76461  1.0000
  H   H977      1.0  0.10365  0.99704  0.74823  1.0000
  C   C553      1.0  0.12354  0.24049  0.90882  1.0000
  C   C554      1.0  0.11485  0.22974  0.90338  1.0000
  H   H978      1.0  0.06157  0.15777  0.88372  1.0000
  H   H979      1.0  0.03714  0.21932  0.84078  1.0000
  C   C555      1.0  0.02098  0.19835  0.94510  1.0000
  H   H980      1.0  0.28093  0.27347  0.97597  1.0000
  C   C556      1.0  0.08806  0.23686  0.84641  1.0000
  H   H981      1.0  0.07426  0.21349  0.78648  1.0000
  H   H982      1.0  0.05142  0.23741  0.79246  1.0000
  H   H983      1.0  0.03927  0.22333  0.80709  1.0000
  H   H984      1.0  0.10766  0.23694  0.89394  1.0000
  H   H985      1.0  0.08763  0.22604  0.82694  1.0000
  H   H986      1.0  0.06616  0.00484  0.77744  1.0000
  H   H987      1.0  0.00747  0.20201  0.95026  1.0000
  C   C557      1.0  0.03505  0.27985  0.79841  1.0000
  C   C558      1.0  0.05803  0.14666  0.89274  1.0000
  H   H988      1.0  0.15358  0.26348  0.89077  1.0000
  C   C559      1.0  0.02713  0.12860  0.74091  1.0000
  H   H989      1.0  0.01290  0.32135  0.86917  1.0000
  H   H990      1.0  0.09041  0.29279  0.89431  1.0000
  H   H991      1.0  0.02060  0.17276  0.94873  1.0000
  H   H992      1.0  0.07501  0.00053  0.82346  1.0000
  C   C560      1.0  0.12982  0.00950  0.74953  1.0000
  C   C561      1.0  0.00998  0.15812  0.93133  1.0000
  H   H993      1.0  0.07798  0.99648  0.84421  1.0000
  C   C562      1.0  0.00756  0.24187  0.85471  1.0000
  C   C563      1.0  0.13891  0.24729  0.87925  1.0000
  H   H994      1.0  0.05904  0.15093  0.77534  1.0000
  C   C564      1.0  0.04974  0.25541  0.81734  1.0000
  H   H995      1.0  0.12407  0.00787  0.76288  1.0000
  C   C565      1.0  0.23811  0.31412  0.96131  1.0000
  N   N30       1.0  0.13203  0.25286  0.89542  1.0000
  H   H996      1.0  0.10826  0.26585  0.87439  1.0000
  S   S132      1.0  0.00833  0.14441  0.87225  1.0000
  H   H997      1.0  0.16413  0.99295  0.74691  1.0000
  H   H998      1.0  0.99991  0.16442  0.94030  1.0000
  C   C566      1.0  0.00096  0.23885  0.77396  1.0000
  C   C567      1.0  0.00242  0.24653  0.78573  1.0000
  C   C568      1.0  0.08016  0.23669  0.83253  1.0000
  H   H999      1.0  0.16393  0.24897  0.92625  1.0000
  H   H1000     1.0  0.15383  0.26786  0.93324  1.0000
  H   H1001     1.0  0.00790  0.01067  0.73927  1.0000
  H   H1002     1.0  0.04222  0.15890  0.92091  1.0000
  H   H1003     1.0  0.02779  0.19612  0.95504  1.0000
  C   C569      1.0  0.08089  0.00416  0.83160  1.0000
  H   H1004     1.0  0.08098  0.24833  0.82312  1.0000
  H   H1005     1.0  0.05612  0.24363  0.84773  1.0000
  H   H1006     1.0  0.02767  0.25434  0.84745  1.0000
  C   C570      1.0  0.28916  0.27823  0.96420  1.0000
  H   H1007     1.0  0.01946  0.06545  0.82074  1.0000
  H   H1008     1.0  0.00906  0.20078  0.86425  1.0000
  H   H1009     1.0  0.00172  0.24697  0.86597  1.0000
  H   H1010     1.0  0.00992  0.14029  0.91683  1.0000
  H   H1011     1.0  0.02153  0.19543  0.91409  1.0000
  C   C571      1.0  0.08876  0.30200  0.98144  1.0000
  H   H1012     1.0  0.22089  0.28263  0.92357  1.0000
  H   H1013     1.0  0.25427  0.26784  0.93435  1.0000
  C   C572      1.0  0.00518  0.23697  0.80113  1.0000
  H   H1014     1.0  0.01582  0.14079  0.79397  1.0000
  C   C573      1.0  0.00204  0.22175  0.77756  1.0000
  S   S133      1.0  0.05950  0.06130  0.75050  1.0000
  C   C574      1.0  0.23013  0.27241  0.92920  1.0000
  H   H1015     1.0  0.11419  0.24697  0.91804  1.0000
  C   C575      1.0  0.02474  0.18269  0.93838  1.0000
  H   H1016     1.0  0.05873  0.17264  0.76716  1.0000
  C   C576      1.0  0.06073  0.22592  0.81515  1.0000
  N   N31       1.0  0.05165  0.23756  0.82663  1.0000
  C   C577      1.0  0.14641  0.25530  0.90090  1.0000
  H   H1017     1.0  0.27333  0.29176  0.91639  1.0000
  H   H1018     1.0  0.06459  0.15864  0.75334  1.0000
  H   H1019     1.0  0.25751  0.28180  0.96047  1.0000
  H   H1020     1.0  0.15826  0.23292  0.85300  1.0000
  H   H1021     1.0  0.13543  0.27584  0.91398  1.0000
  S   S134      1.0  0.02581  0.05157  0.74673  1.0000
  H   H1022     1.0  0.01908  0.12432  0.76709  1.0000
  C   C578      1.0  0.03528  0.23292  0.83574  1.0000
  H   H1023     1.0  0.28808  0.29751  0.94253  1.0000
  H   H1024     1.0  0.02288  0.04559  0.83489  1.0000
  H   H1025     1.0  0.08341  0.28794  0.87863  1.0000
  H   H1026     1.0  0.11511  0.27398  0.90427  1.0000
  H   H1027     1.0  0.14694  0.99832  0.77452  1.0000
  C   C579      1.0  0.13998  0.02319  0.74475  1.0000
  H   H1028     1.0  0.16667  0.21324  0.86505  1.0000
  C   C580      1.0  0.12952  0.03865  0.75094  1.0000
  C   C581      1.0  0.03803  0.16465  0.76399  1.0000
  H   H1029     1.0  0.00170  0.24990  0.84443  1.0000
  H   H1030     1.0  0.04161  0.17436  0.90281  1.0000
  H   H1031     1.0  0.11927  0.01476  0.74316  1.0000
  H   H1032     1.0  0.09670  0.26271  0.89553  1.0000
  C   C582      1.0  0.27919  0.29262  0.95360  1.0000
  H   H1033     1.0  0.35650  0.29169  0.97593  1.0000
  H   H1034     1.0  0.23416  0.28905  0.94965  1.0000
  H   H1035     1.0  0.03125  0.23468  0.86144  1.0000
  C   C583      1.0  0.09461  0.28790  0.88282  1.0000
  C   C584      1.0  0.14188  0.26264  0.91654  1.0000
  C   C585      1.0  0.00181  0.14620  0.92697  1.0000
  C   C586      1.0  0.10175  0.99482  0.79162  1.0000
  C   C587      1.0  0.02608  0.24147  0.85037  1.0000
  H   H1036     1.0  0.04351  0.14573  0.75046  1.0000
  H   H1037     1.0  0.14355  0.25746  0.86942  1.0000
  H   H1038     1.0  0.12908  0.24477  0.87474  1.0000
  C   C588      1.0  0.00740  0.17634  0.90395  1.0000
  C   C589      1.0  0.03956  0.15034  0.90082  1.0000
  C   C590      1.0  0.05620  0.16146  0.76502  1.0000
  C   C591      1.0  0.07819  0.31462  0.96953  1.0000
  C   C592      1.0  0.24566  0.27842  0.92833  1.0000
  C   C593      1.0  0.05194  0.22560  0.80176  1.0000
  H   H1039     1.0  0.03669  0.13873  0.90926  1.0000
  H   H1040     1.0  0.14471  0.21919  0.86566  1.0000
  N   N32       1.0  0.01736  0.17078  0.91723  1.0000
  H   H1041     1.0  0.12420  0.21978  0.89802  1.0000
  H   H1042     1.0  0.06574  0.14271  0.90218  1.0000
  C   C594      1.0  0.01486  0.99807  0.73963  1.0000
  H   H1043     1.0  0.02495  0.20869  0.93516  1.0000
  C   C595      1.0  0.00590  0.29259  0.84161  1.0000
  C   C596      1.0  0.01603  0.18578  0.92386  1.0000
  H   H1044     1.0  0.01252  0.20115  0.89159  1.0000
  H   H1045     1.0  0.00256  0.13023  0.78936  1.0000
  H   H1046     1.0  0.03632  0.17514  0.75340  1.0000
  H   H1047     1.0  0.02685  0.18437  0.88306  1.0000
  H   H1048     1.0  0.15121  0.01906  0.75007  1.0000
  S   S135      1.0  0.02659  0.00163  0.76500  1.0000
  C   C597      1.0  0.12027  0.26950  0.89256  1.0000
  C   C598      1.0  0.06145  0.21179  0.79256  1.0000
  C   C599      1.0  0.03375  0.26327  0.81037  1.0000
  H   H1049     1.0  0.08028  0.28066  0.97261  1.0000
  C   C600      1.0  0.03406  0.14917  0.76136  1.0000
  H   H1050     1.0  0.12708  0.27890  0.88387  1.0000
  H   H1051     1.0  0.11826  0.04349  0.74559  1.0000
  H   H1052     1.0  0.02563  0.16434  0.73411  1.0000
  C   C601      1.0  0.00401  0.14238  0.79020  1.0000
  H   H1053     1.0  0.00997  0.11593  0.73709  1.0000
  H   H1054     1.0  0.22438  0.26760  0.94224  1.0000
  H   H1055     1.0  0.43915  0.25584  0.97284  1.0000
  S   S136      1.0  0.00136  0.24297  0.93204  1.0000
  S   S137      1.0  0.20081  0.27749  0.97189  1.0000
  H   H1056     1.0  0.25154  0.28196  0.91510  1.0000
  C   C602      1.0  0.00538  0.21208  0.79267  1.0000
  N   N33       1.0  0.01685  0.15092  0.75887  1.0000
  H   H1057     1.0  0.40896  0.26579  0.97793  1.0000
  Fe  Fe75      1.0  0.15170  0.32006  0.95511  1.0000
  H   H1058     1.0  0.00069  0.21595  0.76844  1.0000
  H   H1059     1.0  0.24460  0.30472  0.97038  1.0000
  S   S138      1.0  0.00650  0.19070  0.79663  1.0000
  H   H1060     1.0  0.23204  0.30320  0.93088  1.0000
  C   C603      1.0  0.24120  0.29322  0.93692  1.0000
  S   S139      1.0  0.12812  0.31303  0.97095  1.0000
  C   C604      1.0  0.26672  0.30343  0.92064  1.0000
  H   H1061     1.0  0.04032  0.12518  0.74199  1.0000
  C   C605      1.0  0.25808  0.31546  0.90691  1.0000
  H   H1062     1.0  0.00693  0.16572  0.89923  1.0000
  S   S140      1.0  0.00199  0.26784  0.78044  1.0000
  N   N34       1.0  0.25564  0.29980  0.93750  1.0000
  H   H1063     1.0  0.11209  0.99991  0.79132  1.0000
  H   H1064     1.0  0.00890  0.12473  0.94599  1.0000
  C   C606      1.0  0.99749  0.13251  0.94189  1.0000
  H   H1065     1.0  0.00954  0.21224  0.81619  1.0000
  H   H1066     1.0  0.00557  0.16038  0.73744  1.0000
  C   C607      1.0  0.99767  0.27982  0.87037  1.0000
  H   H1067     1.0  0.01057  0.18632  0.75333  1.0000
  H   H1068     1.0  0.09947  0.32094  0.95030  1.0000
  N   N35       1.0  0.13917  0.99309  0.74537  1.0000
  H   H1069     1.0  0.22635  0.31079  0.96170  1.0000
  H   H1070     1.0  0.99621  0.31029  0.87714  1.0000
  C   C608      1.0  0.27016  0.31691  0.89014  1.0000
  H   H1071     1.0  0.06470  0.25968  0.97121  1.0000
  H   H1072     1.0  0.00483  0.18046  0.87170  1.0000
  C   C609      1.0  0.02295  0.11325  0.73865  1.0000
  H   H1073     1.0  0.00412  0.16699  0.77614  1.0000
  C   C610      1.0  0.24898  0.31564  0.94364  1.0000
  H   H1074     1.0  0.27464  0.30473  0.88653  1.0000
  S   S141      1.0  0.30369  0.31959  0.96022  1.0000
  C   C611      1.0  0.00361  0.15514  0.77365  1.0000
  H   H1075     1.0  0.27671  0.30915  0.92118  1.0000
  S   S142      1.0  0.16398  0.31656  0.97610  1.0000
  H   H1076     1.0  0.24184  0.42708  0.02399  1.0000
  C   C612      1.0  0.05284  0.60926  0.14014  1.0000
  H   H1077     1.0  0.28127  0.39681  0.99580  1.0000
  H   H1078     1.0  0.48888  0.38538  0.18723  1.0000
  H   H1079     1.0  0.11713  0.40322  0.18186  1.0000
  S   S143      1.0  0.43918  0.33500  0.15099  1.0000
  Fe  Fe76      1.0  0.17703  0.40384  0.03844  1.0000
  S   S144      1.0  0.17771  0.37791  0.03736  1.0000
  S   S145      1.0  0.19175  0.42133  0.01961  1.0000
  Fe  Fe77      1.0  0.15306  0.40232  0.07219  1.0000
  S   S146      1.0  0.15141  0.37614  0.07405  1.0000
  S   S147      1.0  0.13958  0.41830  0.09092  1.0000
  Fe  Fe78      1.0  0.17889  0.37219  0.06415  1.0000
  S   S148      1.0  0.19709  0.35048  0.07458  1.0000
  Fe  Fe79      1.0  0.15024  0.38394  0.04716  1.0000
  S   S149      1.0  0.13099  0.37847  0.03703  1.0000
  S   S150      1.0  0.18060  0.39762  0.06443  1.0000
  S   S151      1.0  0.14936  0.41063  0.04613  1.0000
  H   H1080     1.0  0.48865  0.33035  0.11137  1.0000
  N   N36       1.0  0.12419  0.39870  0.15696  1.0000
  S   S152      1.0  0.06609  0.53442  0.17929  1.0000
  H   H1081     1.0  0.10361  0.41668  0.14834  1.0000
  H   H1082     1.0  0.11405  0.45927  0.22850  1.0000
  H   H1083     1.0  0.10780  0.45692  0.15283  1.0000
  C   C613      1.0  0.09639  0.56866  0.14472  1.0000
  C   C614      1.0  0.01382  0.62262  0.19600  1.0000
  S   S153      1.0  0.06963  0.56562  0.20327  1.0000
  Fe  Fe80      1.0  0.14953  0.48502  0.16286  1.0000
  S   S154      1.0  0.17536  0.46949  0.16147  1.0000
  S   S155      1.0  0.14380  0.51267  0.15615  1.0000
  Fe  Fe81      1.0  0.13331  0.45592  0.17934  1.0000
  S   S156      1.0  0.15775  0.43807  0.17969  1.0000
  S   S157      1.0  0.10829  0.44952  0.18978  1.0000
  Fe  Fe82      1.0  0.16522  0.45741  0.18761  1.0000
  S   S158      1.0  0.17826  0.45027  0.20896  1.0000
  Fe  Fe83      1.0  0.16513  0.45182  0.15364  1.0000
  S   S159      1.0  0.17883  0.43685  0.13404  1.0000
  S   S160      1.0  0.14013  0.47400  0.18934  1.0000
  S   S161      1.0  0.14011  0.46861  0.15288  1.0000
  H   H1084     1.0  0.01488  0.56055  0.18591  1.0000
  H   H1085     1.0  0.13751  0.42791  0.99552  1.0000
  H   H1086     1.0  0.05343  0.64172  0.12171  1.0000
  S   S162      1.0  0.26453  0.35538  0.02353  1.0000
  N   N37       1.0  0.05184  0.59626  0.15599  1.0000
  H   H1087     1.0  0.30640  0.35794  0.06753  1.0000
  C   C615      1.0  0.12429  0.40691  0.22066  1.0000
  H   H1088     1.0  0.09285  0.55784  0.14293  1.0000
  H   H1089     1.0  0.25334  0.38376  0.07598  1.0000
  H   H1090     1.0  0.16437  0.53584  0.22353  1.0000
  C   C616      1.0  0.10900  0.43217  0.20603  1.0000
  C   C617      1.0  0.31053  0.35945  0.01762  1.0000
  H   H1091     1.0  0.27343  0.33867  0.08112  1.0000
  H   H1092     1.0  0.22580  0.33126  0.01735  1.0000
  C   C618      1.0  0.01641  0.60636  0.20526  1.0000
  C   C619      1.0  0.48919  0.32358  0.08851  1.0000
  H   H1093     1.0  0.19067  0.32557  0.02594  1.0000
  H   H1094     1.0  0.10480  0.33548  0.03533  1.0000
  H   H1095     1.0  0.48716  0.38358  0.13081  1.0000
  H   H1096     1.0  0.14473  0.39233  0.18121  1.0000
  C   C620      1.0  0.19557  0.40898  0.99193  1.0000
  H   H1097     1.0  0.10120  0.39904  0.17535  1.0000
  H   H1098     1.0  0.13937  0.53758  0.19435  1.0000
  H   H1099     1.0  0.29432  0.33644  0.04033  1.0000
  C   C621      1.0  0.08768  0.52866  0.17251  1.0000
  C   C622      1.0  0.09432  0.51826  0.16123  1.0000
  C   C623      1.0  0.11160  0.51320  0.15627  1.0000
  C   C624      1.0  0.12222  0.51907  0.16207  1.0000
  C   C625      1.0  0.11555  0.52964  0.17312  1.0000
  C   C626      1.0  0.09834  0.53412  0.17863  1.0000
  H   H1100     1.0  0.08614  0.51387  0.15659  1.0000
  H   H1101     1.0  0.11673  0.50492  0.14780  1.0000
  H   H1102     1.0  0.12370  0.53406  0.17774  1.0000
  H   H1103     1.0  0.06215  0.57241  0.14900  1.0000
  C   C627      1.0  0.15068  0.42313  0.10293  1.0000
  C   C628      1.0  0.14336  0.43642  0.11087  1.0000
  C   C629      1.0  0.15164  0.44044  0.12082  1.0000
  C   C630      1.0  0.16749  0.43136  0.12270  1.0000
  C   C631      1.0  0.17484  0.41807  0.11473  1.0000
  C   C632      1.0  0.16644  0.41390  0.10496  1.0000
  H   H1104     1.0  0.13124  0.44370  0.10922  1.0000
  H   H1105     1.0  0.14594  0.45086  0.12665  1.0000
  H   H1106     1.0  0.18709  0.41096  0.11613  1.0000
  H   H1107     1.0  0.17213  0.40349  0.09908  1.0000
  C   C633      1.0  0.13167  0.35977  0.03173  1.0000
  C   C634      1.0  0.14573  0.35145  0.02201  1.0000
  H   H1108     1.0  0.47448  0.40907  0.20868  1.0000
  C   C635      1.0  0.32703  0.33724  0.06703  1.0000
  H   H1109     1.0  0.32350  0.35214  0.01590  1.0000
  C   C636      1.0  0.11694  0.35401  0.03620  1.0000
  H   H1110     1.0  0.15712  0.35592  0.01838  1.0000
  H   H1111     1.0  0.48459  0.35910  0.18379  1.0000
  H   H1112     1.0  0.10598  0.36045  0.04351  1.0000
  C   C637      1.0  0.21661  0.35264  0.06218  1.0000
  C   C638      1.0  0.21826  0.36718  0.05029  1.0000
  C   C639      1.0  0.23330  0.36831  0.03901  1.0000
  C   C640      1.0  0.24659  0.35467  0.03917  1.0000
  C   C641      1.0  0.24516  0.34034  0.05145  1.0000
  C   C642      1.0  0.23027  0.33940  0.06313  1.0000
  H   H1113     1.0  0.20784  0.37741  0.04930  1.0000
  H   H1114     1.0  0.23419  0.37946  0.02969  1.0000
  H   H1115     1.0  0.10799  0.57069  0.13559  1.0000
  C   C643      1.0  0.14270  0.39642  0.15526  1.0000
  C   C644      1.0  0.49253  0.37048  0.13587  1.0000
  H   H1116     1.0  0.46863  0.42627  0.21872  1.0000
  H   H1117     1.0  0.48379  0.32960  0.07749  1.0000
  H   H1118     1.0  0.07845  0.59929  0.16955  1.0000
  H   H1119     1.0  0.10644  0.48228  0.20576  1.0000
  C   C645      1.0  0.19152  0.42297  0.99885  1.0000
  H   H1120     1.0  0.08139  0.58723  0.12941  1.0000
  H   H1121     1.0  0.17582  0.41764  0.22975  1.0000
  C   C646      1.0  0.43259  0.33345  0.13383  1.0000
  C   C647      1.0  0.42130  0.34692  0.12705  1.0000
  C   C648      1.0  0.41561  0.34651  0.11344  1.0000
  C   C649      1.0  0.20482  0.33360  0.03817  1.0000
  H   H1122     1.0  0.15472  0.49237  0.20352  1.0000
  H   H1123     1.0  0.41714  0.35791  0.13218  1.0000
  H   H1124     1.0  0.40724  0.35725  0.10806  1.0000
  H   H1125     1.0  0.06844  0.45944  0.20031  1.0000
  C   C650      1.0  0.06529  0.61736  0.18387  1.0000
  H   H1126     1.0  0.17821  0.50254  0.18247  1.0000
  C   C651      1.0  0.11679  0.41590  0.14847  1.0000
  C   C652      1.0  0.03876  0.62509  0.13993  1.0000
  S   S163      1.0  0.03278  0.59936  0.21578  1.0000
  H   H1127     1.0  0.11225  0.42835  0.16902  1.0000
  H   H1128     1.0  0.06970  0.61923  0.15786  1.0000
  H   H1129     1.0  0.24894  0.36332  0.08348  1.0000
  H   H1130     1.0  0.13420  0.42052  0.19684  1.0000
  H   H1131     1.0  0.99556  0.59968  0.12705  1.0000
  C   C653      1.0  0.14774  0.55964  0.19205  1.0000
  H   H1132     1.0  0.05294  0.60374  0.12979  1.0000
  C   C654      1.0  0.11485  0.39539  0.17470  1.0000
  C   C655      1.0  0.19627  0.53066  0.22455  1.0000
  H   H1133     1.0  0.13913  0.54165  0.21348  1.0000
  H   H1134     1.0  0.13182  0.32645  0.08248  1.0000
  C   C656      1.0  0.11727  0.43042  0.15559  1.0000
  H   H1135     1.0  0.25137  0.39000  0.00640  1.0000
  H   H1136     1.0  0.23262  0.35070  0.98966  1.0000
  H   H1137     1.0  0.17069  0.46874  0.10972  1.0000
  H   H1138     1.0  0.20981  0.40018  0.07647  1.0000
  H   H1139     1.0  0.00346  0.51615  0.21769  1.0000
  H   H1140     1.0  0.31068  0.37247  0.01112  1.0000
  H   H1141     1.0  0.17412  0.54776  0.20489  1.0000
  H   H1142     1.0  0.22785  0.40872  0.07323  1.0000
  C   C657      1.0  0.24110  0.41558  0.02094  1.0000
  C   C658      1.0  0.04177  0.46177  0.20875  1.0000
  H   H1143     1.0  0.15672  0.56033  0.18001  1.0000
  C   C659      1.0  0.01730  0.57023  0.17456  1.0000
  H   H1144     1.0  0.24890  0.40488  0.02787  1.0000
  H   H1145     1.0  0.13016  0.43217  0.15291  1.0000
  H   H1146     1.0  0.08674  0.59442  0.14456  1.0000
  C   C660      1.0  0.03295  0.57591  0.17392  1.0000
  H   H1147     1.0  0.01895  0.56491  0.16368  1.0000
  H   H1148     1.0  0.22533  0.39968  0.05766  1.0000
  H   H1149     1.0  0.45467  0.41248  0.22304  1.0000
  C   C661      1.0  0.09634  0.49067  0.21255  1.0000
  H   H1150     1.0  0.23232  0.40094  0.00068  1.0000
  H   H1151     1.0  0.21303  0.32854  0.04709  1.0000
  C   C662      1.0  0.30281  0.35876  0.03593  1.0000
  H   H1152     1.0  0.18019  0.53871  0.17946  1.0000
  H   H1153     1.0  0.48186  0.38058  0.22496  1.0000
  H   H1154     1.0  0.04874  0.43831  0.22565  1.0000
  H   H1155     1.0  0.23928  0.42776  0.99611  1.0000
  H   H1156     1.0  0.19339  0.50726  0.19012  1.0000
  H   H1157     1.0  0.11453  0.36258  0.20936  1.0000
  C   C663      1.0  0.16433  0.46985  0.23227  1.0000
  H   H1158     1.0  0.03404  0.58798  0.14817  1.0000
  H   H1159     1.0  0.17214  0.40534  0.15349  1.0000
  C   C664      1.0  0.13001  0.33175  0.02148  1.0000
  C   C665      1.0  0.15926  0.51279  0.21103  1.0000
  C   C666      1.0  0.24585  0.40089  0.99767  1.0000
  H   H1160     1.0  0.13703  0.37586  0.99365  1.0000
  C   C667      1.0  0.18961  0.52469  0.21291  1.0000
  H   H1161     1.0  0.03805  0.63139  0.14985  1.0000
  H   H1162     1.0  0.22798  0.41418  0.02489  1.0000
  H   H1163     1.0  0.13560  0.33288  0.06036  1.0000
  C   C668      1.0  0.07996  0.48547  0.21546  1.0000
  H   H1164     1.0  0.04340  0.56514  0.17284  1.0000
  H   H1165     1.0  0.27830  0.36412  0.08306  1.0000
  C   C669      1.0  0.48331  0.33564  0.10017  1.0000
  H   H1166     1.0  0.04248  0.63192  0.11303  1.0000
  H   H1167     1.0  0.19836  0.39676  0.99958  1.0000
  H   H1168     1.0  0.20448  0.46357  0.21129  1.0000
  Fe  Fe84      1.0  0.06089  0.54358  0.20262  1.0000
  C   C670      1.0  0.06740  0.60960  0.16921  1.0000
  H   H1169     1.0  0.17075  0.50326  0.21225  1.0000
  H   H1170     1.0  0.48740  0.34740  0.09383  1.0000
  H   H1171     1.0  0.14914  0.38340  0.15464  1.0000
  H   H1172     1.0  0.31511  0.33301  0.04183  1.0000
  H   H1173     1.0  0.24189  0.37056  0.99924  1.0000
  H   H1174     1.0  0.25550  0.32995  0.05195  1.0000
  N   N38       1.0  0.16317  0.52927  0.20145  1.0000
  C   C671      1.0  0.17517  0.39609  0.22228  1.0000
  H   H1175     1.0  0.02653  0.62215  0.14142  1.0000
  H   H1176     1.0  0.27219  0.37708  0.98736  1.0000
  C   C672      1.0  0.12353  0.41993  0.20680  1.0000
  H   H1177     1.0  0.00637  0.58071  0.17476  1.0000
  H   H1178     1.0  0.15151  0.56567  0.19994  1.0000
  H   H1179     1.0  0.03249  0.43914  0.21568  1.0000
  N   N39       1.0  0.05798  0.48540  0.19981  1.0000
  C   C673      1.0  0.05505  0.49047  0.18245  1.0000
  C   C674      1.0  0.33644  0.34505  0.07459  1.0000
  C   C675      1.0  0.07502  0.48791  0.19882  1.0000
  H   H1180     1.0  0.19723  0.54381  0.21974  1.0000
  C   C676      1.0  0.02773  0.50277  0.20711  1.0000
  C   C677      1.0  0.06757  0.48082  0.16971  1.0000
  H   H1181     1.0  0.16506  0.33016  0.04436  1.0000
  C   C678      1.0  0.49470  0.35893  0.18916  1.0000
  H   H1182     1.0  0.12387  0.50320  0.20615  1.0000
  C   C679      1.0  0.04178  0.63749  0.12350  1.0000
  C   C680      1.0  0.06277  0.48660  0.15291  1.0000
  C   C681      1.0  0.13083  0.56981  0.18886  1.0000
  H   H1183     1.0  0.05526  0.50386  0.17755  1.0000
  H   H1184     1.0  0.04254  0.48938  0.18219  1.0000
  H   H1185     1.0  0.11190  0.36972  0.18059  1.0000
  H   H1186     1.0  0.04981  0.50782  0.20955  1.0000
  H   H1187     1.0  0.07623  0.50053  0.19171  1.0000
  H   H1188     1.0  0.08483  0.47931  0.19200  1.0000
  H   H1189     1.0  0.09919  0.38153  0.20610  1.0000
  H   H1190     1.0  0.15552  0.33138  0.00887  1.0000
  H   H1191     1.0  0.03756  0.46560  0.19695  1.0000
  H   H1192     1.0  0.20750  0.34641  0.01236  1.0000
  H   H1193     1.0  0.08027  0.48288  0.16773  1.0000
  H   H1194     1.0  0.06793  0.46735  0.17378  1.0000
  H   H1195     1.0  0.19846  0.52598  0.20079  1.0000
  C   C682      1.0  0.17066  0.32442  0.05536  1.0000
  H   H1196     1.0  0.02802  0.51246  0.19554  1.0000
  Fe  Fe85      1.0  0.27323  0.33106  0.01550  1.0000
  C   C683      1.0  0.04545  0.49636  0.21064  1.0000
  H   H1197     1.0  0.28992  0.36615  0.03676  1.0000
  H   H1198     1.0  0.12495  0.51892  0.21564  1.0000
  H   H1199     1.0  0.14331  0.41338  0.17025  1.0000
  H   H1200     1.0  0.13567  0.39774  0.22146  1.0000
  H   H1201     1.0  0.17124  0.40100  0.17531  1.0000
  H   H1202     1.0  0.06261  0.50000  0.14811  1.0000
  H   H1203     1.0  0.07202  0.47966  0.14400  1.0000
  H   H1204     1.0  0.05035  0.48430  0.15385  1.0000
  H   H1205     1.0  0.09353  0.44592  0.15086  1.0000
  H   H1206     1.0  0.09339  0.54187  0.18754  1.0000
  H   H1207     1.0  0.18362  0.38762  0.23020  1.0000
  H   H1208     1.0  0.48373  0.36600  0.14729  1.0000
  H   H1209     1.0  0.06465  0.61355  0.13670  1.0000
  H   H1210     1.0  0.16449  0.53154  0.17539  1.0000
  S   S164      1.0  0.30005  0.32246  0.00483  1.0000
  H   H1211     1.0  0.05097  0.59323  0.18193  1.0000
  C   C684      1.0  0.14679  0.54147  0.20079  1.0000
  H   H1212     1.0  0.20880  0.52302  0.22572  1.0000
  H   H1213     1.0  0.17545  0.48649  0.09383  1.0000
  H   H1214     1.0  0.31012  0.36461  0.04065  1.0000
  H   H1215     1.0  0.13180  0.58276  0.18274  1.0000
  H   H1216     1.0  0.07629  0.62252  0.18244  1.0000
  H   H1217     1.0  0.17318  0.38439  0.16538  1.0000
  C   C685      1.0  0.11854  0.37715  0.18428  1.0000
  C   C686      1.0  0.11261  0.37580  0.20291  1.0000
  H   H1218     1.0  0.06828  0.57413  0.16641  1.0000
  C   C687      1.0  0.00148  0.62829  0.18669  1.0000
  H   H1219     1.0  0.48623  0.32505  0.23007  1.0000
  H   H1220     1.0  0.15404  0.39082  0.00366  1.0000
  H   H1221     1.0  0.12151  0.56995  0.20068  1.0000
  C   C688      1.0  0.08262  0.58415  0.14247  1.0000
  H   H1222     1.0  0.26003  0.41850  0.99887  1.0000
  H   H1223     1.0  0.15804  0.41897  0.99978  1.0000
  H   H1224     1.0  0.00786  0.58353  0.21314  1.0000
  H   H1225     1.0  0.08375  0.44026  0.21831  1.0000
  H   H1226     1.0  0.02487  0.60121  0.16253  1.0000
  H   H1227     1.0  0.14292  0.34281  0.07224  1.0000
  H   H1228     1.0  0.14814  0.40399  0.14330  1.0000
  H   H1229     1.0  0.09891  0.56588  0.15728  1.0000
  H   H1230     1.0  0.09920  0.49015  0.22451  1.0000
  C   C689      1.0  0.09582  0.41809  0.23265  1.0000
  H   H1231     1.0  0.03168  0.57918  0.18585  1.0000
  H   H1232     1.0  0.06419  0.60788  0.19557  1.0000
  H   H1233     1.0  0.04076  0.61283  0.17283  1.0000
  H   H1234     1.0  0.18953  0.51147  0.21812  1.0000
  H   H1235     1.0  0.12645  0.56459  0.18072  1.0000
  C   C690      1.0  0.14851  0.40042  0.16906  1.0000
  H   H1236     1.0  0.03184  0.46693  0.21848  1.0000
  C   C691      1.0  0.05195  0.60295  0.17042  1.0000
  H   H1237     1.0  0.11123  0.44958  0.13425  1.0000
  H   H1238     1.0  0.18906  0.47598  0.10793  1.0000
  H   H1239     1.0  0.27225  0.34553  0.06005  1.0000
  H   H1240     1.0  0.12329  0.41868  0.13534  1.0000
  C   C692      1.0  0.19603  0.51419  0.16382  1.0000
  H   H1241     1.0  0.05370  0.43706  0.20419  1.0000
  C   C693      1.0  0.10680  0.44666  0.14784  1.0000
  H   H1242     1.0  0.20387  0.52322  0.16193  1.0000
  H   H1243     1.0  0.20428  0.50209  0.16205  1.0000
  C   C694      1.0  0.03555  0.59096  0.15943  1.0000
  H   H1244     1.0  0.20791  0.48228  0.02232  1.0000
  C   C695      1.0  0.12134  0.38669  0.14852  1.0000
  C   C696      1.0  0.12812  0.38944  0.12956  1.0000
  C   C697      1.0  0.12798  0.37471  0.12291  1.0000
  H   H1245     1.0  0.10782  0.38698  0.15081  1.0000
  H   H1246     1.0  0.12721  0.37378  0.15381  1.0000
  C   C698      1.0  0.06582  0.58122  0.15409  1.0000
  H   H1247     1.0  0.14105  0.39131  0.12615  1.0000
  H   H1248     1.0  0.12020  0.40045  0.12315  1.0000
  H   H1249     1.0  0.13221  0.37745  0.10927  1.0000
  H   H1250     1.0  0.13654  0.36343  0.12807  1.0000
  H   H1251     1.0  0.11525  0.37237  0.12598  1.0000
  H   H1252     1.0  0.33448  0.35862  0.06967  1.0000
  Fe  Fe86      1.0  0.07765  0.55000  0.22628  1.0000
  C   C699      1.0  0.27486  0.36394  0.07157  1.0000
  H   H1253     1.0  0.13251  0.39885  0.00230  1.0000
  H   H1254     1.0  0.15297  0.51343  0.22407  1.0000
  C   C700      1.0  0.30803  0.34431  0.07132  1.0000
  C   C701      1.0  0.42055  0.33236  0.10678  1.0000
  H   H1255     1.0  0.48153  0.35504  0.22658  1.0000
  C   C702      1.0  0.21523  0.34096  0.02178  1.0000
  C   C703      1.0  0.24716  0.41662  0.00237  1.0000
  H   H1256     1.0  0.16611  0.38944  0.22133  1.0000
  Fe  Fe87      1.0  0.04476  0.57221  0.21977  1.0000
  H   H1257     1.0  0.13200  0.37153  0.18161  1.0000
  H   H1258     1.0  0.30313  0.35454  0.01200  1.0000
  H   H1259     1.0  0.34898  0.32588  0.02047  1.0000
  H   H1260     1.0  0.17339  0.33488  0.05874  1.0000
  H   H1261     1.0  0.02163  0.63075  0.19574  1.0000
  H   H1262     1.0  0.16589  0.36911  0.98963  1.0000
  H   H1263     1.0  0.04426  0.48996  0.22388  1.0000
  C   C704      1.0  0.05787  0.46740  0.20724  1.0000
  S   S165      1.0  0.41368  0.33339  0.08888  1.0000
  H   H1264     1.0  0.03139  0.64850  0.12345  1.0000
  S   S166      1.0  0.03519  0.55137  0.21716  1.0000
  H   H1265     1.0  0.07061  0.49306  0.22357  1.0000
  C   C705      1.0  0.13103  0.50638  0.21334  1.0000
  H   H1266     1.0  0.05999  0.46415  0.22003  1.0000
  H   H1267     1.0  0.19495  0.34376  0.04246  1.0000
  C   C706      1.0  0.27921  0.34590  0.06909  1.0000
  S   S167      1.0  0.26428  0.32582  0.99566  1.0000
  H   H1268     1.0  0.08157  0.47230  0.22200  1.0000
  H   H1269     1.0  0.11977  0.38201  0.20744  1.0000
  H   H1270     1.0  0.20650  0.47974  0.23020  1.0000
  N   N40       1.0  0.18802  0.45037  0.06574  1.0000
  C   C707      1.0  0.17951  0.45858  0.08018  1.0000
  C   C708      1.0  0.17532  0.44578  0.05941  1.0000
  C   C709      1.0  0.19963  0.43456  0.07193  1.0000
  C   C710      1.0  0.19822  0.46096  0.05204  1.0000
  C   C711      1.0  0.18917  0.47866  0.04515  1.0000
  C   C712      1.0  0.19090  0.46279  0.08904  1.0000
  C   C713      1.0  0.20950  0.42397  0.05897  1.0000
  C   C714      1.0  0.15783  0.45742  0.06057  1.0000
  C   C715      1.0  0.14736  0.45306  0.05122  1.0000
  C   C716      1.0  0.20140  0.48852  0.03277  1.0000
  C   C717      1.0  0.18086  0.47421  0.10081  1.0000
  C   C718      1.0  0.21867  0.40713  0.06713  1.0000
  H   H1271     1.0  0.17185  0.45045  0.08970  1.0000
  H   H1272     1.0  0.17054  0.47017  0.07658  1.0000
  H   H1273     1.0  0.18024  0.44441  0.04636  1.0000
  H   H1274     1.0  0.17287  0.43340  0.06645  1.0000
  H   H1275     1.0  0.19260  0.42666  0.08245  1.0000
  H   H1276     1.0  0.20917  0.43717  0.07686  1.0000
  H   H1277     1.0  0.20928  0.46183  0.05592  1.0000
  H   H1278     1.0  0.20337  0.45498  0.04122  1.0000
  H   H1279     1.0  0.18286  0.48566  0.05502  1.0000
  H   H1280     1.0  0.18004  0.47811  0.03843  1.0000
  H   H1281     1.0  0.19714  0.45132  0.09657  1.0000
  H   H1282     1.0  0.20048  0.46907  0.08015  1.0000
  H   H1283     1.0  0.21898  0.43029  0.04989  1.0000
  H   H1284     1.0  0.20132  0.42182  0.05212  1.0000
  H   H1285     1.0  0.15106  0.45613  0.07368  1.0000
  H   H1286     1.0  0.15843  0.47057  0.05561  1.0000
  H   H1287     1.0  0.13522  0.46197  0.05174  1.0000
  H   H1288     1.0  0.15373  0.45348  0.03807  1.0000
  H   H1289     1.0  0.14493  0.44053  0.05705  1.0000
  H   H1290     1.0  0.19458  0.50106  0.02774  1.0000
  H   H1291     1.0  0.21071  0.48990  0.03885  1.0000
  C   C719      1.0  0.17299  0.52874  0.18404  1.0000
  H   H1292     1.0  0.05405  0.62752  0.18466  1.0000
  C   C720      1.0  0.14886  0.50559  0.20353  1.0000
  H   H1293     1.0  0.09570  0.50354  0.20520  1.0000
  H   H1294     1.0  0.18819  0.51843  0.15446  1.0000
  C   C721      1.0  0.30265  0.34075  0.04544  1.0000
  C   C722      1.0  0.11624  0.33990  0.03148  1.0000
  C   C723      1.0  0.17836  0.46440  0.22055  1.0000
  C   C724      1.0  0.16742  0.39760  0.16555  1.0000
  C   C725      1.0  0.18515  0.51216  0.18121  1.0000
  H   H1295     1.0  0.14871  0.51165  0.19045  1.0000
  H   H1296     1.0  0.21894  0.37076  0.98661  1.0000
  C   C726      1.0  0.04438  0.44291  0.21387  1.0000
  C   C727      1.0  0.17216  0.53508  0.21095  1.0000
  C   C728      1.0  0.14521  0.41703  0.00233  1.0000
  H   H1297     1.0  0.33190  0.33983  0.05349  1.0000
  C   C729      1.0  0.14481  0.33761  0.01660  1.0000
  H   H1298     1.0  0.13084  0.49736  0.22528  1.0000
  C   C730      1.0  0.19350  0.46803  0.21998  1.0000
  H   H1299     1.0  0.22030  0.35086  0.02339  1.0000
  H   H1300     1.0  0.22908  0.32815  0.07234  1.0000
  H   H1301     1.0  0.30396  0.34168  0.08503  1.0000
  H   H1302     1.0  0.99639  0.60769  0.14409  1.0000
  H   H1303     1.0  0.25243  0.37238  0.06161  1.0000
  N   N41       1.0  0.29739  0.33803  0.06397  1.0000
  C   C731      1.0  0.46793  0.41317  0.22039  1.0000
  H   H1304     1.0  0.33011  0.32371  0.07191  1.0000
  H   H1305     1.0  0.28147  0.37222  0.06122  1.0000
  C   C732      1.0  0.09500  0.43091  0.21873  1.0000
  C   C733      1.0  0.25624  0.37124  0.07328  1.0000
  C   C734      1.0  0.14528  0.40115  0.99750  1.0000
  C   C735      1.0  0.19468  0.47702  0.23085  1.0000
  S   S168      1.0  0.48572  0.32935  0.15199  1.0000
  H   H1306     1.0  0.02263  0.49283  0.20567  1.0000
  H   H1307     1.0  0.34995  0.33967  0.07141  1.0000
  C   C736      1.0  0.18813  0.43874  0.98886  1.0000
  H   H1308     1.0  0.99985  0.64071  0.17928  1.0000
  C   C737      1.0  0.01571  0.51053  0.22104  1.0000
  H   H1309     1.0  0.02048  0.52033  0.22334  1.0000
  H   H1310     1.0  0.15863  0.41970  0.22042  1.0000
  H   H1311     1.0  0.46954  0.33841  0.10399  1.0000
  S   S169      1.0  0.07091  0.52727  0.22435  1.0000
  H   H1312     1.0  0.33238  0.34251  0.08825  1.0000
  S   S170      1.0  0.10357  0.54788  0.22893  1.0000
  C   C738      1.0  0.14092  0.33086  0.07132  1.0000
  H   H1313     1.0  0.45891  0.32469  0.05248  1.0000
  H   H1314     1.0  0.18508  0.44956  0.99411  1.0000
  H   H1315     1.0  0.11787  0.35750  0.99520  1.0000
  H   H1316     1.0  0.04216  0.65112  0.06706  1.0000
  H   H1317     1.0  0.18270  0.39984  0.20973  1.0000
  H   H1318     1.0  0.18348  0.34242  0.98586  1.0000
  C   C739      1.0  0.00613  0.59599  0.20576  1.0000
  H   H1319     1.0  0.13979  0.41604  0.01569  1.0000
  C   C740      1.0  0.16618  0.41148  0.22928  1.0000
  C   C741      1.0  0.24457  0.37098  0.98582  1.0000
  H   H1320     1.0  0.14102  0.43823  0.23239  1.0000
  H   H1321     1.0  0.01394  0.50094  0.23257  1.0000
  H   H1322     1.0  0.49398  0.36309  0.12658  1.0000
  H   H1323     1.0  0.99614  0.62123  0.12408  1.0000
  H   H1324     1.0  0.30295  0.37463  0.98332  1.0000
  H   H1325     1.0  0.48903  0.40424  0.23151  1.0000
  C   C742      1.0  0.09776  0.38286  0.35312  1.0000
  H   H1326     1.0  0.07383  0.36601  0.37414  1.0000
  H   H1327     1.0  0.21470  0.63836  0.38171  1.0000
  C   C743      1.0  0.20407  0.64915  0.38271  1.0000
  H   H1328     1.0  0.38309  0.63058  0.39895  1.0000
  S   S171      1.0  0.28871  0.62176  0.41924  1.0000
  C   C744      1.0  0.08882  0.34240  0.36890  1.0000
  H   H1329     1.0  0.46941  0.40743  0.24578  1.0000
  S   S172      1.0  0.32834  0.62037  0.40127  1.0000
  H   H1330     1.0  0.18384  0.52849  0.47935  1.0000
  Fe  Fe88      1.0  0.30430  0.62360  0.39372  1.0000
  S   S173      1.0  0.30154  0.60662  0.37919  1.0000
  Fe  Fe89      1.0  0.31227  0.62044  0.42650  1.0000
  S   S174      1.0  0.31905  0.60139  0.44839  1.0000
  H   H1331     1.0  0.07411  0.33165  0.39237  1.0000
  H   H1332     1.0  0.14652  0.39983  0.24577  1.0000
  Fe  Fe90      1.0  0.18883  0.56449  0.40931  1.0000
  S   S175      1.0  0.20159  0.53872  0.40624  1.0000
  S   S176      1.0  0.16171  0.57054  0.42074  1.0000
  Fe  Fe91      1.0  0.21932  0.57857  0.39181  1.0000
  S   S177      1.0  0.23459  0.55401  0.38690  1.0000
  S   S178      1.0  0.22692  0.60310  0.38589  1.0000
  Fe  Fe92      1.0  0.21197  0.55073  0.38024  1.0000
  S   S179      1.0  0.21447  0.54126  0.35698  1.0000
  Fe  Fe93      1.0  0.22273  0.54422  0.41322  1.0000
  S   S180      1.0  0.23739  0.52444  0.43013  1.0000
  S   S181      1.0  0.19778  0.57633  0.38294  1.0000
  S   S182      1.0  0.20896  0.56892  0.41857  1.0000
  H   H1333     1.0  0.45835  0.38326  0.29766  1.0000
  C   C745      1.0  0.01068  0.39332  0.28159  1.0000
  S   S183      1.0  0.03184  0.52060  0.26022  1.0000
  Fe  Fe94      1.0  0.05665  0.42509  0.27352  1.0000
  S   S184      1.0  0.08213  0.42653  0.27445  1.0000
  S   S185      1.0  0.03994  0.44546  0.25921  1.0000
  Fe  Fe95      1.0  0.05898  0.38992  0.29468  1.0000
  S   S186      1.0  0.08479  0.38854  0.29714  1.0000
  S   S187      1.0  0.04613  0.36884  0.30896  1.0000
  Fe  Fe96      1.0  0.07539  0.41446  0.30114  1.0000
  S   S188      1.0  0.08013  0.42090  0.32291  1.0000
  Fe  Fe97      1.0  0.08903  0.40054  0.27037  1.0000
  S   S189      1.0  0.11227  0.39229  0.25251  1.0000
  S   S190      1.0  0.04912  0.41509  0.30071  1.0000
  S   S191      1.0  0.06400  0.39990  0.26740  1.0000
  Fe  Fe98      1.0  0.13536  0.50568  0.30273  1.0000
  S   S192      1.0  0.15990  0.51307  0.29531  1.0000
  S   S193      1.0  0.11167  0.52481  0.30274  1.0000
  Fe  Fe99      1.0  0.15043  0.46906  0.31028  1.0000
  S   S194      1.0  0.17635  0.47344  0.30412  1.0000
  S   S195      1.0  0.14597  0.44311  0.31815  1.0000
  Fe  Fe100     1.0  0.16584  0.49422  0.31802  1.0000
  S   S196      1.0  0.17261  0.49877  0.34035  1.0000
  Fe  Fe101     1.0  0.16797  0.49181  0.28216  1.0000
  S   S197      1.0  0.18320  0.49367  0.25598  1.0000
  S   S198      1.0  0.14048  0.48797  0.32594  1.0000
  S   S199      1.0  0.14278  0.48619  0.28776  1.0000
  H   H1334     1.0  0.49303  0.60092  0.36416  1.0000
  H   H1335     1.0  0.36845  0.61160  0.39501  1.0000
  H   H1336     1.0  0.18891  0.58902  0.46957  1.0000
  H   H1337     1.0  0.15539  0.39547  0.28205  1.0000
  H   H1338     1.0  0.48366  0.34626  0.26320  1.0000
  H   H1339     1.0  0.16332  0.43685  0.24442  1.0000
  H   H1340     1.0  0.30973  0.57671  0.47705  1.0000
  C   C746      1.0  0.15532  0.40683  0.24675  1.0000
  H   H1341     1.0  0.08514  0.41777  0.24269  1.0000
  C   C747      1.0  0.47611  0.40249  0.23458  1.0000
  H   H1342     1.0  0.48318  0.65199  0.31698  1.0000
  C   C748      1.0  0.04577  0.35373  0.29873  1.0000
  C   C749      1.0  0.04092  0.33903  0.30810  1.0000
  H   H1343     1.0  0.99648  0.37212  0.30541  1.0000
  C   C750      1.0  0.04724  0.34491  0.27372  1.0000
  C   C751      1.0  0.04918  0.35652  0.28150  1.0000
  H   H1344     1.0  0.04954  0.34731  0.26040  1.0000
  H   H1345     1.0  0.05289  0.36780  0.27414  1.0000
  H   H1346     1.0  0.12474  0.37493  0.34631  1.0000
  H   H1347     1.0  0.39041  0.60284  0.39182  1.0000
  C   C752      1.0  0.18480  0.53844  0.45368  1.0000
  Fe  Fe102     1.0  0.04606  0.53684  0.23916  1.0000
  C   C753      1.0  0.42750  0.64649  0.34579  1.0000
  C   C754      1.0  0.09736  0.42934  0.32085  1.0000
  C   C755      1.0  0.10654  0.43586  0.30544  1.0000
  C   C756      1.0  0.12086  0.44151  0.30451  1.0000
  C   C757      1.0  0.12620  0.44016  0.31895  1.0000
  C   C758      1.0  0.11671  0.43405  0.33426  1.0000
  C   C759      1.0  0.10216  0.42904  0.33521  1.0000
  H   H1348     1.0  0.10271  0.43633  0.29433  1.0000
  H   H1349     1.0  0.12820  0.44626  0.29266  1.0000
  H   H1350     1.0  0.12084  0.43284  0.34543  1.0000
  H   H1351     1.0  0.09502  0.42423  0.34716  1.0000
  C   C760      1.0  0.10587  0.54264  0.24943  1.0000
  C   C761      1.0  0.09248  0.54663  0.26224  1.0000
  C   C762      1.0  0.09449  0.54184  0.27862  1.0000
  C   C763      1.0  0.10974  0.53265  0.28221  1.0000
  C   C764      1.0  0.12323  0.52900  0.26937  1.0000
  C   C765      1.0  0.12132  0.53411  0.25300  1.0000
  H   H1352     1.0  0.08061  0.55349  0.25953  1.0000
  H   H1353     1.0  0.08414  0.54484  0.28854  1.0000
  H   H1354     1.0  0.13511  0.52209  0.27203  1.0000
  C   C766      1.0  0.17191  0.62232  0.39006  1.0000
  C   C767      1.0  0.03481  0.49963  0.25982  1.0000
  C   C768      1.0  0.05063  0.48993  0.25522  1.0000
  C   C769      1.0  0.05254  0.47296  0.25579  1.0000
  C   C770      1.0  0.03853  0.46590  0.26046  1.0000
  H   H1355     1.0  0.46277  0.38524  0.26654  1.0000
  H   H1356     1.0  0.08768  0.34374  0.39414  1.0000
  H   H1357     1.0  0.37359  0.63934  0.38142  1.0000
  N   N42       1.0  0.07743  0.36808  0.34787  1.0000
  C   C771      1.0  0.40869  0.64436  0.41833  1.0000
  H   H1358     1.0  0.48699  0.35679  0.28386  1.0000
  C   C772      1.0  0.20165  0.53096  0.35187  1.0000
  C   C773      1.0  0.20688  0.52548  0.33691  1.0000
  C   C774      1.0  0.19779  0.51622  0.33284  1.0000
  C   C775      1.0  0.18337  0.51221  0.34375  1.0000
  C   C776      1.0  0.17796  0.51795  0.35856  1.0000
  C   C777      1.0  0.18691  0.52743  0.36253  1.0000
  H   H1359     1.0  0.21826  0.52813  0.32856  1.0000
  H   H1360     1.0  0.20229  0.51169  0.32153  1.0000
  H   H1361     1.0  0.16690  0.51483  0.36718  1.0000
  H   H1362     1.0  0.18263  0.53164  0.37402  1.0000
  C   C778      1.0  0.02100  0.49235  0.26502  1.0000
  S   S200      1.0  0.13178  0.65085  0.48039  1.0000
  C   C779      1.0  0.24822  0.51158  0.45866  1.0000
  C   C780      1.0  0.24061  0.52603  0.44906  1.0000
  C   C781      1.0  0.23632  0.54089  0.45464  1.0000
  H   H1363     1.0  0.09850  0.32992  0.31187  1.0000
  H   H1364     1.0  0.25170  0.50008  0.45445  1.0000
  H   H1365     1.0  0.23058  0.55217  0.44720  1.0000
  S   S201      1.0  0.29961  0.65136  0.38809  1.0000
  H   H1366     1.0  0.17710  0.61141  0.39896  1.0000
  C   C782      1.0  0.32111  0.57467  0.41251  1.0000
  H   H1367     1.0  0.26362  0.60288  0.42333  1.0000
  N   N43       1.0  0.48337  0.37200  0.25075  1.0000
  C   C783      1.0  0.44598  0.64571  0.33842  1.0000
  C   C784      1.0  0.30095  0.60127  0.46378  1.0000
  H   H1368     1.0  0.48582  0.32195  0.25169  1.0000
  H   H1369     1.0  0.00442  0.33340  0.30704  1.0000
  H   H1370     1.0  0.00878  0.49974  0.26876  1.0000
  H   H1371     1.0  0.21021  0.60462  0.46471  1.0000
  S   S202      1.0  0.05354  0.55844  0.24306  1.0000
  C   C785      1.0  0.04205  0.33036  0.28309  1.0000
  H   H1372     1.0  0.09950  0.35571  0.31864  1.0000
  H   H1373     1.0  0.08055  0.34588  0.30812  1.0000
  H   H1374     1.0  0.49254  0.60512  0.33424  1.0000
  C   C786      1.0  0.28082  0.60547  0.38129  1.0000
  C   C787      1.0  0.26773  0.61810  0.38628  1.0000
  C   C788      1.0  0.25129  0.61727  0.38748  1.0000
  C   C789      1.0  0.24775  0.60353  0.38434  1.0000
  C   C790      1.0  0.26082  0.59069  0.37971  1.0000
  C   C791      1.0  0.27734  0.59180  0.37794  1.0000
  H   H1375     1.0  0.27030  0.62870  0.38885  1.0000
  H   H1376     1.0  0.24130  0.62727  0.39104  1.0000
  H   H1377     1.0  0.25822  0.58015  0.37708  1.0000
  H   H1378     1.0  0.28744  0.58205  0.37398  1.0000
  C   C792      1.0  0.14856  0.62087  0.43447  1.0000
  C   C793      1.0  0.13880  0.61701  0.42598  1.0000
  C   C794      1.0  0.14250  0.60128  0.42239  1.0000
  C   C795      1.0  0.15634  0.58955  0.42677  1.0000
  C   C796      1.0  0.16601  0.59328  0.43546  1.0000
  C   C797      1.0  0.16190  0.60881  0.43963  1.0000
  H   H1379     1.0  0.12848  0.62628  0.42197  1.0000
  H   H1380     1.0  0.13499  0.59841  0.41570  1.0000
  H   H1381     1.0  0.17664  0.58421  0.43896  1.0000
  H   H1382     1.0  0.16951  0.61167  0.44615  1.0000
  C   C798      1.0  0.00077  0.36634  0.29453  1.0000
  H   H1383     1.0  0.28891  0.62593  0.45347  1.0000
  C   C799      1.0  0.07520  0.35808  0.36534  1.0000
  H   H1384     1.0  0.15999  0.62616  0.36956  1.0000
  C   C800      1.0  0.47916  0.35549  0.25272  1.0000
  N   N44       1.0  0.14574  0.42097  0.25513  1.0000
  H   H1385     1.0  0.06624  0.35068  0.34259  1.0000
  C   C801      1.0  0.13535  0.41454  0.27175  1.0000
  H   H1386     1.0  0.42653  0.63904  0.39668  1.0000
  C   C802      1.0  0.15691  0.43103  0.25680  1.0000
  C   C803      1.0  0.17013  0.42186  0.26714  1.0000
  C   C804      1.0  0.28447  0.54715  0.47639  1.0000
  C   C805      1.0  0.10825  0.45481  0.24160  1.0000
  C   C806      1.0  0.18149  0.43319  0.26640  1.0000
  H   H1387     1.0  0.17418  0.44435  0.27127  1.0000
  C   C807      1.0  0.02280  0.47569  0.26494  1.0000
  H   H1388     1.0  0.27265  0.52652  0.41363  1.0000
  H   H1389     1.0  0.16382  0.39778  0.25423  1.0000
  H   H1390     1.0  0.13267  0.42340  0.27989  1.0000
  H   H1391     1.0  0.12301  0.41371  0.27040  1.0000
  Fe  Fe103     1.0  0.28576  0.64922  0.41447  1.0000
  H   H1392     1.0  0.00208  0.39964  0.29131  1.0000
  H   H1393     1.0  0.49191  0.59469  0.39439  1.0000
  H   H1394     1.0  0.14947  0.44153  0.26267  1.0000
  H   H1395     1.0  0.17804  0.41079  0.26257  1.0000
  H   H1396     1.0  0.22180  0.58848  0.47799  1.0000
  H   H1397     1.0  0.11884  0.39559  0.29934  1.0000
  C   C808      1.0  0.13406  0.43229  0.24445  1.0000
  H   H1398     1.0  0.11513  0.44269  0.26460  1.0000
  H   H1399     1.0  0.18817  0.43718  0.25349  1.0000
  H   H1400     1.0  0.28956  0.54126  0.42964  1.0000
  H   H1401     1.0  0.16403  0.41818  0.28029  1.0000
  C   C809      1.0  0.47049  0.37438  0.29761  1.0000
  H   H1402     1.0  0.17759  0.52990  0.45271  1.0000
  C   C810      1.0  0.28782  0.61509  0.46326  1.0000
  H   H1403     1.0  0.48477  0.63117  0.34254  1.0000
  H   H1404     1.0  0.08798  0.33286  0.36286  1.0000
  H   H1405     1.0  0.19692  0.61879  0.40640  1.0000
  C   C811      1.0  0.38385  0.62984  0.38610  1.0000
  H   H1406     1.0  0.15483  0.48254  0.25258  1.0000
  H   H1407     1.0  0.01211  0.37483  0.26855  1.0000
  C   C812      1.0  0.11512  0.38656  0.34645  1.0000
  H   H1408     1.0  0.09617  0.32346  0.38961  1.0000
  H   H1409     1.0  0.16276  0.57847  0.47394  1.0000
  C   C813      1.0  0.19852  0.62727  0.43560  1.0000
  C   C814      1.0  0.47512  0.36580  0.28309  1.0000
  C   C815      1.0  0.27525  0.56375  0.45001  1.0000
  C   C816      1.0  0.20068  0.58213  0.47335  1.0000
  H   H1410     1.0  0.18567  0.63253  0.44153  1.0000
  H   H1411     1.0  0.43128  0.63674  0.37053  1.0000
  C   C817      1.0  0.47592  0.37858  0.26639  1.0000
  H   H1412     1.0  0.01288  0.40274  0.26998  1.0000
  C   C818      1.0  0.18088  0.48206  0.24288  1.0000
  H   H1413     1.0  0.41067  0.62178  0.37963  1.0000
  C   C819      1.0  0.00329  0.38021  0.27881  1.0000
  H   H1414     1.0  0.48256  0.38798  0.26671  1.0000
  C   C820      1.0  0.47563  0.38398  0.23705  1.0000
  C   C821      1.0  0.14227  0.39713  0.28150  1.0000
  H   H1415     1.0  0.09860  0.33909  0.33648  1.0000
  H   H1416     1.0  0.47972  0.63297  0.31465  1.0000
  H   H1417     1.0  0.29735  0.54318  0.45228  1.0000
  H   H1418     1.0  0.25751  0.59391  0.44488  1.0000
  H   H1419     1.0  0.20016  0.61371  0.43710  1.0000
  H   H1420     1.0  0.17813  0.60943  0.36984  1.0000
  H   H1421     1.0  0.18046  0.64177  0.37040  1.0000
  C   C822      1.0  0.41301  0.63979  0.40152  1.0000
  S   S203      1.0  0.14490  0.64131  0.43686  1.0000
  H   H1422     1.0  0.13173  0.53102  0.24317  1.0000
  H   H1423     1.0  0.23518  0.61556  0.43411  1.0000
  H   H1424     1.0  0.28740  0.55769  0.40007  1.0000
  H   H1425     1.0  0.22938  0.59568  0.44146  1.0000
  C   C823      1.0  0.38071  0.61295  0.38681  1.0000
  H   H1426     1.0  0.34690  0.65071  0.41916  1.0000
  H   H1427     1.0  0.46543  0.35874  0.28474  1.0000
  H   H1428     1.0  0.48077  0.64717  0.38292  1.0000
  C   C824      1.0  0.08698  0.33758  0.31790  1.0000
  H   H1429     1.0  0.17864  0.63071  0.41647  1.0000
  C   C825      1.0  0.18062  0.54087  0.47140  1.0000
  H   H1430     1.0  0.33368  0.56767  0.41426  1.0000
  H   H1431     1.0  0.06338  0.35369  0.36893  1.0000
  C   C826      1.0  0.18489  0.63330  0.38136  1.0000
  H   H1432     1.0  0.29007  0.57860  0.40857  1.0000
  H   H1433     1.0  0.26078  0.58034  0.41426  1.0000
  H   H1434     1.0  0.16043  0.62918  0.39689  1.0000
  C   C827      1.0  0.25136  0.51173  0.47371  1.0000
  C   C828      1.0  0.12159  0.44675  0.25170  1.0000
  H   H1435     1.0  0.13680  0.38123  0.30572  1.0000
  N   N45       1.0  0.07291  0.49498  0.29244  1.0000
  C   C829      1.0  0.08635  0.48839  0.27895  1.0000
  C   C830      1.0  0.05932  0.48533  0.29745  1.0000
  C   C831      1.0  0.06528  0.51266  0.28529  1.0000
  C   C832      1.0  0.07942  0.49483  0.30718  1.0000
  C   C833      1.0  0.09422  0.48061  0.31151  1.0000
  C   C834      1.0  0.09953  0.49909  0.27035  1.0000
  C   C835      1.0  0.04973  0.52114  0.29662  1.0000
  C   C836      1.0  0.06427  0.46633  0.30320  1.0000
  C   C837      1.0  0.04954  0.45846  0.30551  1.0000
  C   C838      1.0  0.09795  0.48089  0.32779  1.0000
  C   C839      1.0  0.11500  0.48959  0.26049  1.0000
  C   C840      1.0  0.04483  0.53964  0.28948  1.0000
  H   H1436     1.0  0.08080  0.48718  0.26916  1.0000
  H   H1437     1.0  0.09298  0.47567  0.28364  1.0000
  H   H1438     1.0  0.04958  0.48956  0.30784  1.0000
  H   H1439     1.0  0.05297  0.48786  0.28705  1.0000
  H   H1440     1.0  0.06178  0.51345  0.27349  1.0000
  H   H1441     1.0  0.07448  0.52059  0.28203  1.0000
  H   H1442     1.0  0.08369  0.50649  0.30542  1.0000
  H   H1443     1.0  0.06924  0.49470  0.31841  1.0000
  H   H1444     1.0  0.10566  0.48189  0.30187  1.0000
  H   H1445     1.0  0.09183  0.46834  0.31260  1.0000
  H   H1446     1.0  0.09434  0.51016  0.26161  1.0000
  H   H1447     1.0  0.10338  0.50336  0.27949  1.0000
  H   H1448     1.0  0.05201  0.51963  0.30908  1.0000
  H   H1449     1.0  0.03891  0.51577  0.29785  1.0000
  H   H1450     1.0  0.07455  0.46057  0.29417  1.0000
  H   H1451     1.0  0.06778  0.46314  0.31533  1.0000
  H   H1452     1.0  0.04596  0.46045  0.29354  1.0000
  H   H1453     1.0  0.05297  0.44497  0.31037  1.0000
  H   H1454     1.0  0.03870  0.46374  0.31443  1.0000
  H   H1455     1.0  0.10061  0.49302  0.32721  1.0000
  H   H1456     1.0  0.08731  0.47851  0.33817  1.0000
  H   H1457     1.0  0.10904  0.47111  0.33021  1.0000
  H   H1458     1.0  0.12423  0.49757  0.25498  1.0000
  H   H1459     1.0  0.12072  0.47828  0.26860  1.0000
  H   H1460     1.0  0.11181  0.48617  0.25039  1.0000
  H   H1461     1.0  0.05511  0.54590  0.28788  1.0000
  H   H1462     1.0  0.04152  0.54167  0.27739  1.0000
  H   H1463     1.0  0.03382  0.54534  0.29795  1.0000
  C   C841      1.0  0.06392  0.38364  0.34737  1.0000
  H   H1464     1.0  0.19080  0.42650  0.27404  1.0000
  C   C842      1.0  0.04581  0.38113  0.35165  1.0000
  C   C843      1.0  0.03348  0.39776  0.34971  1.0000
  H   H1465     1.0  0.06588  0.39186  0.33486  1.0000
  H   H1466     1.0  0.06437  0.39092  0.35606  1.0000
  C   C844      1.0  0.99591  0.34889  0.27895  1.0000
  H   H1467     1.0  0.10441  0.36266  0.34084  1.0000
  H   H1468     1.0  0.08890  0.39490  0.35347  1.0000
  H   H1469     1.0  0.04246  0.37447  0.36463  1.0000
  H   H1470     1.0  0.04401  0.37406  0.34347  1.0000
  C   C845      1.0  0.13219  0.39403  0.29921  1.0000
  H   H1471     1.0  0.23660  0.55252  0.47405  1.0000
  H   H1472     1.0  0.02064  0.39567  0.35286  1.0000
  H   H1473     1.0  0.03439  0.40522  0.35801  1.0000
  H   H1474     1.0  0.03591  0.40483  0.33677  1.0000
  N   N46       1.0  0.14159  0.55269  0.32627  1.0000
  C   C846      1.0  0.14084  0.56939  0.32936  1.0000
  C   C847      1.0  0.13027  0.55432  0.31485  1.0000
  C   C848      1.0  0.13547  0.54186  0.34269  1.0000
  C   C849      1.0  0.15915  0.54441  0.31954  1.0000
  C   C850      1.0  0.16770  0.55298  0.30235  1.0000
  C   C851      1.0  0.15125  0.56949  0.34158  1.0000
  C   C852      1.0  0.13079  0.52582  0.34198  1.0000
  C   C853      1.0  0.12849  0.57021  0.30101  1.0000
  C   C854      1.0  0.11982  0.56836  0.28845  1.0000
  C   C855      1.0  0.18603  0.54468  0.29804  1.0000
  C   C856      1.0  0.14898  0.58696  0.34412  1.0000
  C   C857      1.0  0.12779  0.51452  0.35908  1.0000
  H   H1475     1.0  0.12769  0.57520  0.33414  1.0000
  H   H1476     1.0  0.14501  0.57804  0.31775  1.0000
  H   H1477     1.0  0.13403  0.54331  0.30911  1.0000
  H   H1478     1.0  0.11729  0.55433  0.32197  1.0000
  H   H1479     1.0  0.12425  0.54892  0.34990  1.0000
  H   H1480     1.0  0.14504  0.53790  0.35034  1.0000
  H   H1481     1.0  0.16718  0.54260  0.32834  1.0000
  H   H1482     1.0  0.15969  0.53167  0.31858  1.0000
  H   H1483     1.0  0.16705  0.56618  0.30174  1.0000
  H   H1484     1.0  0.16180  0.55192  0.29278  1.0000
  H   H1485     1.0  0.14748  0.56163  0.35389  1.0000
  H   H1486     1.0  0.16469  0.56505  0.33680  1.0000
  H   H1487     1.0  0.14067  0.51875  0.33374  1.0000
  H   H1488     1.0  0.11923  0.52873  0.33731  1.0000
  H   H1489     1.0  0.12083  0.58088  0.30650  1.0000
  H   H1490     1.0  0.14052  0.57341  0.29420  1.0000
  H   H1491     1.0  0.12751  0.55839  0.28196  1.0000
  H   H1492     1.0  0.10750  0.56531  0.29465  1.0000
  H   H1493     1.0  0.11796  0.58009  0.27912  1.0000
  H   H1494     1.0  0.19168  0.55057  0.28535  1.0000
  H   H1495     1.0  0.19282  0.54608  0.30673  1.0000
  H   H1496     1.0  0.18746  0.53131  0.29855  1.0000
  H   H1497     1.0  0.15657  0.58666  0.35286  1.0000
  H   H1498     1.0  0.15311  0.59535  0.33225  1.0000
  H   H1499     1.0  0.13577  0.59193  0.34940  1.0000
  H   H1500     1.0  0.12412  0.50338  0.35821  1.0000
  H   H1501     1.0  0.13930  0.51036  0.36400  1.0000
  H   H1502     1.0  0.11769  0.52102  0.36775  1.0000
  H   H1503     1.0  0.09465  0.38141  0.32946  1.0000
  H   H1504     1.0  0.00951  0.34361  0.27717  1.0000
  H   H1505     1.0  0.24990  0.57108  0.43379  1.0000
  H   H1506     1.0  0.38051  0.61178  0.37433  1.0000
  H   H1507     1.0  0.39534  0.64478  0.42406  1.0000
  C   C858      1.0  0.25581  0.59465  0.43238  1.0000
  H   H1508     1.0  0.11756  0.39353  0.35438  1.0000
  Fe  Fe104     1.0  0.32214  0.64799  0.39838  1.0000
  H   H1509     1.0  0.07018  0.36729  0.32592  1.0000
  C   C859      1.0  0.09388  0.37339  0.34209  1.0000
  C   C860      1.0  0.27797  0.55105  0.40875  1.0000
  C   C861      1.0  0.40100  0.63217  0.37487  1.0000
  C   C862      1.0  0.23733  0.63533  0.45577  1.0000
  C   C863      1.0  0.07548  0.35859  0.33625  1.0000
  H   H1510     1.0  0.14144  0.38750  0.27551  1.0000
  H   H1511     1.0  0.24048  0.62302  0.46318  1.0000
  H   H1512     1.0  0.41615  0.63498  0.42667  1.0000
  H   H1513     1.0  0.26206  0.56498  0.45688  1.0000
  H   H1514     1.0  0.15890  0.60686  0.38432  1.0000
  H   H1515     1.0  0.09732  0.37551  0.36591  1.0000
  H   H1516     1.0  0.01333  0.35879  0.29568  1.0000
  H   H1517     1.0  0.10144  0.34504  0.36461  1.0000
  Fe  Fe105     1.0  0.17916  0.64376  0.47542  1.0000
  H   H1518     1.0  0.18155  0.55042  0.44507  1.0000
  H   H1519     1.0  0.45356  0.63455  0.34502  1.0000
  H   H1520     1.0  0.27779  0.53698  0.45959  1.0000
  N   N47       1.0  0.22232  0.48784  0.38398  1.0000
  C   C864      1.0  0.21502  0.48312  0.37223  1.0000
  C   C865      1.0  0.20895  0.49878  0.39423  1.0000
  C   C866      1.0  0.23519  0.49773  0.37369  1.0000
  C   C867      1.0  0.23101  0.47293  0.39479  1.0000
  C   C868      1.0  0.22056  0.46021  0.40562  1.0000
  C   C869      1.0  0.22731  0.47256  0.36023  1.0000
  C   C870      1.0  0.24203  0.50666  0.38309  1.0000
  C   C871      1.0  0.19128  0.49492  0.39968  1.0000
  C   C872      1.0  0.17979  0.50540  0.41177  1.0000
  C   C873      1.0  0.23160  0.44440  0.41334  1.0000
  C   C874      1.0  0.21817  0.46820  0.34952  1.0000
  C   C875      1.0  0.25540  0.51555  0.37144  1.0000
  H   H1521     1.0  0.20880  0.49453  0.36456  1.0000
  H   H1522     1.0  0.20507  0.47625  0.37889  1.0000
  H   H1523     1.0  0.21297  0.49895  0.40544  1.0000
  H   H1524     1.0  0.20706  0.51184  0.38713  1.0000
  H   H1525     1.0  0.23010  0.50732  0.36367  1.0000
  H   H1526     1.0  0.24617  0.48968  0.36732  1.0000
  H   H1527     1.0  0.24221  0.46629  0.38721  1.0000
  H   H1528     1.0  0.23586  0.47684  0.40354  1.0000
  H   H1529     1.0  0.21362  0.45660  0.39850  1.0000
  H   H1530     1.0  0.21178  0.46540  0.41598  1.0000
  H   H1531     1.0  0.23667  0.47943  0.35173  1.0000
  H   H1532     1.0  0.23378  0.46080  0.36710  1.0000
  H   H1533     1.0  0.24770  0.49783  0.39308  1.0000
  H   H1534     1.0  0.23208  0.51612  0.38861  1.0000
  H   H1535     1.0  0.18557  0.49784  0.38883  1.0000
  H   H1536     1.0  0.19138  0.48180  0.40558  1.0000
  H   H1537     1.0  0.17805  0.51875  0.40577  1.0000
  H   H1538     1.0  0.16743  0.50208  0.41572  1.0000
  H   H1539     1.0  0.18493  0.50323  0.42289  1.0000
  H   H1540     1.0  0.23869  0.44723  0.42092  1.0000
  H   H1541     1.0  0.22377  0.43568  0.42145  1.0000
  H   H1542     1.0  0.24041  0.43824  0.40360  1.0000
  H   H1543     1.0  0.21176  0.47961  0.34206  1.0000
  H   H1544     1.0  0.22717  0.46073  0.34094  1.0000
  H   H1545     1.0  0.20884  0.46089  0.35728  1.0000
  H   H1546     1.0  0.26596  0.50664  0.36575  1.0000
  H   H1547     1.0  0.25017  0.52516  0.36155  1.0000
  H   H1548     1.0  0.26014  0.52171  0.37847  1.0000
  C   C876      1.0  0.28177  0.53375  0.40522  1.0000
  H   H1549     1.0  0.26556  0.55733  0.40604  1.0000
  C   C877      1.0  0.26039  0.57751  0.42771  1.0000
  H   H1550     1.0  0.28097  0.53477  0.39231  1.0000
  C   C878      1.0  0.48904  0.63893  0.31620  1.0000
  H   H1551     1.0  0.16703  0.54575  0.47472  1.0000
  H   H1552     1.0  0.13348  0.40281  0.30596  1.0000
  H   H1553     1.0  0.26774  0.54409  0.43478  1.0000
  H   H1554     1.0  0.11609  0.39429  0.33376  1.0000
  H   H1555     1.0  0.31893  0.58691  0.41563  1.0000
  H   H1556     1.0  0.29448  0.52705  0.40680  1.0000
  H   H1557     1.0  0.09967  0.46533  0.24667  1.0000
  C   C879      1.0  0.09134  0.34773  0.32761  1.0000
  H   H1558     1.0  0.48018  0.38108  0.29691  1.0000
  H   H1559     1.0  0.31097  0.55293  0.42027  1.0000
  H   H1560     1.0  0.29235  0.55556  0.47625  1.0000
  H   H1561     1.0  0.28884  0.58661  0.42571  1.0000
  N   N48       1.0  0.27640  0.56634  0.43163  1.0000
  H   H1562     1.0  0.46950  0.36500  0.30939  1.0000
  H   H1563     1.0  0.40105  0.63014  0.36263  1.0000
  H   H1564     1.0  0.20891  0.57650  0.46298  1.0000
  C   C880      1.0  0.08649  0.33491  0.38740  1.0000
  C   C881      1.0  0.20199  0.63569  0.41742  1.0000
  C   C882      1.0  0.29953  0.58737  0.47659  1.0000
  H   H1565     1.0  0.01194  0.47034  0.26846  1.0000
  H   H1566     1.0  0.19652  0.62488  0.37642  1.0000
  H   H1567     1.0  0.02275  0.38760  0.28534  1.0000
  C   C883      1.0  0.24975  0.64224  0.44386  1.0000
  C   C884      1.0  0.19089  0.63162  0.40809  1.0000
  H   H1568     1.0  0.26322  0.62572  0.47528  1.0000
  H   H1569     1.0  0.19825  0.53308  0.44987  1.0000
  C   C885      1.0  0.27332  0.61503  0.47559  1.0000
  C   C886      1.0  0.29041  0.57483  0.42189  1.0000
  Fe  Fe106     1.0  0.15198  0.64414  0.45906  1.0000
  H   H1570     1.0  0.27969  0.57366  0.45264  1.0000
  H   H1571     1.0  0.32071  0.57652  0.39933  1.0000
  C   C887      1.0  0.20913  0.59454  0.47585  1.0000
  H   H1572     1.0  0.46541  0.35683  0.25587  1.0000
  C   C888      1.0  0.23777  0.60290  0.43185  1.0000
  C   C889      1.0  0.28434  0.54680  0.45881  1.0000
  H   H1573     1.0  0.20711  0.62963  0.44184  1.0000
  S   S204      1.0  0.16707  0.62391  0.47479  1.0000
  H   H1574     1.0  0.03833  0.33674  0.32143  1.0000
  H   H1575     1.0  0.42445  0.63520  0.34453  1.0000
  H   H1576     1.0  0.06134  0.49549  0.25147  1.0000
  C   C890      1.0  0.30809  0.56510  0.42367  1.0000
  H   H1577     1.0  0.06473  0.46545  0.25221  1.0000
  C   C891      1.0  0.22095  0.64434  0.45839  1.0000
  H   H1578     1.0  0.10082  0.44581  0.24221  1.0000
  C   C892      1.0  0.16562  0.47850  0.24354  1.0000
  C   C893      1.0  0.24707  0.52636  0.47950  1.0000
  S   S205      1.0  0.20642  0.63582  0.47486  1.0000
  C   C894      1.0  0.23961  0.54108  0.46987  1.0000
  H   H1579     1.0  0.20372  0.54813  0.46834  1.0000
  C   C895      1.0  0.19032  0.55305  0.47291  1.0000
  C   C896      1.0  0.16697  0.61583  0.37762  1.0000
  H   H1580     1.0  0.41043  0.62734  0.40361  1.0000
  H   H1581     1.0  0.21526  0.63118  0.41197  1.0000
  H   H1582     1.0  0.30944  0.56336  0.43651  1.0000
  C   C897      1.0  0.03921  0.32733  0.30031  1.0000
  C   C898      1.0  0.27806  0.55013  0.42697  1.0000
  H   H1583     1.0  0.18702  0.56458  0.46377  1.0000
  H   H1584     1.0  0.25722  0.50035  0.48095  1.0000
  H   H1585     1.0  0.23525  0.60381  0.41964  1.0000
  H   H1586     1.0  0.12816  0.45637  0.25135  1.0000
  H   H1587     1.0  0.26238  0.63532  0.44232  1.0000
  H   H1588     1.0  0.44869  0.64512  0.32521  1.0000
  N   N49       1.0  0.40529  0.64864  0.37287  1.0000
  H   H1589     1.0  0.00630  0.32813  0.25655  1.0000
  C   C899      1.0  0.42325  0.64772  0.36416  1.0000
  H   H1590     1.0  0.49390  0.49865  0.26040  1.0000
  S   S206      1.0  0.30790  0.64773  0.42438  1.0000
  H   H1591     1.0  0.20021  0.64904  0.41681  1.0000
  N   N50       1.0  0.18839  0.64305  0.39180  1.0000
  H   H1592     1.0  0.12676  0.42495  0.24158  1.0000
  H   H1593     1.0  0.49332  0.47831  0.24535  1.0000
  H   H1594     1.0  0.07882  0.32925  0.32619  1.0000
  C   C900      1.0  0.40300  0.65280  0.38938  1.0000
  H   H1595     1.0  0.25877  0.65470  0.46594  1.0000
  H   H1596     1.0  0.46728  0.33251  0.24371  1.0000
  C   C901      1.0  0.48101  0.33068  0.24108  1.0000
  C   C902      1.0  0.11055  0.40630  0.23382  1.0000
  H   H1597     1.0  0.18804  0.52928  0.23705  1.0000
  H   H1598     1.0  0.16217  0.65225  0.40059  1.0000
  H   H1599     1.0  0.23098  0.65427  0.35669  1.0000
  H   H1600     1.0  0.00423  0.32300  0.33685  1.0000
  C   C903      1.0  0.48616  0.34719  0.23761  1.0000
  H   H1601     1.0  0.48853  0.65258  0.45105  1.0000
  H   H1602     1.0  0.46238  0.38334  0.23904  1.0000
  H   H1603     1.0  0.20234  0.65279  0.35682  1.0000
  H   H1604     1.0  0.15260  0.46699  0.23292  1.0000
  H   H1605     1.0  0.22320  0.64652  0.53691  1.0000
  S   S207      1.0  0.38345  0.34855  0.64840  1.0000
  H   H1606     1.0  0.09089  0.63828  0.57087  1.0000
  H   H1607     1.0  0.43997  0.37434  0.57719  1.0000
  C   C904      1.0  0.47094  0.56953  0.70215  1.0000
  H   H1608     1.0  0.28474  0.57536  0.54740  1.0000
  H   H1609     1.0  0.40080  0.32899  0.56723  1.0000
  S   S208      1.0  0.42515  0.51297  0.72638  1.0000
  Fe  Fe107     1.0  0.22036  0.56113  0.53920  1.0000
  S   S209      1.0  0.23712  0.53590  0.54200  1.0000
  S   S210      1.0  0.19355  0.56277  0.55212  1.0000
  Fe  Fe108     1.0  0.24809  0.57742  0.51765  1.0000
  S   S211      1.0  0.26678  0.55350  0.51845  1.0000
  H   H1610     1.0  0.41888  0.39770  0.55303  1.0000
  Fe  Fe109     1.0  0.24667  0.54361  0.51466  1.0000
  H   H1611     1.0  0.36145  0.51994  0.72004  1.0000
  Fe  Fe110     1.0  0.25543  0.54844  0.54555  1.0000
  S   S212      1.0  0.27341  0.53779  0.56287  1.0000
  S   S213      1.0  0.22882  0.56803  0.51173  1.0000
  S   S214      1.0  0.23785  0.57310  0.54494  1.0000
  H   H1612     1.0  0.13658  0.57238  0.49234  1.0000
  H   H1613     1.0  0.47203  0.54008  0.69284  1.0000
  H   H1614     1.0  0.29935  0.60406  0.57749  1.0000
  Fe  Fe111     1.0  0.39531  0.57304  0.70972  1.0000
  S   S215      1.0  0.38902  0.58703  0.68518  1.0000
  S   S216      1.0  0.42196  0.56146  0.71134  1.0000
  Fe  Fe112     1.0  0.40351  0.41810  0.67632  1.0000
  S   S217      1.0  0.37730  0.41751  0.68969  1.0000
  S   S218      1.0  0.41907  0.39678  0.66432  1.0000
  Fe  Fe113     1.0  0.40142  0.45191  0.68397  1.0000
  S   S219      1.0  0.37495  0.45360  0.69766  1.0000
  S   S220      1.0  0.41387  0.47350  0.67948  1.0000
  Fe  Fe114     1.0  0.38333  0.42679  0.70881  1.0000
  C   C905      1.0  0.36963  0.57769  0.61962  1.0000
  Fe  Fe115     1.0  0.37179  0.44415  0.67711  1.0000
  S   S221      1.0  0.34926  0.45502  0.66620  1.0000
  S   S222      1.0  0.41019  0.42552  0.69652  1.0000
  S   S223      1.0  0.39761  0.44441  0.66231  1.0000
  Fe  Fe116     1.0  0.29929  0.54398  0.66319  1.0000
  S   S224      1.0  0.32505  0.54638  0.66156  1.0000
  S   S225      1.0  0.28857  0.52449  0.68332  1.0000
  Fe  Fe117     1.0  0.29675  0.56706  0.62980  1.0000
  S   S226      1.0  0.32258  0.57141  0.62519  1.0000
  S   S227      1.0  0.27889  0.57820  0.61244  1.0000
  Fe  Fe118     1.0  0.32952  0.54421  0.63540  1.0000
  S   S228      1.0  0.35315  0.52743  0.62591  1.0000
  Fe  Fe119     1.0  0.31625  0.57326  0.65185  1.0000
  S   S229      1.0  0.32451  0.59278  0.65898  1.0000
  S   S230      1.0  0.30445  0.53961  0.63758  1.0000
  S   S231      1.0  0.28960  0.57133  0.65580  1.0000
  H   H1615     1.0  0.23606  0.60934  0.54864  1.0000
  C   C906      1.0  0.28350  0.54098  0.70826  1.0000
  C   C907      1.0  0.28636  0.52580  0.70382  1.0000
  C   C908      1.0  0.28696  0.51123  0.71601  1.0000
  H   H1616     1.0  0.26016  0.58842  0.55718  1.0000
  H   H1617     1.0  0.28261  0.55229  0.69892  1.0000
  H   H1618     1.0  0.28878  0.49965  0.71255  1.0000
  C   C909      1.0  0.35062  0.47508  0.65509  1.0000
  C   C910      1.0  0.33713  0.48818  0.65778  1.0000
  C   C911      1.0  0.33825  0.50433  0.64937  1.0000
  C   C912      1.0  0.35254  0.50738  0.63756  1.0000
  C   C913      1.0  0.36603  0.49428  0.63473  1.0000
  C   C914      1.0  0.36515  0.47814  0.64366  1.0000
  H   H1619     1.0  0.32589  0.48597  0.66659  1.0000
  H   H1620     1.0  0.32790  0.51434  0.65191  1.0000
  H   H1621     1.0  0.37712  0.49658  0.62563  1.0000
  H   H1622     1.0  0.37556  0.46801  0.64143  1.0000
  C   C915      1.0  0.37101  0.58742  0.67855  1.0000
  C   C916      1.0  0.36168  0.57504  0.68497  1.0000
  C   C917      1.0  0.34769  0.57602  0.67866  1.0000
  C   C918      1.0  0.34289  0.58952  0.66618  1.0000
  C   C919      1.0  0.35223  0.60178  0.65999  1.0000
  C   C920      1.0  0.36630  0.60059  0.66591  1.0000
  H   H1623     1.0  0.36535  0.56471  0.69459  1.0000
  H   H1624     1.0  0.34040  0.56660  0.68365  1.0000
  H   H1625     1.0  0.34855  0.61233  0.65053  1.0000
  H   H1626     1.0  0.37341  0.61017  0.66083  1.0000
  S   S232      1.0  0.38553  0.55050  0.72398  1.0000
  C   C921      1.0  0.40516  0.50431  0.71078  1.0000
  C   C922      1.0  0.40252  0.49482  0.70102  1.0000
  C   C923      1.0  0.41522  0.48209  0.69545  1.0000
  C   C924      1.0  0.43034  0.47843  0.70034  1.0000
  C   C925      1.0  0.43281  0.48751  0.71048  1.0000
  H   H1627     1.0  0.18109  0.54412  0.52609  1.0000
  H   H1628     1.0  0.39093  0.49786  0.69711  1.0000
  H   H1629     1.0  0.44034  0.46886  0.69587  1.0000
  H   H1630     1.0  0.29753  0.55017  0.52957  1.0000
  C   C926      1.0  0.27450  0.54899  0.57687  1.0000
  C   C927      1.0  0.26121  0.56129  0.58223  1.0000
  C   C928      1.0  0.26257  0.57002  0.59332  1.0000
  C   C929      1.0  0.27710  0.56630  0.59941  1.0000
  C   C930      1.0  0.29034  0.55390  0.59415  1.0000
  C   C931      1.0  0.28906  0.54536  0.58287  1.0000
  H   H1631     1.0  0.24984  0.56404  0.57788  1.0000
  H   H1632     1.0  0.25230  0.57965  0.59727  1.0000
  H   H1633     1.0  0.30170  0.55127  0.59846  1.0000
  H   H1634     1.0  0.29948  0.53607  0.57855  1.0000
  H   H1635     1.0  0.19757  0.64863  0.52443  1.0000
  C   C932      1.0  0.15375  0.59948  0.52670  1.0000
  C   C933      1.0  0.17053  0.59953  0.51972  1.0000
  C   C934      1.0  0.18290  0.58812  0.52731  1.0000
  C   C935      1.0  0.17849  0.57683  0.54196  1.0000
  C   C936      1.0  0.16171  0.57676  0.54885  1.0000
  C   C937      1.0  0.14938  0.58799  0.54120  1.0000
  H   H1636     1.0  0.17401  0.60840  0.50854  1.0000
  H   H1637     1.0  0.19582  0.58816  0.52190  1.0000
  H   H1638     1.0  0.15826  0.56802  0.56017  1.0000
  H   H1639     1.0  0.13645  0.58788  0.54664  1.0000
  H   H1640     1.0  0.28833  0.60581  0.50837  1.0000
  C   C938      1.0  0.39338  0.36102  0.65422  1.0000
  C   C939      1.0  0.41032  0.35657  0.65435  1.0000
  C   C940      1.0  0.41797  0.36740  0.65798  1.0000
  C   C941      1.0  0.40878  0.38274  0.66147  1.0000
  C   C942      1.0  0.39176  0.38698  0.66171  1.0000
  C   C943      1.0  0.38411  0.37616  0.65814  1.0000
  H   H1641     1.0  0.41754  0.34485  0.65158  1.0000
  H   H1642     1.0  0.43111  0.36395  0.65788  1.0000
  H   H1643     1.0  0.38454  0.39879  0.66422  1.0000
  H   H1644     1.0  0.37100  0.37968  0.65812  1.0000
  H   H1645     1.0  0.39350  0.55180  0.62702  1.0000
  H   H1646     1.0  0.44461  0.48459  0.71405  1.0000
  H   H1647     1.0  0.10568  0.59641  0.54240  1.0000
  H   H1648     1.0  0.32287  0.56687  0.71212  1.0000
  H   H1649     1.0  0.47119  0.51793  0.68015  1.0000
  N   N51       1.0  0.38462  0.53763  0.65132  1.0000
  C   C944      1.0  0.39419  0.52101  0.64769  1.0000
  C   C945      1.0  0.36788  0.53563  0.66216  1.0000
  C   C946      1.0  0.38160  0.54910  0.63518  1.0000
  C   C947      1.0  0.39370  0.54539  0.65904  1.0000
  C   C948      1.0  0.40534  0.53351  0.67024  1.0000
  C   C949      1.0  0.41026  0.52129  0.63405  1.0000
  H   H1650     1.0  0.47965  0.32806  0.59629  1.0000
  C   C950      1.0  0.36769  0.52334  0.67900  1.0000
  C   C951      1.0  0.35000  0.52152  0.68770  1.0000
  C   C952      1.0  0.41088  0.54288  0.67983  1.0000
  C   C953      1.0  0.42137  0.50400  0.63463  1.0000
  H   H1651     1.0  0.38620  0.51509  0.64377  1.0000
  H   H1652     1.0  0.39755  0.51222  0.65895  1.0000
  H   H1653     1.0  0.36048  0.54761  0.66518  1.0000
  H   H1654     1.0  0.36074  0.53174  0.65534  1.0000
  H   H1655     1.0  0.37660  0.54304  0.62825  1.0000
  C   C954      1.0  0.14100  0.63555  0.54903  1.0000
  H   H1656     1.0  0.40163  0.55322  0.64941  1.0000
  H   H1657     1.0  0.38465  0.55416  0.66631  1.0000
  H   H1658     1.0  0.41665  0.52699  0.66277  1.0000
  H   H1659     1.0  0.39923  0.52403  0.67923  1.0000
  H   H1660     1.0  0.40701  0.52569  0.62171  1.0000
  H   H1661     1.0  0.41744  0.52972  0.63526  1.0000
  H   H1662     1.0  0.35663  0.56448  0.64178  1.0000
  H   H1663     1.0  0.37492  0.51084  0.67753  1.0000
  H   H1664     1.0  0.37250  0.52800  0.68721  1.0000
  H   H1665     1.0  0.34201  0.53366  0.68968  1.0000
  H   H1666     1.0  0.34469  0.51626  0.68034  1.0000
  H   H1667     1.0  0.35003  0.51303  0.69989  1.0000
  H   H1668     1.0  0.41745  0.55245  0.67127  1.0000
  H   H1669     1.0  0.39998  0.54897  0.68811  1.0000
  H   H1670     1.0  0.41940  0.53412  0.68753  1.0000
  H   H1671     1.0  0.43245  0.50440  0.62435  1.0000
  H   H1672     1.0  0.42563  0.49936  0.64648  1.0000
  H   H1673     1.0  0.41453  0.49523  0.63343  1.0000
  N   N52       1.0  0.41350  0.38518  0.60434  1.0000
  C   C955      1.0  0.40131  0.37455  0.60640  1.0000
  C   C956      1.0  0.42819  0.37511  0.61182  1.0000
  C   C957      1.0  0.40465  0.39880  0.61369  1.0000
  C   C958      1.0  0.41918  0.39314  0.58651  1.0000
  C   C959      1.0  0.42769  0.38127  0.57453  1.0000
  C   C960      1.0  0.38504  0.38338  0.60028  1.0000
  C   C961      1.0  0.41561  0.40955  0.61583  1.0000
  C   C962      1.0  0.43363  0.35646  0.61129  1.0000
  C   C963      1.0  0.44963  0.34845  0.61755  1.0000
  C   C964      1.0  0.37442  0.37102  0.60209  1.0000
  C   C965      1.0  0.40504  0.42309  0.62501  1.0000
  H   H1674     1.0  0.39766  0.36879  0.61967  1.0000
  H   H1675     1.0  0.40702  0.36397  0.60022  1.0000
  H   H1676     1.0  0.43918  0.38087  0.60625  1.0000
  H   H1677     1.0  0.42546  0.37517  0.62516  1.0000
  H   H1678     1.0  0.39818  0.39343  0.62631  1.0000
  H   H1679     1.0  0.39481  0.40754  0.60758  1.0000
  H   H1680     1.0  0.40866  0.40215  0.58167  1.0000
  H   H1681     1.0  0.42833  0.40064  0.58534  1.0000
  H   H1682     1.0  0.42006  0.37241  0.57534  1.0000
  H   H1683     1.0  0.37744  0.39263  0.60769  1.0000
  H   H1684     1.0  0.38769  0.38962  0.58708  1.0000
  H   H1685     1.0  0.42216  0.41573  0.60374  1.0000
  H   H1686     1.0  0.42500  0.40201  0.62311  1.0000
  H   H1687     1.0  0.42392  0.34981  0.61940  1.0000
  H   H1688     1.0  0.43563  0.35440  0.59873  1.0000
  H   H1689     1.0  0.44792  0.34962  0.63047  1.0000
  C   C966      1.0  0.41727  0.44630  0.73033  1.0000
  C   C967      1.0  0.27175  0.60108  0.48826  1.0000
  H   H1690     1.0  0.37143  0.36434  0.61517  1.0000
  H   H1691     1.0  0.36259  0.37764  0.59820  1.0000
  H   H1692     1.0  0.38102  0.36187  0.59425  1.0000
  H   H1693     1.0  0.39590  0.43168  0.61792  1.0000
  H   H1694     1.0  0.39832  0.41758  0.63739  1.0000
  H   H1695     1.0  0.41317  0.43029  0.62681  1.0000
  N   N53       1.0  0.30848  0.44940  0.71019  1.0000
  C   C968      1.0  0.29837  0.44584  0.70019  1.0000
  C   C969      1.0  0.20622  0.61634  0.52673  1.0000
  C   C970      1.0  0.31302  0.46594  0.70190  1.0000
  C   C971      1.0  0.32433  0.43644  0.71101  1.0000
  H   H1696     1.0  0.35699  0.59674  0.71780  1.0000
  C   C972      1.0  0.30778  0.44283  0.68277  1.0000
  H   H1697     1.0  0.10286  0.62610  0.53109  1.0000
  H   H1698     1.0  0.45420  0.64146  0.71269  1.0000
  H   H1699     1.0  0.08112  0.63259  0.53639  1.0000
  C   C973      1.0  0.21690  0.62858  0.51610  1.0000
  C   C974      1.0  0.29621  0.44004  0.67353  1.0000
  C   C975      1.0  0.06018  0.64998  0.58395  1.0000
  H   H1700     1.0  0.28766  0.45637  0.69832  1.0000
  H   H1701     1.0  0.29264  0.43507  0.70705  1.0000
  C   C976      1.0  0.12328  0.63292  0.55273  1.0000
  H   H1702     1.0  0.16816  0.56499  0.50948  1.0000
  H   H1703     1.0  0.30225  0.47528  0.69786  1.0000
  H   H1704     1.0  0.32246  0.46486  0.69036  1.0000
  H   H1705     1.0  0.33288  0.43713  0.69866  1.0000
  H   H1706     1.0  0.29393  0.57620  0.69836  1.0000
  C   C977      1.0  0.28485  0.58721  0.48873  1.0000
  C   C978      1.0  0.14203  0.58201  0.49403  1.0000
  H   H1707     1.0  0.31304  0.45364  0.67522  1.0000
  H   H1708     1.0  0.31806  0.43173  0.68356  1.0000
  H   H1709     1.0  0.27816  0.55326  0.72849  1.0000
  C   C979      1.0  0.08641  0.64886  0.56133  1.0000
  H   H1710     1.0  0.32856  0.49605  0.70952  1.0000
  S   S233      1.0  0.39867  0.32694  0.61102  1.0000
  N   N54       1.0  0.28794  0.60023  0.53447  1.0000
  H   H1711     1.0  0.46693  0.56719  0.69193  1.0000
  H   H1712     1.0  0.42774  0.42166  0.72509  1.0000
  C   C980      1.0  0.29834  0.44951  0.72746  1.0000
  H   H1713     1.0  0.34623  0.49346  0.72865  1.0000
  H   H1714     1.0  0.20686  0.53465  0.49527  1.0000
  H   H1715     1.0  0.29109  0.42890  0.68028  1.0000
  H   H1716     1.0  0.28583  0.45096  0.67203  1.0000
  H   H1717     1.0  0.30325  0.43808  0.66108  1.0000
  H   H1718     1.0  0.34400  0.40663  0.70199  1.0000
  C   C981      1.0  0.34046  0.53976  0.72612  1.0000
  C   C982      1.0  0.28534  0.51163  0.73253  1.0000
  H   H1719     1.0  0.12427  0.62045  0.55074  1.0000
  H   H1720     1.0  0.35081  0.56911  0.72610  1.0000
  H   H1721     1.0  0.34808  0.40902  0.72067  1.0000
  S   S234      1.0  0.25182  0.52500  0.49866  1.0000
  H   H1722     1.0  0.26643  0.65054  0.48462  1.0000
  C   C983      1.0  0.29986  0.58829  0.56124  1.0000
  H   H1723     1.0  0.28667  0.58125  0.72726  1.0000
  H   H1724     1.0  0.31047  0.47741  0.72267  1.0000
  H   H1725     1.0  0.39549  0.51447  0.71453  1.0000
  H   H1726     1.0  0.31739  0.49736  0.69421  1.0000
  H   H1727     1.0  0.21391  0.60358  0.52792  1.0000
  H   H1728     1.0  0.16256  0.55273  0.49926  1.0000
  H   H1729     1.0  0.46649  0.49878  0.69317  1.0000
  H   H1730     1.0  0.30007  0.64740  0.49314  1.0000
  H   H1731     1.0  0.43726  0.38208  0.54836  1.0000
  H   H1732     1.0  0.43878  0.39974  0.55494  1.0000
  C   C984      1.0  0.42050  0.50087  0.71523  1.0000
  H   H1733     1.0  0.33738  0.39334  0.72149  1.0000
  H   H1734     1.0  0.34673  0.54942  0.71754  1.0000
  H   H1735     1.0  0.38211  0.58047  0.61390  1.0000
  N   N55       1.0  0.30041  0.49569  0.61843  1.0000
  C   C985      1.0  0.29625  0.49961  0.63533  1.0000
  C   C986      1.0  0.31027  0.50774  0.60642  1.0000
  C   C987      1.0  0.28419  0.49873  0.61311  1.0000
  C   C988      1.0  0.30958  0.47799  0.61827  1.0000
  C   C989      1.0  0.32144  0.46986  0.63052  1.0000
  C   C990      1.0  0.28388  0.49000  0.64860  1.0000
  C   C991      1.0  0.28547  0.49702  0.59527  1.0000
  C   C992      1.0  0.32787  0.50651  0.60868  1.0000
  C   C993      1.0  0.33562  0.52043  0.59657  1.0000
  C   C994      1.0  0.33203  0.45325  0.62707  1.0000
  C   C995      1.0  0.28442  0.49044  0.66603  1.0000
  C   C996      1.0  0.26850  0.49734  0.59247  1.0000
  H   H1736     1.0  0.29056  0.51302  0.63463  1.0000
  H   H1737     1.0  0.30761  0.49768  0.64006  1.0000
  H   H1738     1.0  0.31228  0.50623  0.59359  1.0000
  H   H1739     1.0  0.30318  0.52061  0.60677  1.0000
  H   H1740     1.0  0.27675  0.51140  0.61423  1.0000
  H   H1741     1.0  0.27647  0.48996  0.62140  1.0000
  H   H1742     1.0  0.30066  0.46975  0.62113  1.0000
  H   H1743     1.0  0.31688  0.47702  0.60560  1.0000
  H   H1744     1.0  0.31430  0.46749  0.64342  1.0000
  H   H1745     1.0  0.32995  0.47772  0.63000  1.0000
  H   H1746     1.0  0.27101  0.49579  0.64691  1.0000
  H   H1747     1.0  0.28641  0.47690  0.64766  1.0000
  H   H1748     1.0  0.29400  0.48532  0.59268  1.0000
  H   H1749     1.0  0.28996  0.50756  0.58607  1.0000
  H   H1750     1.0  0.32762  0.50747  0.62127  1.0000
  H   H1751     1.0  0.33610  0.49469  0.60606  1.0000
  H   H1752     1.0  0.34883  0.51830  0.59719  1.0000
  H   H1753     1.0  0.33514  0.52087  0.58369  1.0000
  H   H1754     1.0  0.32907  0.53254  0.59983  1.0000
  H   H1755     1.0  0.34019  0.45497  0.61456  1.0000
  H   H1756     1.0  0.34004  0.44764  0.63624  1.0000
  H   H1757     1.0  0.32405  0.44461  0.62808  1.0000
  H   H1758     1.0  0.28087  0.50342  0.66758  1.0000
  H   H1759     1.0  0.27548  0.48348  0.67520  1.0000
  H   H1760     1.0  0.29703  0.48480  0.66848  1.0000
  H   H1761     1.0  0.25968  0.50908  0.59464  1.0000
  H   H1762     1.0  0.26972  0.49668  0.57948  1.0000
  H   H1763     1.0  0.26341  0.48668  0.60076  1.0000
  H   H1764     1.0  0.39028  0.47021  0.72673  1.0000
  H   H1765     1.0  0.26916  0.62198  0.53956  1.0000
  H   H1766     1.0  0.46549  0.59613  0.69277  1.0000
  H   H1767     1.0  0.45083  0.51758  0.69343  1.0000
  H   H1768     1.0  0.31116  0.60248  0.53853  1.0000
  C   C997      1.0  0.29268  0.62742  0.51317  1.0000
  H   H1769     1.0  0.19591  0.61708  0.52087  1.0000
  H   H1770     1.0  0.26463  0.60304  0.56627  1.0000
  H   H1771     1.0  0.30774  0.57584  0.51330  1.0000
  C   C998      1.0  0.36960  0.56608  0.63653  1.0000
  H   H1772     1.0  0.33628  0.60558  0.72762  1.0000
  H   H1773     1.0  0.30253  0.59324  0.72120  1.0000
  H   H1774     1.0  0.20030  0.55101  0.51876  1.0000
  C   C999      1.0  0.46718  0.53403  0.70578  1.0000
  H   H1775     1.0  0.09199  0.58914  0.56141  1.0000
  C   C1000     1.0  0.43081  0.39086  0.55664  1.0000
  H   H1776     1.0  0.29325  0.61414  0.54929  1.0000
  H   H1777     1.0  0.13925  0.58218  0.50736  1.0000
  H   H1778     1.0  0.28684  0.59774  0.69935  1.0000
  H   H1779     1.0  0.28776  0.58550  0.56828  1.0000
  C   C1001     1.0  0.25989  0.60159  0.55610  1.0000
  H   H1780     1.0  0.27960  0.58167  0.52792  1.0000
  H   H1781     1.0  0.01635  0.64406  0.59341  1.0000
  C   C1002     1.0  0.29697  0.58668  0.70134  1.0000
  N   N56       1.0  0.47444  0.53878  0.71757  1.0000
  C   C1003     1.0  0.09324  0.59951  0.55050  1.0000
  C   C1004     1.0  0.28871  0.58239  0.53470  1.0000
  H   H1782     1.0  0.36588  0.57205  0.61138  1.0000
  H   H1783     1.0  0.46550  0.63946  0.72819  1.0000
  H   H1784     1.0  0.06252  0.64405  0.56054  1.0000
  H   H1785     1.0  0.29755  0.63108  0.52204  1.0000
  H   H1786     1.0  0.26328  0.60944  0.52966  1.0000
  C   C1005     1.0  0.33898  0.40614  0.71539  1.0000
  H   H1787     1.0  0.46554  0.59009  0.71451  1.0000
  H   H1788     1.0  0.08351  0.60083  0.54365  1.0000
  C   C1006     1.0  0.32016  0.47367  0.71205  1.0000
  C   C1007     1.0  0.30593  0.57273  0.52697  1.0000
  H   H1789     1.0  0.30790  0.57663  0.55799  1.0000
  H   H1790     1.0  0.33323  0.53608  0.71926  1.0000
  H   H1791     1.0  0.36057  0.58949  0.62107  1.0000
  H   H1792     1.0  0.31617  0.57600  0.53018  1.0000
  H   H1793     1.0  0.00347  0.63600  0.62313  1.0000
  H   H1794     1.0  0.19688  0.51476  0.52883  1.0000
  H   H1795     1.0  0.07907  0.61769  0.56463  1.0000
  H   H1796     1.0  0.21616  0.52199  0.52155  1.0000
  H   H1797     1.0  0.24041  0.62387  0.55793  1.0000
  C   C1008     1.0  0.29819  0.60205  0.54545  1.0000
  H   H1798     1.0  0.27240  0.45763  0.72496  1.0000
  C   C1009     1.0  0.31210  0.56638  0.72268  1.0000
  C   C1010     1.0  0.27004  0.60894  0.53921  1.0000
  H   H1799     1.0  0.41225  0.45104  0.71894  1.0000
  H   H1800     1.0  0.33071  0.46488  0.71684  1.0000
  H   H1801     1.0  0.22270  0.62460  0.50421  1.0000
  C   C1011     1.0  0.09259  0.63033  0.54115  1.0000
  C   C1012     1.0  0.32650  0.48903  0.70146  1.0000
  H   H1802     1.0  0.20101  0.61897  0.53927  1.0000
  C   C1013     1.0  0.30750  0.55403  0.53264  1.0000
  H   H1803     1.0  0.33676  0.58363  0.71382  1.0000
  C   C1014     1.0  0.09136  0.61546  0.55612  1.0000
  Fe  Fe120     1.0  0.39770  0.32611  0.63754  1.0000
  H   H1804     1.0  0.18631  0.53113  0.50271  1.0000
  H   H1805     1.0  0.29738  0.63033  0.48644  1.0000
  S   S235      1.0  0.25406  0.60205  0.50424  1.0000
  H   H1806     1.0  0.33137  0.43892  0.71881  1.0000
  H   H1807     1.0  0.30668  0.55018  0.54617  1.0000
  H   H1808     1.0  0.44107  0.43625  0.71591  1.0000
  H   H1809     1.0  0.37902  0.45457  0.73083  1.0000
  S   S236      1.0  0.13802  0.61371  0.51766  1.0000
  C   C1015     1.0  0.19394  0.54029  0.50103  1.0000
  H   H1810     1.0  0.46994  0.56003  0.72849  1.0000
  H   H1811     1.0  0.06399  0.63688  0.59022  1.0000
  C   C1016     1.0  0.19794  0.56853  0.48926  1.0000
  H   H1812     1.0  0.23467  0.60495  0.57055  1.0000
  H   H1813     1.0  0.30862  0.58949  0.69284  1.0000
  C   C1017     1.0  0.24165  0.61057  0.55837  1.0000
  H   H1814     1.0  0.49380  0.34183  0.59048  1.0000
  H   H1815     1.0  0.09862  0.64944  0.51022  1.0000
  H   H1816     1.0  0.45997  0.35430  0.60959  1.0000
  H   H1817     1.0  0.45297  0.33508  0.61730  1.0000
  H   H1818     1.0  0.10090  0.61330  0.56334  1.0000
  C   C1018     1.0  0.32230  0.41829  0.71817  1.0000
  C   C1019     1.0  0.49206  0.32917  0.59699  1.0000
  H   H1819     1.0  0.37312  0.57225  0.64446  1.0000
  H   H1820     1.0  0.19809  0.64568  0.50486  1.0000
  C   C1020     1.0  0.29457  0.60839  0.51686  1.0000
  C   C1021     1.0  0.29897  0.58258  0.71917  1.0000
  H   H1821     1.0  0.45354  0.53879  0.70775  1.0000
  S   S237      1.0  0.16140  0.65045  0.49830  1.0000
  H   H1822     1.0  0.30940  0.58279  0.58347  1.0000
  C   C1022     1.0  0.47034  0.51526  0.70631  1.0000
  C   C1023     1.0  0.19397  0.54134  0.51879  1.0000
  H   H1823     1.0  0.20250  0.52603  0.54064  1.0000
  C   C1024     1.0  0.11295  0.64621  0.54116  1.0000
  C   C1025     1.0  0.46434  0.51228  0.69239  1.0000
  C   C1026     1.0  0.20292  0.52498  0.52795  1.0000
  H   H1824     1.0  0.30696  0.55605  0.72199  1.0000
  H   H1825     1.0  0.27942  0.63372  0.51388  1.0000
  H   H1826     1.0  0.30801  0.60305  0.51290  1.0000
  H   H1827     1.0  0.46347  0.50888  0.71815  1.0000
  H   H1828     1.0  0.11786  0.63324  0.56589  1.0000
  C   C1027     1.0  0.30764  0.59320  0.57272  1.0000
  H   H1829     1.0  0.31967  0.54758  0.52634  1.0000
  H   H1830     1.0  0.31994  0.59612  0.56623  1.0000
  H   H1831     1.0  0.31395  0.41493  0.71240  1.0000
  H   H1832     1.0  0.33840  0.48537  0.69281  1.0000
  C   C1028     1.0  0.28147  0.46211  0.72883  1.0000
  H   H1833     1.0  0.31554  0.62838  0.49430  1.0000
  H   H1834     1.0  0.49236  0.32722  0.61020  1.0000
  Fe  Fe121     1.0  0.41160  0.53949  0.72716  1.0000
  H   H1835     1.0  0.16526  0.58923  0.48820  1.0000
  C   C1029     1.0  0.06715  0.65229  0.56535  1.0000
  C   C1030     1.0  0.28103  0.54149  0.72495  1.0000
  C   C1031     1.0  0.46204  0.58705  0.70433  1.0000
  C   C1032     1.0  0.30201  0.63372  0.49569  1.0000
  H   H1836     1.0  0.21069  0.56185  0.49079  1.0000
  H   H1837     1.0  0.28401  0.57660  0.49871  1.0000
  H   H1838     1.0  0.11945  0.64454  0.52847  1.0000
  H   H1839     1.0  0.19256  0.57477  0.49984  1.0000
  C   C1033     1.0  0.46676  0.55662  0.71830  1.0000
  H   H1840     1.0  0.36662  0.49053  0.71531  1.0000
  H   H1841     1.0  0.24002  0.64432  0.50103  1.0000
  N   N57       1.0  0.18772  0.55641  0.48985  1.0000
  C   C1034     1.0  0.34021  0.57984  0.72600  1.0000
  H   H1842     1.0  0.22685  0.62766  0.52244  1.0000
  H   H1843     1.0  0.35455  0.47485  0.72104  1.0000
  C   C1035     1.0  0.00223  0.64894  0.61710  1.0000
  C   C1036     1.0  0.35385  0.52474  0.73107  1.0000
  H   H1844     1.0  0.44836  0.58828  0.70716  1.0000
  Fe  Fe122     1.0  0.14818  0.63221  0.49607  1.0000
  S   S238      1.0  0.39044  0.58497  0.73141  1.0000
  C   C1037     1.0  0.16965  0.56250  0.49707  1.0000
  C   C1038     1.0  0.35781  0.48428  0.72542  1.0000
  H   H1845     1.0  0.48445  0.56925  0.69841  1.0000
  N   N58       1.0  0.09477  0.64608  0.54418  1.0000
  C   C1039     1.0  0.49300  0.53614  0.71135  1.0000
  H   H1846     1.0  0.46434  0.32304  0.51074  1.0000
  H   H1847     1.0  0.23023  0.64888  0.48444  1.0000
  H   H1848     1.0  0.28260  0.47438  0.72092  1.0000
  H   H1849     1.0  0.14829  0.62562  0.55715  1.0000
  C   C1040     1.0  0.34627  0.59420  0.72804  1.0000
  C   C1041     1.0  0.43195  0.43196  0.72714  1.0000
  H   H1850     1.0  0.48372  0.50941  0.70498  1.0000
  H   H1851     1.0  0.45302  0.55846  0.72156  1.0000
  H   H1852     1.0  0.47384  0.64773  0.70677  1.0000
  H   H1853     1.0  0.14720  0.63499  0.53601  1.0000
  C   C1042     1.0  0.20626  0.64635  0.51265  1.0000
  S   S239      1.0  0.44379  0.32272  0.58844  1.0000
  C   C1043     1.0  0.46228  0.64731  0.71646  1.0000
  H   H1854     1.0  0.14096  0.64772  0.55123  1.0000
  C   C1044     1.0  0.00950  0.65349  0.60032  1.0000
  C   C1045     1.0  0.23201  0.65449  0.49387  1.0000
  H   H1855     1.0  0.20175  0.60018  0.48648  1.0000
  H   H1856     1.0  0.27167  0.55142  0.48321  1.0000
  H   H1857     1.0  0.13614  0.59426  0.48738  1.0000
  C   C1046     1.0  0.16075  0.57871  0.48713  1.0000
  H   H1858     1.0  0.04641  0.65333  0.58641  1.0000
  H   H1859     1.0  0.24122  0.65275  0.52237  1.0000
  H   H1860     1.0  0.28950  0.53453  0.48301  1.0000
  H   H1861     1.0  0.31725  0.41639  0.73170  1.0000
  H   H1862     1.0  0.35567  0.44741  0.73203  1.0000
  H   H1863     1.0  0.42206  0.45612  0.73250  1.0000
  H   H1864     1.0  0.39860  0.43173  0.74154  1.0000
  H   H1865     1.0  0.37465  0.53909  0.80004  1.0000
  H   H1866     1.0  0.36380  0.43516  0.79838  1.0000
  H   H1867     1.0  0.45309  0.50342  0.75344  1.0000
  H   H1868     1.0  0.35032  0.59109  0.73993  1.0000
  S   S240      1.0  0.45990  0.63594  0.80502  1.0000
  C   C1047     1.0  0.23548  0.42475  0.96504  1.0000
  H   H1869     1.0  0.31620  0.58734  0.74142  1.0000
  H   H1870     1.0  0.27147  0.33664  0.95429  1.0000
  H   H1871     1.0  0.29429  0.55456  0.75060  1.0000
  S   S241      1.0  0.36063  0.56042  0.76671  1.0000
  H   H1872     1.0  0.48028  0.64562  0.90852  1.0000
  Fe  Fe123     1.0  0.32316  0.48686  0.78439  1.0000
  S   S242      1.0  0.30091  0.50501  0.79417  1.0000
  S   S243      1.0  0.34993  0.48767  0.78101  1.0000
  Fe  Fe124     1.0  0.30224  0.46644  0.77864  1.0000
  S   S244      1.0  0.27803  0.48286  0.78787  1.0000
  S   S245      1.0  0.30351  0.44264  0.77171  1.0000
  Fe  Fe125     1.0  0.29092  0.50355  0.77320  1.0000
  S   S246      1.0  0.27981  0.52753  0.75777  1.0000
  Fe  Fe126     1.0  0.29011  0.48279  0.80802  1.0000
  S   S247      1.0  0.27858  0.48028  0.83525  1.0000
  S   S248      1.0  0.31409  0.48711  0.76222  1.0000
  S   S249      1.0  0.31336  0.46466  0.79993  1.0000
  Fe  Fe127     1.0  0.23440  0.41307  0.89464  1.0000
  S   S250      1.0  0.25068  0.38844  0.90237  1.0000
  S   S251      1.0  0.23571  0.42562  0.86783  1.0000
  Fe  Fe128     1.0  0.21444  0.41374  0.92956  1.0000
  S   S252      1.0  0.22887  0.38926  0.94039  1.0000
  S   S253      1.0  0.19341  0.42989  0.94385  1.0000
  Fe  Fe129     1.0  0.25112  0.39833  0.92366  1.0000
  S   S254      1.0  0.27528  0.39457  0.93095  1.0000
  Fe  Fe130     1.0  0.22727  0.38126  0.91829  1.0000
  S   S255      1.0  0.22472  0.35528  0.92139  1.0000
  S   S256      1.0  0.23686  0.42376  0.91469  1.0000
  S   S257      1.0  0.21072  0.40501  0.90880  1.0000
  H   H1873     1.0  0.19991  0.40016  0.96951  1.0000
  C   C1048     1.0  0.20453  0.35232  0.92479  1.0000
  C   C1049     1.0  0.20119  0.33675  0.93288  1.0000
  H   H1874     1.0  0.00313  0.32912  0.82052  1.0000
  C   C1050     1.0  0.17231  0.34692  0.93105  1.0000
  C   C1051     1.0  0.17571  0.36240  0.92251  1.0000
  C   C1052     1.0  0.19183  0.36514  0.91947  1.0000
  H   H1875     1.0  0.37198  0.61089  0.77965  1.0000
  H   H1876     1.0  0.28046  0.56921  0.78194  1.0000
  H   H1877     1.0  0.16585  0.37221  0.91836  1.0000
  H   H1878     1.0  0.19454  0.37702  0.91280  1.0000
  C   C1053     1.0  0.28323  0.37358  0.93848  1.0000
  C   C1054     1.0  0.29977  0.36842  0.94012  1.0000
  C   C1055     1.0  0.30618  0.35176  0.94652  1.0000
  C   C1056     1.0  0.29592  0.34031  0.95168  1.0000
  C   C1057     1.0  0.27933  0.34550  0.95028  1.0000
  C   C1058     1.0  0.27303  0.36207  0.94347  1.0000
  H   H1879     1.0  0.30768  0.37729  0.93632  1.0000
  H   H1880     1.0  0.31899  0.34778  0.94768  1.0000
  H   H1881     1.0  0.26027  0.36590  0.94221  1.0000
  C   C1059     1.0  0.19291  0.42678  0.96502  1.0000
  H   H1882     1.0  0.36799  0.48665  0.74453  1.0000
  H   H1883     1.0  0.45611  0.65401  0.89533  1.0000
  N   N59       1.0  0.25362  0.39888  0.98017  1.0000
  H   H1884     1.0  0.18561  0.45288  0.96456  1.0000
  H   H1885     1.0  0.24441  0.44282  0.94354  1.0000
  C   C1060     1.0  0.47079  0.52830  0.73472  1.0000
  C   C1061     1.0  0.26603  0.46564  0.84437  1.0000
  C   C1062     1.0  0.25750  0.46114  0.83511  1.0000
  C   C1063     1.0  0.24787  0.44915  0.84263  1.0000
  C   C1064     1.0  0.24723  0.44116  0.85921  1.0000
  C   C1065     1.0  0.25579  0.44561  0.86846  1.0000
  C   C1066     1.0  0.26487  0.45810  0.86114  1.0000
  H   H1886     1.0  0.25821  0.46703  0.82222  1.0000
  H   H1887     1.0  0.24098  0.44592  0.83558  1.0000
  H   H1888     1.0  0.25549  0.43942  0.88122  1.0000
  H   H1889     1.0  0.27144  0.46157  0.86835  1.0000
  Fe  Fe131     1.0  0.38280  0.56131  0.74580  1.0000
  H   H1890     1.0  0.43136  0.63658  0.90414  1.0000
  C   C1067     1.0  0.19723  0.45057  0.87952  1.0000
  C   C1068     1.0  0.35547  0.42230  0.74463  1.0000
  H   H1891     1.0  0.24490  0.33371  0.96781  1.0000
  C   C1069     1.0  0.32970  0.41777  0.76372  1.0000
  C   C1070     1.0  0.32340  0.43485  0.76114  1.0000
  C   C1071     1.0  0.33291  0.44559  0.74989  1.0000
  C   C1072     1.0  0.32548  0.57562  0.74019  1.0000
  H   H1892     1.0  0.42145  0.61409  0.73404  1.0000
  H   H1893     1.0  0.27270  0.45240  0.75507  1.0000
  H   H1894     1.0  0.32794  0.45875  0.74753  1.0000
  H   H1895     1.0  0.22742  0.34058  0.95787  1.0000
  C   C1073     1.0  0.35812  0.53991  0.77237  1.0000
  C   C1074     1.0  0.34335  0.53589  0.78250  1.0000
  C   C1075     1.0  0.34075  0.51979  0.78538  1.0000
  C   C1076     1.0  0.35311  0.50764  0.77848  1.0000
  C   C1077     1.0  0.36821  0.51150  0.76917  1.0000
  C   C1078     1.0  0.37065  0.52761  0.76602  1.0000
  H   H1896     1.0  0.33377  0.54528  0.78776  1.0000
  H   H1897     1.0  0.32927  0.51677  0.79303  1.0000
  H   H1898     1.0  0.37788  0.50226  0.76384  1.0000
  H   H1899     1.0  0.38217  0.53048  0.75836  1.0000
  C   C1079     1.0  0.44125  0.62512  0.75790  1.0000
  H   H1900     1.0  0.26376  0.32579  0.88063  1.0000
  C   C1080     1.0  0.40656  0.45927  0.76936  1.0000
  H   H1901     1.0  0.17760  0.43659  0.89065  1.0000
  C   C1081     1.0  0.44681  0.59517  0.76098  1.0000
  C   C1082     1.0  0.44894  0.60923  0.76508  1.0000
  C   C1083     1.0  0.44939  0.51525  0.75771  1.0000
  H   H1902     1.0  0.45315  0.58302  0.76635  1.0000
  H   H1903     1.0  0.45684  0.60779  0.77349  1.0000
  H   H1904     1.0  0.44464  0.52988  0.73441  1.0000
  H   H1905     1.0  0.17914  0.49957  0.83479  1.0000
  H   H1906     1.0  0.16236  0.44414  0.93025  1.0000
  C   C1084     1.0  0.39559  0.46635  0.75644  1.0000
  H   H1907     1.0  0.17082  0.39784  0.92005  1.0000
  C   C1085     1.0  0.20540  0.47359  0.88460  1.0000
  C   C1086     1.0  0.43676  0.59673  0.74989  1.0000
  C   C1087     1.0  0.17352  0.49604  0.84812  1.0000
  C   C1088     1.0  0.13819  0.36389  0.97473  1.0000
  H   H1908     1.0  0.19699  0.49046  0.85481  1.0000
  C   C1089     1.0  0.41259  0.47306  0.77263  1.0000
  H   H1909     1.0  0.25887  0.42354  0.97098  1.0000
  C   C1090     1.0  0.43495  0.65327  0.87967  1.0000
  H   H1910     1.0  0.23117  0.41877  0.95749  1.0000
  H   H1911     1.0  0.14305  0.45892  0.92922  1.0000
  C   C1091     1.0  0.18214  0.46267  0.90403  1.0000
  C   C1092     1.0  0.48728  0.63755  0.89970  1.0000
  S   S258      1.0  0.40804  0.54846  0.75030  1.0000
  H   H1912     1.0  0.19886  0.43237  0.85642  1.0000
  C   C1093     1.0  0.23553  0.44257  0.95567  1.0000
  H   H1913     1.0  0.15984  0.46446  0.93399  1.0000
  H   H1914     1.0  0.15958  0.45657  0.90125  1.0000
  H   H1915     1.0  0.20100  0.48602  0.88780  1.0000
  H   H1916     1.0  0.18255  0.42172  0.86841  1.0000
  H   H1917     1.0  0.15654  0.47690  0.90490  1.0000
  H   H1918     1.0  0.21207  0.45934  0.90847  1.0000
  C   C1094     1.0  0.19220  0.42774  0.86916  1.0000
  H   H1919     1.0  0.16868  0.50746  0.85314  1.0000
  H   H1920     1.0  0.40187  0.48240  0.77748  1.0000
  H   H1921     1.0  0.23737  0.47681  0.88156  1.0000
  S   S259      1.0  0.15198  0.34377  0.93619  1.0000
  C   C1095     1.0  0.30159  0.38795  0.97725  1.0000
  H   H1922     1.0  0.24059  0.46438  0.90138  1.0000
  N   N60       1.0  0.30124  0.41275  0.82330  1.0000
  C   C1096     1.0  0.28833  0.42624  0.81571  1.0000
  C   C1097     1.0  0.30990  0.41966  0.83227  1.0000
  C   C1098     1.0  0.31419  0.40633  0.80934  1.0000
  C   C1099     1.0  0.29397  0.39845  0.83457  1.0000
  C   C1100     1.0  0.27844  0.40271  0.84816  1.0000
  C   C1101     1.0  0.27864  0.42089  0.80587  1.0000
  C   C1102     1.0  0.32949  0.39323  0.81437  1.0000
  C   C1103     1.0  0.29948  0.43388  0.84099  1.0000
  C   C1104     1.0  0.30924  0.43798  0.85128  1.0000
  C   C1105     1.0  0.27089  0.38755  0.85674  1.0000
  C   C1106     1.0  0.26499  0.43520  0.80004  1.0000
  C   C1107     1.0  0.34218  0.38845  0.79921  1.0000
  H   H1923     1.0  0.29423  0.43641  0.80733  1.0000
  H   H1924     1.0  0.27890  0.43218  0.82520  1.0000
  H   H1925     1.0  0.31565  0.40962  0.84159  1.0000
  H   H1926     1.0  0.32036  0.42492  0.82348  1.0000
  H   H1927     1.0  0.31884  0.41685  0.80003  1.0000
  H   H1928     1.0  0.30876  0.40043  0.80266  1.0000
  H   H1929     1.0  0.29085  0.39134  0.82718  1.0000
  H   H1930     1.0  0.30334  0.38945  0.84114  1.0000
  H   H1931     1.0  0.26856  0.41246  0.84312  1.0000
  H   H1932     1.0  0.28184  0.40670  0.85777  1.0000
  H   H1933     1.0  0.28697  0.41690  0.79470  1.0000
  H   H1934     1.0  0.27263  0.41060  0.81353  1.0000
  H   H1935     1.0  0.32568  0.38177  0.82228  1.0000
  H   H1936     1.0  0.33593  0.39792  0.82116  1.0000
  H   H1937     1.0  0.29624  0.44524  0.83162  1.0000
  H   H1938     1.0  0.28786  0.43084  0.84918  1.0000
  H   H1939     1.0  0.30172  0.44868  0.85676  1.0000
  H   H1940     1.0  0.31212  0.42728  0.86145  1.0000
  H   H1941     1.0  0.32094  0.44140  0.84342  1.0000
  H   H1942     1.0  0.26726  0.38282  0.84773  1.0000
  H   H1943     1.0  0.27979  0.37760  0.86311  1.0000
  H   H1944     1.0  0.25953  0.39106  0.86606  1.0000
  H   H1945     1.0  0.25922  0.43146  0.79191  1.0000
  H   H1946     1.0  0.25521  0.43855  0.81071  1.0000
  H   H1947     1.0  0.27012  0.44625  0.79297  1.0000
  H   H1948     1.0  0.34705  0.39935  0.79122  1.0000
  H   H1949     1.0  0.35278  0.37881  0.80315  1.0000
  H   H1950     1.0  0.33652  0.38342  0.79196  1.0000
  S   S260      1.0  0.37603  0.41462  0.73551  1.0000
  H   H1951     1.0  0.44725  0.54132  0.74769  1.0000
  H   H1952     1.0  0.43601  0.51703  0.76377  1.0000
  Fe  Fe132     1.0  0.41629  0.57153  0.73443  1.0000
  H   H1953     1.0  0.24099  0.32463  0.93562  1.0000
  H   H1954     1.0  0.30505  0.38907  0.96365  1.0000
  C   C1108     1.0  0.48071  0.64287  0.88378  1.0000
  H   H1955     1.0  0.37241  0.41350  0.79849  1.0000
  H   H1956     1.0  0.41772  0.45009  0.76512  1.0000
  C   C1109     1.0  0.47171  0.63115  0.85116  1.0000
  H   H1957     1.0  0.45796  0.62178  0.87558  1.0000
  C   C1110     1.0  0.16879  0.37604  0.97663  1.0000
  H   H1958     1.0  0.29375  0.57494  0.75194  1.0000
  C   C1111     1.0  0.30182  0.56234  0.75246  1.0000
  H   H1959     1.0  0.32115  0.53586  0.74726  1.0000
  H   H1960     1.0  0.30570  0.45154  0.73526  1.0000
  C   C1112     1.0  0.38655  0.61504  0.81788  1.0000
  C   C1113     1.0  0.15013  0.40304  0.97852  1.0000
  C   C1114     1.0  0.40791  0.64571  0.89695  1.0000
  C   C1115     1.0  0.27139  0.38936  0.97871  1.0000
  H   H1961     1.0  0.45663  0.51455  0.76689  1.0000
  C   C1116     1.0  0.28800  0.55639  0.78289  1.0000
  C   C1117     1.0  0.00318  0.34435  0.79630  1.0000
  H   H1962     1.0  0.29031  0.55167  0.79558  1.0000
  C   C1118     1.0  0.27424  0.46441  0.74653  1.0000
  H   H1963     1.0  0.48407  0.65487  0.87696  1.0000
  C   C1119     1.0  0.18512  0.33407  0.93605  1.0000
  H   H1964     1.0  0.47751  0.60416  0.85687  1.0000
  H   H1965     1.0  0.22293  0.44879  0.95342  1.0000
  H   H1966     1.0  0.42522  0.63885  0.74110  1.0000
  H   H1967     1.0  0.45917  0.63267  0.89610  1.0000
  H   H1968     1.0  0.37319  0.62580  0.75073  1.0000
  C   C1120     1.0  0.28227  0.52679  0.73705  1.0000
  H   H1969     1.0  0.48333  0.63176  0.85390  1.0000
  H   H1970     1.0  0.06681  0.32163  0.97640  1.0000
  C   C1121     1.0  0.36818  0.42572  0.79065  1.0000
  C   C1122     1.0  0.17847  0.36339  0.96561  1.0000
  C   C1123     1.0  0.08799  0.32723  0.95781  1.0000
  H   H1971     1.0  0.35543  0.55366  0.80531  1.0000
  H   H1972     1.0  0.35582  0.47108  0.75044  1.0000
  C   C1124     1.0  0.23359  0.33050  0.96680  1.0000
  N   N61       1.0  0.19074  0.46630  0.88596  1.0000
  C   C1125     1.0  0.13829  0.37969  0.98004  1.0000
  C   C1126     1.0  0.18846  0.44061  0.97212  1.0000
  H   H1973     1.0  0.33618  0.54462  0.75060  1.0000
  C   C1127     1.0  0.17933  0.47910  0.87588  1.0000
  H   H1974     1.0  0.20494  0.44115  0.88766  1.0000
  H   H1975     1.0  0.38688  0.41995  0.76958  1.0000
  H   H1976     1.0  0.18805  0.45019  0.91037  1.0000
  H   H1977     1.0  0.42930  0.62824  0.88789  1.0000
  C   C1128     1.0  0.15674  0.45745  0.92652  1.0000
  H   H1978     1.0  0.17492  0.45058  0.87119  1.0000
  C   C1129     1.0  0.16312  0.46379  0.90811  1.0000
  H   H1979     1.0  0.26063  0.41311  0.95548  1.0000
  H   H1980     1.0  0.22506  0.32938  0.97910  1.0000
  H   H1981     1.0  0.16782  0.47496  0.87697  1.0000
  H   H1982     1.0  0.32219  0.40941  0.77204  1.0000
  C   C1130     1.0  0.37987  0.60443  0.76982  1.0000
  C   C1131     1.0  0.36540  0.47651  0.74056  1.0000
  H   H1983     1.0  0.20589  0.45273  0.86729  1.0000
  H   H1984     1.0  0.22467  0.45174  0.89057  1.0000
  H   H1985     1.0  0.17511  0.49060  0.88086  1.0000
  H   H1986     1.0  0.31028  0.39317  0.98086  1.0000
  H   H1987     1.0  0.19127  0.47312  0.85139  1.0000
  C   C1132     1.0  0.21806  0.46306  0.89530  1.0000
  H   H1988     1.0  0.39297  0.62519  0.81630  1.0000
  C   C1133     1.0  0.40367  0.44057  0.74519  1.0000
  C   C1134     1.0  0.23107  0.47258  0.89454  1.0000
  H   H1989     1.0  0.00873  0.33365  0.79021  1.0000
  H   H1990     1.0  0.36920  0.45582  0.77235  1.0000
  C   C1135     1.0  0.46169  0.64447  0.88768  1.0000
  H   H1991     1.0  0.23403  0.36358  0.96934  1.0000
  H   H1992     1.0  0.26193  0.47305  0.74723  1.0000
  N   N62       1.0  0.45344  0.64841  0.87323  1.0000
  C   C1136     1.0  0.18665  0.48408  0.85711  1.0000
  H   H1993     1.0  0.36751  0.44383  0.75934  1.0000
  N   N63       1.0  0.39275  0.58163  0.79227  1.0000
  C   C1137     1.0  0.39553  0.59223  0.77507  1.0000
  C   C1138     1.0  0.40935  0.57136  0.79554  1.0000
  C   C1139     1.0  0.38101  0.57090  0.79335  1.0000
  C   C1140     1.0  0.38528  0.59211  0.80507  1.0000
  C   C1141     1.0  0.39405  0.60628  0.80346  1.0000
  H   H1994     1.0  0.17794  0.38317  0.97651  1.0000
  C   C1142     1.0  0.37706  0.55881  0.81019  1.0000
  C   C1143     1.0  0.41701  0.55669  0.78668  1.0000
  C   C1144     1.0  0.43468  0.54869  0.78904  1.0000
  H   H1995     1.0  0.48504  0.61354  0.83569  1.0000
  H   H1996     1.0  0.19956  0.35437  0.97761  1.0000
  C   C1145     1.0  0.36727  0.54680  0.80911  1.0000
  H   H1997     1.0  0.40066  0.58438  0.76574  1.0000
  H   H1998     1.0  0.40526  0.59926  0.77335  1.0000
  H   H1999     1.0  0.41866  0.57931  0.79186  1.0000
  H   H2000     1.0  0.40864  0.56618  0.80898  1.0000
  H   H2001     1.0  0.38570  0.56378  0.78335  1.0000
  H   H2002     1.0  0.36883  0.57865  0.79101  1.0000
  H   H2003     1.0  0.28601  0.50029  0.74183  1.0000
  H   H2004     1.0  0.38537  0.58424  0.81767  1.0000
  H   H2005     1.0  0.39270  0.61576  0.79196  1.0000
  H   H2006     1.0  0.40748  0.60147  0.80325  1.0000
  C   C1146     1.0  0.37662  0.44668  0.76467  1.0000
  C   C1147     1.0  0.25303  0.41515  0.96776  1.0000
  H   H2007     1.0  0.36938  0.56582  0.81974  1.0000
  H   H2008     1.0  0.38846  0.55139  0.81444  1.0000
  H   H2009     1.0  0.40961  0.54695  0.79152  1.0000
  H   H2010     1.0  0.41752  0.56087  0.77332  1.0000
  H   H2011     1.0  0.43968  0.53811  0.78275  1.0000
  H   H2012     1.0  0.44286  0.55773  0.78353  1.0000
  H   H2013     1.0  0.43483  0.54404  0.80236  1.0000
  H   H2014     1.0  0.46946  0.64094  0.84008  1.0000
  H   H2015     1.0  0.14012  0.41273  0.97339  1.0000
  H   H2016     1.0  0.36219  0.52827  0.73672  1.0000
  H   H2017     1.0  0.46326  0.61348  0.84303  1.0000
  H   H2018     1.0  0.12670  0.38895  0.97794  1.0000
  H   H2019     1.0  0.35766  0.42502  0.78581  1.0000
  H   H2020     1.0  0.14749  0.35337  0.97984  1.0000
  H   H2021     1.0  0.36431  0.53846  0.82134  1.0000
  H   H2022     1.0  0.48722  0.63332  0.87652  1.0000
  C   C1148     1.0  0.15422  0.39274  0.95364  1.0000
  Fe  Fe133     1.0  0.45584  0.64992  0.77973  1.0000
  H   H2023     1.0  0.16271  0.41613  0.94805  1.0000
  H   H2024     1.0  0.18378  0.47148  0.91060  1.0000
  H   H2025     1.0  0.37225  0.59759  0.76665  1.0000
  H   H2026     1.0  0.17465  0.41767  0.91910  1.0000
  H   H2027     1.0  0.21280  0.47551  0.87170  1.0000
  H   H2028     1.0  0.39274  0.43064  0.78168  1.0000
  H   H2029     1.0  0.40228  0.63598  0.90643  1.0000
  H   H2030     1.0  0.11157  0.36865  0.97605  1.0000
  C   C1149     1.0  0.16634  0.40891  0.92553  1.0000
  H   H2031     1.0  0.22521  0.48348  0.90026  1.0000
  H   H2032     1.0  0.14173  0.39936  0.95115  1.0000
  H   H2033     1.0  0.15764  0.38194  0.94777  1.0000
  C   C1150     1.0  0.19651  0.41091  0.97492  1.0000
  H   H2034     1.0  0.24916  0.38800  0.96234  1.0000
  H   H2035     1.0  0.37190  0.59756  0.80519  1.0000
  H   H2036     1.0  0.31161  0.54299  0.77237  1.0000
  H   H2037     1.0  0.42046  0.46777  0.78194  1.0000
  C   C1151     1.0  0.45214  0.52967  0.74307  1.0000
  H   H2038     1.0  0.18589  0.36965  0.95409  1.0000
  C   C1152     1.0  0.38250  0.43016  0.77640  1.0000
  H   H2039     1.0  0.35110  0.39836  0.75834  1.0000
  C   C1153     1.0  0.47448  0.61453  0.84647  1.0000
  N   N64       1.0  0.38964  0.45408  0.75101  1.0000
  C   C1154     1.0  0.18409  0.44197  0.87815  1.0000
  H   H2040     1.0  0.14077  0.36550  0.96115  1.0000
  H   H2041     1.0  0.28251  0.46978  0.75059  1.0000
  H   H2042     1.0  0.40996  0.43304  0.75530  1.0000
  H   H2043     1.0  0.23898  0.44950  0.96296  1.0000
  H   H2044     1.0  0.38811  0.60628  0.82975  1.0000
  C   C1155     1.0  0.16643  0.40426  0.94392  1.0000
  H   H2045     1.0  0.20116  0.41828  0.87585  1.0000
  H   H2046     1.0  0.16308  0.49012  0.84936  1.0000
  H   H2047     1.0  0.15365  0.41503  0.92350  1.0000
  H   H2048     1.0  0.39253  0.61211  0.74428  1.0000
  H   H2049     1.0  0.47625  0.53186  0.74324  1.0000
  C   C1156     1.0  0.30454  0.55599  0.77041  1.0000
  H   H2050     1.0  0.48634  0.62457  0.90573  1.0000
  C   C1157     1.0  0.38459  0.61777  0.75468  1.0000
  N   N65       1.0  0.31733  0.56259  0.73893  1.0000
  H   H2051     1.0  0.17926  0.39831  0.94560  1.0000
  C   C1158     1.0  0.43117  0.62666  0.74683  1.0000
  H   H2052     1.0  0.00256  0.33868  0.84352  1.0000
  H   H2053     1.0  0.37314  0.62049  0.81834  1.0000
  N   N66       1.0  0.15315  0.38752  0.97206  1.0000
  H   H2054     1.0  0.38479  0.47514  0.76197  1.0000
  H   H2055     1.0  0.47690  0.51508  0.73481  1.0000
  S   S261      1.0  0.44443  0.64348  0.76149  1.0000
  C   C1159     1.0  0.45668  0.63334  0.86588  1.0000
  H   H2056     1.0  0.31134  0.56376  0.77332  1.0000
  H   H2057     1.0  0.25361  0.32807  0.90951  1.0000
  H   H2058     1.0  0.19716  0.34061  0.96625  1.0000
  C   C1160     1.0  0.34596  0.41153  0.75589  1.0000
  C   C1161     1.0  0.19040  0.34939  0.97444  1.0000
  H   H2059     1.0  0.28088  0.54835  0.78078  1.0000
  H   H2060     1.0  0.40258  0.64841  0.88585  1.0000
  C   C1162     1.0  0.42890  0.61260  0.74287  1.0000
  H   H2061     1.0  0.12192  0.34716  0.97848  1.0000
  H   H2062     1.0  0.22636  0.42488  0.97694  1.0000
  H   H2063     1.0  0.01329  0.35015  0.79635  1.0000
  H   H2064     1.0  0.42008  0.47930  0.76111  1.0000
  C   C1163     1.0  0.12132  0.35907  0.98157  1.0000
  H   H2065     1.0  0.34814  0.51484  0.74017  1.0000
  H   H2066     1.0  0.39137  0.62560  0.75761  1.0000
  H   H2067     1.0  0.28313  0.41038  0.97554  1.0000
  H   H2068     1.0  0.39929  0.45354  0.78124  1.0000
  H   H2069     1.0  0.09143  0.33444  0.96483  1.0000
  H   H2070     1.0  0.16146  0.40836  0.97441  1.0000
  C   C1164     1.0  0.32862  0.54561  0.74158  1.0000
  H   H2071     1.0  0.08030  0.33597  0.94928  1.0000
  C   C1165     1.0  0.24425  0.38886  0.97551  1.0000
  H   H2072     1.0  0.25690  0.36291  0.98231  1.0000
  C   C1166     1.0  0.42675  0.63970  0.89257  1.0000
  H   H2073     1.0  0.43821  0.42734  0.73774  1.0000
  C   C1167     1.0  0.34866  0.43922  0.74118  1.0000
  H   H2074     1.0  0.18272  0.32198  0.94232  1.0000
  H   H2075     1.0  0.21093  0.32680  0.93699  1.0000
  H   H2076     1.0  0.27633  0.38673  0.96612  1.0000
  H   H2077     1.0  0.33035  0.57178  0.75170  1.0000
  Fe  Fe134     1.0  0.48186  0.64789  0.79932  1.0000
  S   S262      1.0  0.43514  0.57852  0.74471  1.0000
  H   H2078     1.0  0.23094  0.39510  0.97665  1.0000
  H   H2079     1.0  0.44583  0.63356  0.86092  1.0000
  H   H2080     1.0  0.40239  0.47421  0.74561  1.0000
  C   C1168     1.0  0.38164  0.46343  0.73660  1.0000
  H   H2081     1.0  0.17032  0.35769  0.96190  1.0000
  H   H2082     1.0  0.99930  0.32312  0.88895  1.0000
  H   H2083     1.0  0.29531  0.43721  0.73357  1.0000
  C   C1169     1.0  0.99988  0.32198  0.87626  1.0000
  C   C1170     1.0  0.23168  0.36364  0.98262  1.0000
  H   H2084     1.0  0.25921  0.32175  0.94271  1.0000
  C   C1171     1.0  0.28377  0.39738  0.98234  1.0000
  Fe  Fe135     1.0  0.22389  0.92669  0.02950  1.0000
  S   S263      1.0  0.21405  0.90346  0.03726  1.0000
  S   S264      1.0  0.22591  0.94317  0.00391  1.0000
  Fe  Fe136     1.0  0.23440  0.92216  0.06269  1.0000
  S   S265      1.0  0.22513  0.89844  0.07259  1.0000
  S   S266      1.0  0.25027  0.92681  0.07818  1.0000
  Fe  Fe137     1.0  0.23678  0.89252  0.04785  1.0000
  S   S267      1.0  0.25178  0.86717  0.04570  1.0000
  Fe  Fe138     1.0  0.20312  0.91148  0.06131  1.0000
  S   S268      1.0  0.17809  0.90771  0.07694  1.0000
  S   S269      1.0  0.24766  0.91505  0.03837  1.0000
  S   S270      1.0  0.21128  0.93588  0.05302  1.0000
  C   C1172     1.0  0.00527  0.83071  0.09599  1.0000
  C   C1173     1.0  0.26121  0.98766  0.22042  1.0000
  H   H2085     1.0  0.31815  0.71504  0.98948  1.0000
  Fe  Fe139     1.0  0.14174  0.84168  0.05415  1.0000
  S   S271      1.0  0.14596  0.81483  0.05319  1.0000
  S   S272      1.0  0.14872  0.84766  0.07517  1.0000
  Fe  Fe140     1.0  0.12650  0.85326  0.02443  1.0000
  S   S273      1.0  0.12927  0.82778  0.02099  1.0000
  S   S274      1.0  0.11762  0.87500  0.00548  1.0000
  Fe  Fe141     1.0  0.12029  0.82123  0.04815  1.0000
  S   S275      1.0  0.10358  0.80265  0.05900  1.0000
  Fe  Fe142     1.0  0.15470  0.82322  0.02590  1.0000
  S   S276      1.0  0.17427  0.80804  0.00915  1.0000
  S   S277      1.0  0.11518  0.84740  0.05150  1.0000
  S   S278      1.0  0.15268  0.84942  0.02718  1.0000
  H   H2086     1.0  0.00557  0.81912  0.10565  1.0000
  H   H2087     1.0  0.30453  0.91105  0.01122  1.0000
  H   H2088     1.0  0.00411  0.70138  0.10939  1.0000
  Fe  Fe143     1.0  0.04158  0.76923  0.03259  1.0000
  S   S279      1.0  0.04165  0.75532  0.05858  1.0000
  S   S280      1.0  0.06010  0.78564  0.01893  1.0000
  C   C1174     1.0  0.00831  0.71285  0.16348  1.0000
  H   H2089     1.0  0.00658  0.83854  0.06981  1.0000
  H   H2090     1.0  0.12723  0.77155  0.03712  1.0000
  C   C1175     1.0  0.02985  0.73499  0.11042  1.0000
  Fe  Fe144     1.0  0.03477  0.73537  0.05126  1.0000
  S   S281      1.0  0.04719  0.70884  0.05919  1.0000
  H   H2091     1.0  0.24612  0.83310  0.99017  1.0000
  S   S282      1.0  0.03694  0.74824  0.02457  1.0000
  Fe  Fe145     1.0  0.38700  0.93194  0.19679  1.0000
  S   S283      1.0  0.41193  0.92374  0.20364  1.0000
  S   S284      1.0  0.38297  0.94052  0.17091  1.0000
  Fe  Fe146     1.0  0.40046  0.94015  0.22198  1.0000
  C   C1176     1.0  0.38143  0.98413  0.16924  1.0000
  S   S285      1.0  0.37650  0.94998  0.21344  1.0000
  Fe  Fe147     1.0  0.26648  0.97420  0.14198  1.0000
  C   C1177     1.0  0.20973  0.93063  0.98704  1.0000
  H   H2092     1.0  0.40707  0.96070  0.15852  1.0000
  H   H2093     1.0  0.25735  0.73182  0.01734  1.0000
  C   C1178     1.0  0.47160  0.85991  0.22781  1.0000
  C   C1179     1.0  0.04511  0.68407  0.10658  1.0000
  C   C1180     1.0  0.21088  0.94765  0.14697  1.0000
  Fe  Fe148     1.0  0.29386  0.95840  0.16127  1.0000
  S   S286      1.0  0.31206  0.93471  0.16764  1.0000
  S   S287      1.0  0.26737  0.95607  0.16619  1.0000
  H   H2094     1.0  0.14463  0.75498  0.03367  1.0000
  C   C1181     1.0  0.36296  0.93930  0.17056  1.0000
  C   C1182     1.0  0.35193  0.95339  0.16413  1.0000
  C   C1183     1.0  0.33607  0.95222  0.16345  1.0000
  C   C1184     1.0  0.33149  0.93687  0.16876  1.0000
  C   C1185     1.0  0.34255  0.92285  0.17513  1.0000
  C   C1186     1.0  0.35815  0.92410  0.17629  1.0000
  H   H2095     1.0  0.35560  0.96519  0.15974  1.0000
  H   H2096     1.0  0.32755  0.96309  0.15852  1.0000
  H   H2097     1.0  0.33911  0.91096  0.17902  1.0000
  H   H2098     1.0  0.36668  0.91319  0.18111  1.0000
  H   H2099     1.0  0.32136  0.97611  0.19518  1.0000
  H   H2100     1.0  0.01961  0.76324  0.12683  1.0000
  H   H2101     1.0  0.28882  0.98822  0.10153  1.0000
  C   C1187     1.0  0.43642  0.97766  0.18215  1.0000
  H   H2102     1.0  0.32741  0.88497  0.22760  1.0000
  H   H2103     1.0  0.30486  0.88408  0.00731  1.0000
  H   H2104     1.0  0.27956  0.89204  0.07995  1.0000
  H   H2105     1.0  0.31634  0.89579  0.03220  1.0000
  H   H2106     1.0  0.14249  0.84847  0.99363  1.0000
  C   C1188     1.0  0.05090  0.69030  0.08975  1.0000
  C   C1189     1.0  0.03988  0.70103  0.08020  1.0000
  C   C1190     1.0  0.02301  0.70512  0.08741  1.0000
  H   H2107     1.0  0.01314  0.69187  0.06675  1.0000
  C   C1191     1.0  0.14522  0.85999  0.98607  1.0000
  H   H2108     1.0  0.06396  0.68709  0.08420  1.0000
  H   H2109     1.0  0.01443  0.71328  0.08011  1.0000
  H   H2110     1.0  0.16688  0.91558  0.11799  1.0000
  C   C1192     1.0  0.09263  0.79761  0.04697  1.0000
  C   C1193     1.0  0.08970  0.80782  0.03190  1.0000
  C   C1194     1.0  0.07987  0.80396  0.02331  1.0000
  C   C1195     1.0  0.07276  0.78996  0.02978  1.0000
  C   C1196     1.0  0.07605  0.77958  0.04463  1.0000
  C   C1197     1.0  0.08589  0.78341  0.05318  1.0000
  H   H2111     1.0  0.09466  0.81891  0.02710  1.0000
  H   H2112     1.0  0.07753  0.81200  0.01175  1.0000
  H   H2113     1.0  0.07108  0.76854  0.04953  1.0000
  H   H2114     1.0  0.08814  0.77541  0.06479  1.0000
  S   S288      1.0  0.25099  0.97515  0.12339  1.0000
  H   H2115     1.0  0.31902  0.87799  0.05889  1.0000
  C   C1198     1.0  0.31299  0.94666  0.21441  1.0000
  C   C1199     1.0  0.19556  0.80780  0.00599  1.0000
  C   C1200     1.0  0.20509  0.79570  0.01620  1.0000
  C   C1201     1.0  0.22249  0.79273  0.01182  1.0000
  C   C1202     1.0  0.39705  0.97399  0.13688  1.0000
  H   H2116     1.0  0.18191  0.87476  0.99848  1.0000
  H   H2117     1.0  0.19903  0.78806  0.02711  1.0000
  H   H2118     1.0  0.99698  0.72675  0.11745  1.0000
  H   H2119     1.0  0.16147  0.89935  0.14705  1.0000
  H   H2120     1.0  0.30298  0.96435  0.23065  1.0000
  C   C1203     1.0  0.00238  0.74827  0.14366  1.0000
  C   C1204     1.0  0.28801  0.88535  0.04807  1.0000
  H   H2121     1.0  0.13364  0.77654  0.06134  1.0000
  C   C1205     1.0  0.24979  0.94031  0.09101  1.0000
  C   C1206     1.0  0.26138  0.93561  0.10123  1.0000
  C   C1207     1.0  0.26172  0.94585  0.11147  1.0000
  C   C1208     1.0  0.25059  0.96115  0.11149  1.0000
  C   C1209     1.0  0.23893  0.96582  0.10134  1.0000
  C   C1210     1.0  0.23848  0.95550  0.09122  1.0000
  H   H2122     1.0  0.27022  0.92393  0.10121  1.0000
  H   H2123     1.0  0.27078  0.94202  0.11915  1.0000
  C   C1211     1.0  0.27581  0.92783  0.21671  1.0000
  H   H2124     1.0  0.22967  0.95948  0.08329  1.0000
  C   C1212     1.0  0.17098  0.89077  0.07531  1.0000
  C   C1213     1.0  0.16777  0.88966  0.06051  1.0000
  C   C1214     1.0  0.16054  0.87677  0.06018  1.0000
  C   C1215     1.0  0.15706  0.86466  0.07453  1.0000
  C   C1216     1.0  0.16049  0.86578  0.08914  1.0000
  C   C1217     1.0  0.16714  0.87885  0.08959  1.0000
  H   H2125     1.0  0.17031  0.89906  0.04947  1.0000
  H   H2126     1.0  0.15759  0.87626  0.04892  1.0000
  H   H2127     1.0  0.15776  0.85658  0.10029  1.0000
  H   H2128     1.0  0.16931  0.87970  0.10110  1.0000
  C   C1218     1.0  0.25904  0.86686  0.02476  1.0000
  C   C1219     1.0  0.25578  0.88132  0.01287  1.0000
  C   C1220     1.0  0.26296  0.88151  0.99619  1.0000
  C   C1221     1.0  0.01016  0.82671  0.07857  1.0000
  C   C1222     1.0  0.27610  0.85260  0.00319  1.0000
  C   C1223     1.0  0.26910  0.85245  0.01993  1.0000
  H   H2129     1.0  0.24812  0.89254  0.01650  1.0000
  S   S289      1.0  0.00732  0.74461  0.05872  1.0000
  H   H2130     1.0  0.28405  0.84154  0.99953  1.0000
  H   H2131     1.0  0.27160  0.84125  0.02913  1.0000
  H   H2132     1.0  0.34935  0.87017  0.05493  1.0000
  C   C1224     1.0  0.31758  0.88237  0.03304  1.0000
  C   C1225     1.0  0.20911  0.93414  0.13947  1.0000
  H   H2133     1.0  0.21097  0.91924  0.99626  1.0000
  H   H2134     1.0  0.27494  0.92022  0.22944  1.0000
  H   H2135     1.0  0.02582  0.71403  0.12966  1.0000
  H   H2136     1.0  0.45932  0.83142  0.22203  1.0000
  H   H2137     1.0  0.26654  0.75824  0.00415  1.0000
  C   C1226     1.0  0.20362  0.81720  0.99152  1.0000
  H   H2138     1.0  0.28916  0.85871  0.03722  1.0000
  H   H2139     1.0  0.01384  0.83766  0.09738  1.0000
  C   C1227     1.0  0.17752  0.90806  0.12364  1.0000
  H   H2140     1.0  0.22972  0.78307  0.01961  1.0000
  H   H2141     1.0  0.18166  0.88573  0.14273  1.0000
  C   C1228     1.0  0.49353  0.81623  0.21839  1.0000
  C   C1229     1.0  0.00014  0.77894  0.14066  1.0000
  H   H2142     1.0  0.24205  0.88456  0.12113  1.0000
  H   H2143     1.0  0.29048  0.89680  0.04980  1.0000
  H   H2144     1.0  0.34803  0.88912  0.22034  1.0000
  H   H2145     1.0  0.05262  0.71599  0.10819  1.0000
  C   C1230     1.0  0.27394  0.88246  0.07842  1.0000
  H   H2146     1.0  0.20299  0.92527  0.14960  1.0000
  H   H2147     1.0  0.16509  0.75756  0.00713  1.0000
  H   H2148     1.0  0.41930  0.97377  0.14394  1.0000
  C   C1231     1.0  0.29552  0.88791  0.01813  1.0000
  H   H2149     1.0  0.30835  0.85736  0.01028  1.0000
  H   H2150     1.0  0.01057  0.74519  0.15259  1.0000
  H   H2151     1.0  0.32607  0.85475  0.01903  1.0000
  H   H2152     1.0  0.32635  0.87977  0.02142  1.0000
  H   H2153     1.0  0.21799  0.90383  0.13335  1.0000
  H   H2154     1.0  0.25848  0.94382  0.20172  1.0000
  C   C1232     1.0  0.01714  0.69830  0.10402  1.0000
  C   C1233     1.0  0.02819  0.68798  0.11370  1.0000
  H   H2155     1.0  0.16389  0.77241  0.03282  1.0000
  C   C1234     1.0  0.14688  0.77180  0.05601  1.0000
  H   H2156     1.0  0.10763  0.77531  0.01977  1.0000
  C   C1235     1.0  0.02046  0.71515  0.01390  1.0000
  H   H2157     1.0  0.19070  0.91131  0.14048  1.0000
  C   C1236     1.0  0.21897  0.90288  0.12058  1.0000
  H   H2158     1.0  0.04337  0.82274  0.02288  1.0000
  H   H2159     1.0  0.13947  0.75018  0.00907  1.0000
  H   H2160     1.0  0.33755  0.91849  0.21313  1.0000
  H   H2161     1.0  0.04173  0.76916  0.09630  1.0000
  H   H2162     1.0  0.21234  0.89315  0.12132  1.0000
  Fe  Fe149     1.0  0.40049  0.90444  0.22335  1.0000
  C   C1237     1.0  0.28346  0.97481  0.07936  1.0000
  C   C1238     1.0  0.02256  0.82752  0.04338  1.0000
  S   S290      1.0  0.02109  0.68048  0.13483  1.0000
  C   C1239     1.0  0.19406  0.95271  0.09100  1.0000
  N   N67       1.0  0.02815  0.81867  0.07289  1.0000
  C   C1240     1.0  0.02957  0.81355  0.05702  1.0000
  C   C1241     1.0  0.03232  0.80345  0.08601  1.0000
  H   H2163     1.0  0.27174  0.87357  0.09042  1.0000
  C   C1242     1.0  0.03885  0.83083  0.07087  1.0000
  C   C1243     1.0  0.05542  0.82926  0.05780  1.0000
  H   H2164     1.0  0.28394  0.88457  0.01795  1.0000
  N   N68       1.0  0.00480  0.73377  0.13590  1.0000
  C   C1244     1.0  0.04949  0.79187  0.08210  1.0000
  C   C1245     1.0  0.05115  0.77614  0.09558  1.0000
  C   C1246     1.0  0.06667  0.83955  0.05949  1.0000
  C   C1247     1.0  0.00110  0.70581  0.04082  1.0000
  C   C1248     1.0  0.31336  0.85252  0.02169  1.0000
  C   C1249     1.0  0.23058  0.80182  0.99719  1.0000
  H   H2165     1.0  0.04262  0.80819  0.05167  1.0000
  H   H2166     1.0  0.03194  0.80694  0.09766  1.0000
  H   H2167     1.0  0.03308  0.71200  0.00620  1.0000
  H   H2168     1.0  0.13188  0.76682  0.99409  1.0000
  H   H2169     1.0  0.34311  0.89000  0.04191  1.0000
  H   H2170     1.0  0.03198  0.84381  0.06735  1.0000
  H   H2171     1.0  0.04181  0.83009  0.08290  1.0000
  H   H2172     1.0  0.05301  0.83366  0.04514  1.0000
  H   H2173     1.0  0.06242  0.81636  0.05884  1.0000
  H   H2174     1.0  0.16594  0.88688  0.13193  1.0000
  C   C1250     1.0  0.00606  0.76453  0.13179  1.0000
  H   H2175     1.0  0.22108  0.92703  0.10457  1.0000
  H   H2176     1.0  0.05132  0.78786  0.07046  1.0000
  H   H2177     1.0  0.05952  0.79804  0.08150  1.0000
  H   H2178     1.0  0.04958  0.77916  0.10774  1.0000
  H   H2179     1.0  0.00843  0.69378  0.18592  1.0000
  H   H2180     1.0  0.06366  0.76815  0.09256  1.0000
  H   H2181     1.0  0.07813  0.83855  0.04962  1.0000
  H   H2182     1.0  0.06032  0.85279  0.05827  1.0000
  H   H2183     1.0  0.07043  0.83487  0.07157  1.0000
  C   C1251     1.0  0.17128  0.89418  0.13725  1.0000
  C   C1252     1.0  0.27289  0.86710  0.99129  1.0000
  C   C1253     1.0  0.02303  0.72763  0.12884  1.0000
  N   N69       1.0  0.20619  0.84683  0.03683  1.0000
  C   C1254     1.0  0.19309  0.85639  0.02709  1.0000
  C   C1255     1.0  0.20360  0.82935  0.04353  1.0000
  C   C1256     1.0  0.20469  0.85533  0.05051  1.0000
  C   C1257     1.0  0.22337  0.84625  0.02611  1.0000
  C   C1258     1.0  0.22649  0.83934  0.01046  1.0000
  C   C1259     1.0  0.19504  0.87404  0.01726  1.0000
  C   C1260     1.0  0.21562  0.84600  0.06330  1.0000
  C   C1261     1.0  0.18743  0.82731  0.05662  1.0000
  C   C1262     1.0  0.18652  0.80909  0.06285  1.0000
  C   C1263     1.0  0.24417  0.83902  0.00063  1.0000
  C   C1264     1.0  0.18137  0.88213  0.00749  1.0000
  C   C1265     1.0  0.21247  0.85563  0.07676  1.0000
  H   H2184     1.0  0.18066  0.85793  0.03549  1.0000
  H   H2185     1.0  0.19221  0.84931  0.01837  1.0000
  H   H2186     1.0  0.20311  0.82386  0.03340  1.0000
  H   H2187     1.0  0.21434  0.82125  0.04871  1.0000
  H   H2188     1.0  0.19162  0.85798  0.05736  1.0000
  H   H2189     1.0  0.20800  0.86764  0.04532  1.0000
  H   H2190     1.0  0.22654  0.85869  0.02239  1.0000
  H   H2191     1.0  0.23282  0.83830  0.03319  1.0000
  H   H2192     1.0  0.21802  0.84682  0.00217  1.0000
  H   H2193     1.0  0.22483  0.82645  0.01391  1.0000
  H   H2194     1.0  0.19417  0.88209  0.02573  1.0000
  H   H2195     1.0  0.20709  0.87381  0.00827  1.0000
  H   H2196     1.0  0.22897  0.84441  0.05733  1.0000
  H   H2197     1.0  0.21295  0.83360  0.06944  1.0000
  H   H2198     1.0  0.18651  0.83235  0.06748  1.0000
  H   H2199     1.0  0.17645  0.83373  0.05119  1.0000
  H   H2200     1.0  0.19720  0.80201  0.06859  1.0000
  H   H2201     1.0  0.17488  0.80803  0.07229  1.0000
  H   H2202     1.0  0.18644  0.80366  0.05253  1.0000
  N   N70       1.0  0.30096  0.87887  0.03408  1.0000
  H   H2203     1.0  0.05467  0.73463  0.11280  1.0000
  H   H2204     1.0  0.19636  0.82629  0.98332  1.0000
  N   N71       1.0  0.30169  0.93449  0.22129  1.0000
  H   H2205     1.0  0.16894  0.88326  0.01593  1.0000
  H   H2206     1.0  0.01123  0.71766  0.00615  1.0000
  H   H2207     1.0  0.22099  0.84923  0.08531  1.0000
  H   H2208     1.0  0.21473  0.86830  0.07124  1.0000
  H   H2209     1.0  0.19948  0.85650  0.08393  1.0000
  H   H2210     1.0  0.09194  0.75606  0.01717  1.0000
  C   C1266     1.0  0.12469  0.79837  0.99261  1.0000
  H   H2211     1.0  0.38148  0.97095  0.17518  1.0000
  C   C1267     1.0  0.15914  0.77079  0.00310  1.0000
  H   H2212     1.0  0.27552  0.88909  0.04496  1.0000
  H   H2213     1.0  0.18329  0.93144  0.09816  1.0000
  H   H2214     1.0  0.01441  0.65751  0.06131  1.0000
  H   H2215     1.0  0.20645  0.94674  0.08466  1.0000
  C   C1268     1.0  0.40631  0.97327  0.15034  1.0000
  H   H2216     1.0  0.18700  0.90243  0.11393  1.0000
  H   H2217     1.0  0.22190  0.92791  0.13429  1.0000
  H   H2218     1.0  0.00192  0.81869  0.07852  1.0000
  H   H2219     1.0  0.14265  0.79971  0.00562  1.0000
  H   H2220     1.0  0.48631  0.81418  0.21038  1.0000
  H   H2221     1.0  0.10260  0.76553  0.99728  1.0000
  H   H2222     1.0  0.20691  0.94985  0.11631  1.0000
  C   C1269     1.0  0.18581  0.93973  0.10475  1.0000
  H   H2223     1.0  0.41877  0.96222  0.12069  1.0000
  C   C1270     1.0  0.13476  0.87502  0.98889  1.0000
  H   H2224     1.0  0.21828  0.94200  0.15666  1.0000
  C   C1271     1.0  0.30856  0.75632  0.98764  1.0000
  H   H2225     1.0  0.32931  0.97101  0.21387  1.0000
  C   C1272     1.0  0.28808  0.73811  0.99791  1.0000
  C   C1273     1.0  0.27517  0.74779  0.01029  1.0000
  Fe  Fe150     1.0  0.01443  0.76598  0.06322  1.0000
  H   H2226     1.0  0.18991  0.96955  0.06793  1.0000
  C   C1274     1.0  0.30117  0.77367  0.99181  1.0000
  C   C1275     1.0  0.31232  0.77818  0.00035  1.0000
  C   C1276     1.0  0.26460  0.73658  0.02326  1.0000
  H   H2227     1.0  0.00641  0.72228  0.17082  1.0000
  C   C1277     1.0  0.30181  0.86068  0.03593  1.0000
  C   C1278     1.0  0.29253  0.90709  0.01438  1.0000
  H   H2228     1.0  0.17136  0.96849  0.08392  1.0000
  H   H2229     1.0  0.31377  0.74797  0.99823  1.0000
  S   S291      1.0  0.24323  0.97970  0.20196  1.0000
  N   N72       1.0  0.19554  0.92967  0.11776  1.0000
  H   H2230     1.0  0.39631  0.98611  0.12805  1.0000
  H   H2231     1.0  0.19852  0.95431  0.15268  1.0000
  H   H2232     1.0  0.29692  0.72908  0.00510  1.0000
  H   H2233     1.0  0.28133  0.91932  0.20801  1.0000
  H   H2234     1.0  0.28163  0.75257  0.01698  1.0000
  H   H2235     1.0  0.32261  0.82837  0.01542  1.0000
  H   H2236     1.0  0.46482  0.88668  0.22363  1.0000
  N   N73       1.0  0.48280  0.82849  0.22875  1.0000
  H   H2237     1.0  0.05372  0.67610  0.11403  1.0000
  H   H2238     1.0  0.29172  0.91003  0.98857  1.0000
  H   H2239     1.0  0.28862  0.77473  0.99984  1.0000
  H   H2240     1.0  0.31289  0.76964  0.01252  1.0000
  H   H2241     1.0  0.32507  0.77760  0.99260  1.0000
  H   H2242     1.0  0.30725  0.79098  0.00237  1.0000
  H   H2243     1.0  0.43217  0.98003  0.22611  1.0000
  H   H2244     1.0  0.27254  0.72602  0.03016  1.0000
  H   H2245     1.0  0.25573  0.74378  0.03216  1.0000
  C   C1279     1.0  0.21552  0.94398  0.98835  1.0000
  H   H2246     1.0  0.99668  0.94379  0.08812  1.0000
  H   H2247     1.0  0.35154  0.87170  0.03320  1.0000
  C   C1280     1.0  0.40870  0.98332  0.17386  1.0000
  H   H2248     1.0  0.19548  0.96274  0.09601  1.0000
  H   H2249     1.0  0.03090  0.72944  0.13632  1.0000
  Fe  Fe151     1.0  0.26214  0.97771  0.17817  1.0000
  C   C1281     1.0  0.31468  0.83381  0.02601  1.0000
  C   C1282     1.0  0.14030  0.76866  0.03013  1.0000
  C   C1283     1.0  0.32614  0.87329  0.04766  1.0000
  H   H2250     1.0  0.38542  0.97792  0.21854  1.0000
  C   C1284     1.0  0.32834  0.91111  0.22106  1.0000
  H   H2251     1.0  0.29425  0.96997  0.21243  1.0000
  H   H2252     1.0  0.40668  0.94809  0.13541  1.0000
  C   C1285     1.0  0.01750  0.70081  0.02857  1.0000
  H   H2253     1.0  0.02720  0.81172  0.02589  1.0000
  H   H2254     1.0  0.11145  0.82250  0.99792  1.0000
  H   H2255     1.0  0.11074  0.74428  0.00673  1.0000
  C   C1286     1.0  0.28419  0.91481  0.99967  1.0000
  C   C1287     1.0  0.33508  0.89337  0.21856  1.0000
  H   H2256     1.0  0.17350  0.92731  0.13697  1.0000
  H   H2257     1.0  0.43065  0.96395  0.16787  1.0000
  C   C1288     1.0  0.39420  0.98506  0.21808  1.0000
  H   H2258     1.0  0.24627  0.85177  0.99572  1.0000
  H   H2259     1.0  0.25323  0.83160  0.00834  1.0000
  H   H2260     1.0  0.30562  0.85328  0.04751  1.0000
  H   H2261     1.0  0.00885  0.82905  0.04587  1.0000
  H   H2262     1.0  0.29715  0.86715  0.06924  1.0000
  H   H2263     1.0  0.00004  0.67761  0.07743  1.0000
  C   C1289     1.0  0.04873  0.72970  0.10574  1.0000
  H   H2264     1.0  0.05311  0.73457  0.09236  1.0000
  C   C1290     1.0  0.18443  0.91923  0.13051  1.0000
  C   C1291     1.0  0.99870  0.71993  0.14928  1.0000
  H   H2265     1.0  0.02400  0.83354  0.01694  1.0000
  H   H2266     1.0  0.18742  0.94989  0.13055  1.0000
  C   C1292     1.0  0.12045  0.81724  0.98771  1.0000
  C   C1293     1.0  0.42780  0.97706  0.16903  1.0000
  H   H2267     1.0  0.48594  0.87872  0.21412  1.0000
  C   C1294     1.0  0.28687  0.94058  0.21329  1.0000
  N   N74       1.0  0.39891  0.98618  0.16073  1.0000
  C   C1295     1.0  0.31795  0.97560  0.20868  1.0000
  H   H2268     1.0  0.01941  0.72655  0.01817  1.0000
  C   C1296     1.0  0.22111  0.81431  0.98717  1.0000
  H   H2269     1.0  0.02805  0.69757  0.03487  1.0000
  C   C1297     1.0  0.25821  0.93618  0.21437  1.0000
  H   H2270     1.0  0.39907  0.96119  0.11767  1.0000
  C   C1298     1.0  0.30563  0.96439  0.21732  1.0000
  H   H2271     1.0  0.20976  0.91610  0.09875  1.0000
  C   C1299     1.0  0.19920  0.94165  0.12563  1.0000
  H   H2272     1.0  0.24468  0.90558  0.11351  1.0000
  H   H2273     1.0  0.14708  0.79035  0.03342  1.0000
  C   C1300     1.0  0.28539  0.87333  0.06519  1.0000
  H   H2274     1.0  0.27937  0.86357  0.06469  1.0000
  C   C1301     1.0  0.13321  0.79223  0.00764  1.0000
  H   H2275     1.0  0.16600  0.77817  0.00655  1.0000
  H   H2276     1.0  0.14996  0.75815  0.06024  1.0000
  H   H2277     1.0  0.15463  0.77721  0.06070  1.0000
  H   H2278     1.0  0.25094  0.92666  0.21625  1.0000
  H   H2279     1.0  0.02528  0.83952  0.04308  1.0000
  H   H2280     1.0  0.30223  0.83091  0.02861  1.0000
  H   H2281     1.0  0.02182  0.70880  0.15873  1.0000
  N   N75       1.0  0.14107  0.77401  0.01174  1.0000
  C   C1302     1.0  0.15034  0.77667  0.03716  1.0000
  H   H2282     1.0  0.37333  0.98767  0.16019  1.0000
  H   H2283     1.0  0.02277  0.79589  0.08908  1.0000
  H   H2284     1.0  0.00528  0.68747  0.16895  1.0000
  H   H2285     1.0  0.02294  0.80330  0.05949  1.0000
  H   H2286     1.0  0.21747  0.95666  0.13739  1.0000
  C   C1303     1.0  0.23734  0.89672  0.11349  1.0000
  H   H2287     1.0  0.31762  0.94750  0.20085  1.0000
  H   H2288     1.0  0.28449  0.91235  0.02498  1.0000
  H   H2289     1.0  0.43346  0.98431  0.15717  1.0000
  C   C1304     1.0  0.03324  0.66240  0.07033  1.0000
  H   H2290     1.0  0.27891  0.95212  0.21689  1.0000
  H   H2291     1.0  0.00163  0.67355  0.03883  1.0000
  H   H2292     1.0  0.46893  0.87868  0.20532  1.0000
  C   C1305     1.0  0.31123  0.91841  0.21624  1.0000
  S   S292      1.0  0.01443  0.78114  0.03770  1.0000
  C   C1306     1.0  0.24740  0.98192  0.22019  1.0000
  H   H2293     1.0  0.26178  0.88851  0.07499  1.0000
  C   C1307     1.0  0.18330  0.96112  0.07823  1.0000
  C   C1308     1.0  0.13232  0.76323  0.00735  1.0000
  H   H2294     1.0  0.23922  0.89522  0.10070  1.0000
  H   H2295     1.0  0.30383  0.90865  0.22168  1.0000
  H   H2296     1.0  0.12350  0.79594  0.01831  1.0000
  H   H2297     1.0  0.29594  0.97397  0.07105  1.0000
  H   H2298     1.0  0.01749  0.69025  0.02353  1.0000
  Fe  Fe152     1.0  0.36818  0.92844  0.23210  1.0000
  C   C1309     1.0  0.21147  0.91944  0.10970  1.0000
  H   H2299     1.0  0.18301  0.89472  0.00057  1.0000
  H   H2300     1.0  0.33514  0.89267  0.20586  1.0000
  H   H2301     1.0  0.00641  0.77642  0.15108  1.0000
  H   H2302     1.0  0.47868  0.84770  0.20728  1.0000
  H   H2303     1.0  0.29100  0.94418  0.19963  1.0000
  C   C1310     1.0  0.11439  0.76289  0.01760  1.0000
  H   H2304     1.0  0.28178  0.73038  0.99417  1.0000
  S   S293      1.0  0.41156  0.87721  0.23001  1.0000
  H   H2305     1.0  0.32740  0.85972  0.05013  1.0000
  C   C1311     1.0  0.16299  0.77530  0.98402  1.0000
  H   H2306     1.0  0.40452  0.97370  0.18472  1.0000
  H   H2307     1.0  0.17342  0.94635  0.11062  1.0000
  H   H2308     1.0  0.02726  0.65950  0.08364  1.0000
  H   H2309     1.0  0.11481  0.75443  0.02985  1.0000
  C   C1312     1.0  0.02974  0.82359  0.02626  1.0000
  H   H2310     1.0  0.00309  0.79039  0.13185  1.0000
  H   H2311     1.0  0.11289  0.79408  0.99564  1.0000
  H   H2312     1.0  0.23029  0.97763  0.10116  1.0000
  C   C1313     1.0  0.47298  0.87700  0.21698  1.0000
  H   H2313     1.0  0.32416  0.94235  0.21991  1.0000
  C   C1314     1.0  0.34359  0.87653  0.04414  1.0000
  H   H2314     1.0  0.04028  0.67219  0.06816  1.0000
  H   H2315     1.0  0.28280  0.92845  0.99686  1.0000
  S   S294      1.0  0.25248  0.79669  0.99185  1.0000
  H   H2316     1.0  0.26075  0.89282  0.98713  1.0000
  H   H2317     1.0  0.00336  0.71488  0.04659  1.0000
  H   H2318     1.0  0.45008  0.97390  0.17797  1.0000
  H   H2319     1.0  0.31339  0.91992  0.20261  1.0000
  H   H2320     1.0  0.25187  0.94418  0.22342  1.0000
  S   S295      1.0  0.37654  0.91122  0.21477  1.0000
  H   H2321     1.0  0.35483  0.97770  0.19412  1.0000
  S   S296      1.0  0.29360  0.97530  0.13623  1.0000
  H   H2322     1.0  0.28451  0.96619  0.09141  1.0000
  H   H2323     1.0  0.99904  0.74741  0.11219  1.0000
  S   S297      1.0  0.41533  0.95524  0.22742  1.0000
  H   H2324     1.0  0.00461  0.94170  0.10610  1.0000
  H   H2325     1.0  0.18059  0.95184  0.07306  1.0000
  H   H2326     1.0  0.27527  0.97084  0.07382  1.0000
  H   H2327     1.0  0.32034  0.82802  0.03694  1.0000
  C   C1315     1.0  0.42043  0.98624  0.22266  1.0000
  H   H2328     1.0  0.02680  0.67100  0.04663  1.0000
  H   H2329     1.0  0.02646  0.74863  0.10754  1.0000
  Fe  Fe153     1.0  0.00958  0.75870  0.03256  1.0000
  H   H2330     1.0  0.99889  0.70950  0.14380  1.0000
  C   C1316     1.0  0.10439  0.75678  0.00910  1.0000
  S   S298      1.0  0.28863  0.97856  0.17513  1.0000
  H   H2331     1.0  0.43255  0.96891  0.19381  1.0000
  C   C1317     1.0  0.02025  0.66810  0.05966  1.0000
  H   H2332     1.0  0.02467  0.73053  0.10233  1.0000
  C   C1318     1.0  0.40942  0.97693  0.22243  1.0000
  H   H2333     1.0  0.27161  0.91208  0.00257  1.0000
  H   H2334     1.0  0.45839  0.85918  0.23052  1.0000
  H   H2335     1.0  0.46759  0.80100  0.22938  1.0000
  H   H2336     1.0  0.99965  0.76799  0.12147  1.0000
  H   H2337     1.0  0.38431  0.97187  0.14242  1.0000
  C   C1319     1.0  0.40602  0.96054  0.12707  1.0000
  S   S299      1.0  0.00371  0.77554  0.08634  1.0000
  C   C1320     1.0  0.48276  0.84599  0.21899  1.0000
  C   C1321     1.0  0.00219  0.69789  0.17532  1.0000
  C   C1322     1.0  0.00678  0.68300  0.06493  1.0000
  H   H2338     1.0  0.13183  0.82234  0.98450  1.0000
  H   H2339     1.0  0.39836  0.89128  0.30263  1.0000
  H   H2340     1.0  0.30707  0.93274  0.24498  1.0000
  Fe  Fe154     1.0  0.40305  0.69755  0.41018  1.0000
  S   S300      1.0  0.40211  0.71139  0.38433  1.0000
  H   H2341     1.0  0.45203  0.66309  0.38168  1.0000
  Fe  Fe155     1.0  0.43643  0.70651  0.40814  1.0000
  S   S301      1.0  0.43768  0.72089  0.38206  1.0000
  S   S302      1.0  0.45731  0.70162  0.42159  1.0000
  Fe  Fe156     1.0  0.41049  0.73080  0.39086  1.0000
  S   S303      1.0  0.39635  0.75681  0.38418  1.0000
  Fe  Fe157     1.0  0.42903  0.69994  0.37848  1.0000
  S   S304      1.0  0.40961  0.71793  0.41738  1.0000
  Fe  Fe158     1.0  0.44574  0.79878  0.30775  1.0000
  S   S305      1.0  0.45999  0.80837  0.28265  1.0000
  S   S306      1.0  0.42134  0.79224  0.31062  1.0000
  H   H2342     1.0  0.39029  0.73771  0.32606  1.0000
  H   H2343     1.0  0.44358  0.74202  0.33043  1.0000
  Fe  Fe159     1.0  0.46222  0.82817  0.29367  1.0000
  S   S307      1.0  0.45912  0.85486  0.28025  1.0000
  C   C1323     1.0  0.45022  0.73968  0.29512  1.0000
  S   S308      1.0  0.44611  0.81985  0.31816  1.0000
  C   C1324     1.0  0.45753  0.76673  0.27787  1.0000
  C   C1325     1.0  0.43147  0.88291  0.24719  1.0000
  H   H2344     1.0  0.41276  0.98211  0.26348  1.0000
  C   C1326     1.0  0.29670  0.69516  0.39919  1.0000
  H   H2345     1.0  0.27683  0.92594  0.27189  1.0000
  C   C1327     1.0  0.34197  0.73221  0.40841  1.0000
  C   C1328     1.0  0.35111  0.95505  0.25675  1.0000
  H   H2346     1.0  0.44534  0.73757  0.28527  1.0000
  C   C1329     1.0  0.45030  0.73078  0.32549  1.0000
  C   C1330     1.0  0.32169  0.95673  0.26054  1.0000
  H   H2347     1.0  0.46657  0.74598  0.33948  1.0000
  H   H2348     1.0  0.29547  0.91849  0.24536  1.0000
  C   C1331     1.0  0.34757  0.96909  0.26347  1.0000
  H   H2349     1.0  0.22278  0.67286  0.36489  1.0000
  H   H2350     1.0  0.31170  0.95204  0.25936  1.0000
  C   C1332     1.0  0.36872  0.68771  0.39901  1.0000
  H   H2351     1.0  0.33217  0.68168  0.44033  1.0000
  S   S309      1.0  0.47365  0.80067  0.35024  1.0000
  C   C1333     1.0  0.44472  0.86142  0.26741  1.0000
  C   C1334     1.0  0.44208  0.87778  0.25837  1.0000
  H   H2352     1.0  0.15888  0.69074  0.39302  1.0000
  H   H2353     1.0  0.35342  0.72300  0.40477  1.0000
  H   H2354     1.0  0.36741  0.87670  0.23860  1.0000
  C   C1335     1.0  0.43638  0.85035  0.26554  1.0000
  H   H2355     1.0  0.44847  0.88642  0.25980  1.0000
  H   H2356     1.0  0.28792  0.94170  0.27026  1.0000
  H   H2357     1.0  0.41319  0.87928  0.28866  1.0000
  H   H2358     1.0  0.43807  0.83784  0.27265  1.0000
  C   C1336     1.0  0.40329  0.76597  0.36349  1.0000
  C   C1337     1.0  0.39196  0.77716  0.35457  1.0000
  C   C1338     1.0  0.39750  0.78495  0.33817  1.0000
  C   C1339     1.0  0.41445  0.78216  0.33096  1.0000
  C   C1340     1.0  0.42580  0.77124  0.34001  1.0000
  C   C1341     1.0  0.42017  0.76275  0.35608  1.0000
  H   H2359     1.0  0.37890  0.77969  0.36029  1.0000
  H   H2360     1.0  0.38870  0.79344  0.33121  1.0000
  H   H2361     1.0  0.43889  0.76918  0.33455  1.0000
  H   H2362     1.0  0.42894  0.75416  0.36293  1.0000
  C   C1342     1.0  0.46846  0.71620  0.42169  1.0000
  H   H2363     1.0  0.46086  0.67889  0.31438  1.0000
  H   H2364     1.0  0.34273  0.88193  0.30713  1.0000
  H   H2365     1.0  0.35220  0.89100  0.24996  1.0000
  H   H2366     1.0  0.38084  0.66304  0.37020  1.0000
  C   C1343     1.0  0.33815  0.94874  0.25551  1.0000
  H   H2367     1.0  0.46107  0.79714  0.41805  1.0000
  H   H2368     1.0  0.28302  0.71026  0.42571  1.0000
  S   S310      1.0  0.34247  0.93093  0.24761  1.0000
  C   C1344     1.0  0.36118  0.87889  0.25116  1.0000
  H   H2369     1.0  0.37437  0.69822  0.39344  1.0000
  H   H2370     1.0  0.39047  0.68684  0.33427  1.0000
  H   H2371     1.0  0.32350  0.65520  0.44758  1.0000
  C   C1345     1.0  0.22948  0.66734  0.43714  1.0000
  H   H2372     1.0  0.33634  0.70095  0.41375  1.0000
  H   H2373     1.0  0.22647  0.67981  0.43005  1.0000
  H   H2374     1.0  0.41059  0.67948  0.35191  1.0000
  S   S311      1.0  0.42977  0.68460  0.40381  1.0000
  C   C1346     1.0  0.27643  0.73274  0.44555  1.0000
  H   H2375     1.0  0.22038  0.67278  0.34476  1.0000
  H   H2376     1.0  0.38302  0.85299  0.31830  1.0000
  H   H2377     1.0  0.37346  0.69091  0.35141  1.0000
  C   C1347     1.0  0.28048  0.94251  0.24767  1.0000
  C   C1348     1.0  0.32666  0.72722  0.40695  1.0000
  H   H2378     1.0  0.34095  0.73318  0.42127  1.0000
  H   H2379     1.0  0.39601  0.74994  0.33695  1.0000
  C   C1349     1.0  0.34707  0.87761  0.33144  1.0000
  H   H2380     1.0  0.43889  0.81358  0.25642  1.0000
  H   H2381     1.0  0.45649  0.76305  0.26684  1.0000
  H   H2382     1.0  0.44831  0.76660  0.36769  1.0000
  Fe  Fe160     1.0  0.14669  0.66855  0.48058  1.0000
  H   H2383     1.0  0.33609  0.87191  0.33712  1.0000
  H   H2384     1.0  0.40777  0.83100  0.31963  1.0000
  C   C1350     1.0  0.40417  0.83655  0.30753  1.0000
  C   C1351     1.0  0.45492  0.80445  0.40773  1.0000
  H   H2385     1.0  0.35660  0.86264  0.31311  1.0000
  C   C1352     1.0  0.44662  0.75863  0.29347  1.0000
  H   H2386     1.0  0.28820  0.69000  0.37994  1.0000
  H   H2387     1.0  0.38861  0.70367  0.34383  1.0000
  C   C1353     1.0  0.30988  0.70348  0.40119  1.0000
  H   H2388     1.0  0.29226  0.72743  0.41588  1.0000
  H   H2389     1.0  0.48026  0.71966  0.39595  1.0000
  C   C1354     1.0  0.32500  0.70999  0.41807  1.0000
  H   H2390     1.0  0.41569  0.83685  0.29778  1.0000
  H   H2391     1.0  0.43729  0.81412  0.23576  1.0000
  C   C1355     1.0  0.41180  0.90546  0.28154  1.0000
  C   C1356     1.0  0.39365  0.85401  0.30762  1.0000
  H   H2392     1.0  0.37963  0.85353  0.29063  1.0000
  H   H2393     1.0  0.47814  0.75725  0.35764  1.0000
  C   C1357     1.0  0.49072  0.73145  0.40891  1.0000
  N   N76       1.0  0.44300  0.72992  0.31165  1.0000
  H   H2394     1.0  0.28390  0.70142  0.40419  1.0000
  H   H2395     1.0  0.39713  0.82846  0.30540  1.0000
  C   C1358     1.0  0.36812  0.88451  0.30474  1.0000
  C   C1359     1.0  0.31864  0.68201  0.44430  1.0000
  H   H2396     1.0  0.37601  0.88229  0.31373  1.0000
  H   H2397     1.0  0.31019  0.68907  0.37545  1.0000
  H   H2398     1.0  0.36293  0.89812  0.30247  1.0000
  H   H2399     1.0  0.40122  0.86144  0.30984  1.0000
  H   H2400     1.0  0.29569  0.70890  0.37400  1.0000
  C   C1360     1.0  0.29163  0.71892  0.44213  1.0000
  C   C1361     1.0  0.17359  0.65711  0.39438  1.0000
  H   H2401     1.0  0.31563  0.73686  0.41051  1.0000
  H   H2402     1.0  0.40283  0.91723  0.28329  1.0000
  C   C1362     1.0  0.29783  0.69588  0.38100  1.0000
  H   H2403     1.0  0.49221  0.71421  0.36682  1.0000
  H   H2404     1.0  0.32592  0.71038  0.43054  1.0000
  H   H2405     1.0  0.35689  0.87117  0.33857  1.0000
  C   C1363     1.0  0.25972  0.66020  0.47581  1.0000
  C   C1364     1.0  0.27771  0.93903  0.26645  1.0000
  C   C1365     1.0  0.46191  0.70406  0.30041  1.0000
  C   C1366     1.0  0.47243  0.75258  0.37073  1.0000
  H   H2406     1.0  0.46367  0.71026  0.28715  1.0000
  H   H2407     1.0  0.39011  0.73070  0.34785  1.0000
  H   H2408     1.0  0.48693  0.73337  0.33418  1.0000
  C   C1367     1.0  0.46892  0.73116  0.32173  1.0000
  C   C1368     1.0  0.15926  0.68299  0.40559  1.0000
  H   H2409     1.0  0.41669  0.90610  0.26812  1.0000
  H   H2410     1.0  0.32748  0.91104  0.23416  1.0000
  H   H2411     1.0  0.39704  0.88837  0.26827  1.0000
  H   H2412     1.0  0.26504  0.72940  0.44476  1.0000
  H   H2413     1.0  0.46999  0.68993  0.33311  1.0000
  H   H2414     1.0  0.18282  0.70140  0.48135  1.0000
  C   C1369     1.0  0.36631  0.88224  0.27771  1.0000
  C   C1370     1.0  0.47220  0.68040  0.34383  1.0000
  H   H2415     1.0  0.35760  0.97382  0.26462  1.0000
  H   H2416     1.0  0.44275  0.79459  0.24957  1.0000
  H   H2417     1.0  0.41869  0.73767  0.30551  1.0000
  C   C1371     1.0  0.46807  0.71948  0.43685  1.0000
  C   C1372     1.0  0.44509  0.71220  0.31037  1.0000
  H   H2418     1.0  0.26956  0.94008  0.24488  1.0000
  H   H2419     1.0  0.42061  0.65740  0.33824  1.0000
  H   H2420     1.0  0.49146  0.81407  0.40727  1.0000
  C   C1373     1.0  0.31814  0.97093  0.26696  1.0000
  C   C1374     1.0  0.42611  0.85535  0.25411  1.0000
  H   H2421     1.0  0.49424  0.68669  0.41359  1.0000
  H   H2422     1.0  0.42232  0.90419  0.28733  1.0000
  C   C1375     1.0  0.49461  0.79478  0.35133  1.0000
  H   H2423     1.0  0.48150  0.75116  0.37834  1.0000
  C   C1376     1.0  0.36234  0.66549  0.42214  1.0000
  N   N77       1.0  0.43400  0.77162  0.40203  1.0000
  C   C1377     1.0  0.42433  0.78256  0.38933  1.0000
  C   C1378     1.0  0.44803  0.75915  0.39429  1.0000
  C   C1379     1.0  0.42229  0.76225  0.41541  1.0000
  C   C1380     1.0  0.44035  0.78157  0.41007  1.0000
  C   C1381     1.0  0.45191  0.79297  0.39854  1.0000
  C   C1382     1.0  0.40881  0.79529  0.39560  1.0000
  C   C1383     1.0  0.43053  0.74726  0.42748  1.0000
  H   H2424     1.0  0.42969  0.89548  0.24003  1.0000
  H   H2425     1.0  0.45345  0.78033  0.27610  1.0000
  H   H2426     1.0  0.34313  0.74442  0.40012  1.0000
  C   C1384     1.0  0.40049  0.80572  0.38141  1.0000
  C   C1385     1.0  0.41797  0.74202  0.44319  1.0000
  H   H2427     1.0  0.42016  0.77471  0.38359  1.0000
  H   H2428     1.0  0.43221  0.78965  0.37893  1.0000
  H   H2429     1.0  0.45768  0.75426  0.40187  1.0000
  H   H2430     1.0  0.44343  0.74825  0.39415  1.0000
  H   H2431     1.0  0.41476  0.75734  0.40984  1.0000
  H   H2432     1.0  0.41315  0.77070  0.42299  1.0000
  H   H2433     1.0  0.42981  0.78921  0.41738  1.0000
  H   H2434     1.0  0.44753  0.77328  0.41925  1.0000
  H   H2435     1.0  0.44676  0.80089  0.38785  1.0000
  H   H2436     1.0  0.42003  0.84660  0.25239  1.0000
  H   H2437     1.0  0.39944  0.78900  0.40490  1.0000
  H   H2438     1.0  0.41223  0.80386  0.40109  1.0000
  H   H2439     1.0  0.44078  0.74988  0.43123  1.0000
  H   H2440     1.0  0.43573  0.73651  0.42147  1.0000
  H   H2441     1.0  0.35739  0.87392  0.28326  1.0000
  H   H2442     1.0  0.38064  0.88911  0.25252  1.0000
  C   C1386     1.0  0.37428  0.87907  0.26008  1.0000
  C   C1387     1.0  0.38748  0.86170  0.29125  1.0000
  H   H2443     1.0  0.43351  0.76410  0.29247  1.0000
  C   C1388     1.0  0.35326  0.87597  0.31345  1.0000
  H   H2444     1.0  0.40920  0.81260  0.37174  1.0000
  H   H2445     1.0  0.39638  0.79769  0.37581  1.0000
  H   H2446     1.0  0.38943  0.81477  0.38613  1.0000
  H   H2447     1.0  0.40712  0.73968  0.44016  1.0000
  H   H2448     1.0  0.42394  0.73045  0.45080  1.0000
  H   H2449     1.0  0.41362  0.75178  0.45054  1.0000
  C   C1389     1.0  0.46216  0.66545  0.37132  1.0000
  H   H2450     1.0  0.41484  0.71524  0.33114  1.0000
  H   H2451     1.0  0.44829  0.72029  0.33616  1.0000
  H   H2452     1.0  0.31852  0.67751  0.42126  1.0000
  C   C1390     1.0  0.39749  0.67942  0.35814  1.0000
  H   H2453     1.0  0.47814  0.73125  0.44988  1.0000
  C   C1391     1.0  0.35139  0.67004  0.39765  1.0000
  H   H2454     1.0  0.29820  0.68349  0.43299  1.0000
  C   C1392     1.0  0.31074  0.68652  0.42895  1.0000
  H   H2455     1.0  0.44289  0.70409  0.32282  1.0000
  H   H2456     1.0  0.30782  0.71620  0.39344  1.0000
  C   C1393     1.0  0.47969  0.72240  0.40764  1.0000
  H   H2457     1.0  0.45295  0.68464  0.29570  1.0000
  H   H2458     1.0  0.47518  0.85912  0.23949  1.0000
  H   H2459     1.0  0.46916  0.80130  0.24958  1.0000
  C   C1394     1.0  0.41475  0.72791  0.33204  1.0000
  Fe  Fe161     1.0  0.46973  0.80384  0.32482  1.0000
  S   S312      1.0  0.46805  0.78180  0.31653  1.0000
  H   H2460     1.0  0.46311  0.81256  0.39908  1.0000
  C   C1395     1.0  0.33108  0.97700  0.26860  1.0000
  C   C1396     1.0  0.48831  0.67148  0.34453  1.0000
  H   H2461     1.0  0.32820  0.72709  0.39377  1.0000
  H   H2462     1.0  0.49229  0.68557  0.38211  1.0000
  H   H2463     1.0  0.44874  0.76182  0.30427  1.0000
  H   H2464     1.0  0.27806  0.74451  0.43657  1.0000
  H   H2465     1.0  0.48050  0.65591  0.43282  1.0000
  C   C1397     1.0  0.35914  0.68348  0.39055  1.0000
  H   H2466     1.0  0.45974  0.71447  0.44785  1.0000
  C   C1398     1.0  0.35287  0.66110  0.41356  1.0000
  H   H2467     1.0  0.30538  0.97704  0.27084  1.0000
  H   H2468     1.0  0.17103  0.66483  0.38235  1.0000
  H   H2469     1.0  0.43546  0.71127  0.30436  1.0000
  C   C1399     1.0  0.46265  0.68585  0.30137  1.0000
  C   C1400     1.0  0.49031  0.73456  0.42422  1.0000
  H   H2470     1.0  0.42225  0.75013  0.31712  1.0000
  H   H2471     1.0  0.32228  0.69692  0.39530  1.0000
  C   C1401     1.0  0.47343  0.73374  0.33672  1.0000
  H   H2472     1.0  0.46391  0.73523  0.29178  1.0000
  C   C1402     1.0  0.24595  0.65833  0.43467  1.0000
  C   C1403     1.0  0.38682  0.69087  0.34620  1.0000
  H   H2473     1.0  0.47068  0.76318  0.27903  1.0000
  H   H2474     1.0  0.46954  0.74041  0.37193  1.0000
  H   H2475     1.0  0.39845  0.86010  0.28089  1.0000
  H   H2476     1.0  0.38339  0.86710  0.26033  1.0000
  H   H2477     1.0  0.29853  0.68195  0.40555  1.0000
  H   H2478     1.0  0.26592  0.94714  0.27144  1.0000
  C   C1404     1.0  0.45669  0.76499  0.37609  1.0000
  C   C1405     1.0  0.46514  0.82612  0.23298  1.0000
  H   H2479     1.0  0.28940  0.70775  0.45177  1.0000
  N   N78       1.0  0.37820  0.87958  0.28883  1.0000
  C   C1406     1.0  0.38995  0.89114  0.28042  1.0000
  S   S313      1.0  0.43919  0.68913  0.35611  1.0000
  S   S314      1.0  0.26182  0.66756  0.42079  1.0000
  H   H2480     1.0  0.46418  0.78532  0.39412  1.0000
  H   H2481     1.0  0.31325  0.69101  0.45236  1.0000
  H   H2482     1.0  0.38271  0.90412  0.27781  1.0000
  N   N79       1.0  0.30980  0.70396  0.41865  1.0000
  H   H2483     1.0  0.47683  0.71940  0.31885  1.0000
  H   H2484     1.0  0.18561  0.67389  0.40032  1.0000
  C   C1407     1.0  0.39387  0.66178  0.36310  1.0000
  H   H2485     1.0  0.46011  0.77690  0.37415  1.0000
  C   C1408     1.0  0.45914  0.67746  0.35720  1.0000
  C   C1409     1.0  0.42456  0.73711  0.31578  1.0000
  H   H2486     1.0  0.47945  0.67324  0.44148  1.0000
  C   C1410     1.0  0.40343  0.89073  0.28950  1.0000
  H   H2487     1.0  0.35869  0.89514  0.27634  1.0000
  H   H2488     1.0  0.41148  0.65657  0.41710  1.0000
  H   H2489     1.0  0.42014  0.72692  0.34272  1.0000
  C   C1411     1.0  0.29389  0.71539  0.42489  1.0000
  H   H2490     1.0  0.34336  0.89086  0.33222  1.0000
  H   H2491     1.0  0.14762  0.67827  0.41079  1.0000
  H   H2492     1.0  0.30247  0.72281  0.44337  1.0000
  C   C1412     1.0  0.39668  0.73716  0.33588  1.0000
  H   H2493     1.0  0.47200  0.74152  0.31138  1.0000
  H   H2494     1.0  0.27477  0.73473  0.45817  1.0000
  H   H2495     1.0  0.47250  0.70465  0.30502  1.0000
  H   H2496     1.0  0.40675  0.66469  0.38775  1.0000
  C   C1413     1.0  0.44428  0.80760  0.24565  1.0000
  H   H2497     1.0  0.44959  0.65691  0.33923  1.0000
  Fe  Fe162     1.0  0.48246  0.79328  0.29228  1.0000
  S   S315      1.0  0.38298  0.68354  0.42538  1.0000
  H   H2498     1.0  0.35444  0.86884  0.25786  1.0000
  C   C1414     1.0  0.17434  0.66860  0.40510  1.0000
  H   H2499     1.0  0.44303  0.81245  0.41264  1.0000
  H   H2500     1.0  0.15995  0.69083  0.41363  1.0000
  C   C1415     1.0  0.37054  0.67866  0.41477  1.0000
  H   H2501     1.0  0.35764  0.69073  0.37847  1.0000
  S   S316      1.0  0.16572  0.66349  0.45773  1.0000
  H   H2502     1.0  0.36386  0.94900  0.25278  1.0000
  H   H2503     1.0  0.39467  0.68479  0.36919  1.0000
  S   S317      1.0  0.39117  0.92010  0.24231  1.0000
  H   H2504     1.0  0.22954  0.97644  0.26117  1.0000
  C   C1416     1.0  0.42372  0.87159  0.24485  1.0000
  H   H2505     1.0  0.20732  0.65654  0.38964  1.0000
  H   H2506     1.0  0.17598  0.68343  0.48075  1.0000
  H   H2507     1.0  0.19406  0.67118  0.36528  1.0000
  H   H2508     1.0  0.47501  0.68028  0.29457  1.0000
  H   H2509     1.0  0.20428  0.66733  0.45097  1.0000
  H   H2510     1.0  0.28031  0.95582  0.24292  1.0000
  C   C1417     1.0  0.47863  0.72887  0.43803  1.0000
  C   C1418     1.0  0.47836  0.65638  0.37199  1.0000
  S   S318      1.0  0.34030  0.66482  0.38599  1.0000
  H   H2511     1.0  0.32184  0.66232  0.46585  1.0000
  C   C1419     1.0  0.48711  0.66110  0.43903  1.0000
  C   C1420     1.0  0.21692  0.66028  0.44891  1.0000
  C   C1421     1.0  0.23607  0.97802  0.23497  1.0000
  H   H2512     1.0  0.26704  0.66994  0.46993  1.0000
  C   C1422     1.0  0.29687  0.93149  0.23996  1.0000
  C   C1423     1.0  0.46270  0.80800  0.23940  1.0000
  C   C1424     1.0  0.22057  0.66526  0.35743  1.0000
  H   H2513     1.0  0.39370  0.65804  0.35175  1.0000
  H   H2514     1.0  0.47028  0.72392  0.34770  1.0000
  C   C1425     1.0  0.20404  0.65985  0.36507  1.0000
  H   H2515     1.0  0.17402  0.66166  0.41804  1.0000
  C   C1426     1.0  0.25193  0.98563  0.25023  1.0000
  H   H2516     1.0  0.48843  0.81240  0.25158  1.0000
  S   S319      1.0  0.48610  0.81399  0.30124  1.0000
  H   H2517     1.0  0.48966  0.78028  0.37606  1.0000
  H   H2518     1.0  0.42764  0.65849  0.36496  1.0000
  H   H2519     1.0  0.47910  0.83298  0.25324  1.0000
  H   H2520     1.0  0.49356  0.70088  0.35333  1.0000
  H   H2521     1.0  0.45741  0.83306  0.24258  1.0000
  H   H2522     1.0  0.49362  0.79902  0.39532  1.0000
  C   C1427     1.0  0.23841  0.97967  0.24985  1.0000
  C   C1428     1.0  0.31663  0.66489  0.45472  1.0000
  H   H2523     1.0  0.23638  0.67698  0.47502  1.0000
  C   C1429     1.0  0.49145  0.65949  0.35858  1.0000
  C   C1430     1.0  0.48828  0.82541  0.24478  1.0000
  H   H2524     1.0  0.30332  0.66418  0.45873  1.0000
  H   H2525     1.0  0.36357  0.65848  0.43440  1.0000
  H   H2526     1.0  0.22538  0.97360  0.23494  1.0000
  S   S320      1.0  0.25390  0.98696  0.26975  1.0000
  H   H2527     1.0  0.38966  0.65504  0.39556  1.0000
  Fe  Fe163     1.0  0.03043  0.73295  0.55032  1.0000
  S   S321      1.0  0.01421  0.72251  0.57385  1.0000
  S   S322      1.0  0.01972  0.75448  0.53198  1.0000
  Fe  Fe164     1.0  0.06201  0.70849  0.55776  1.0000
  S   S323      1.0  0.04810  0.69597  0.58176  1.0000
  S   S324      1.0  0.08957  0.69787  0.55429  1.0000
  Fe  Fe165     1.0  0.02873  0.69807  0.56803  1.0000
  S   S325      1.0  0.01810  0.67586  0.57189  1.0000
  Fe  Fe166     1.0  0.03517  0.72142  0.58522  1.0000
  S   S326      1.0  0.03138  0.72626  0.61036  1.0000
  S   S327      1.0  0.04363  0.70843  0.54350  1.0000
  S   S328      1.0  0.05036  0.73407  0.56221  1.0000
  H   H2528     1.0  0.99627  0.71110  0.68354  1.0000
  H   H2529     1.0  0.03723  0.98582  0.69722  1.0000
  S   S329      1.0  0.01443  0.80191  0.61182  1.0000
  H   H2530     1.0  0.10760  0.66585  0.51102  1.0000
  C   C1431     1.0  0.11779  0.71732  0.59430  1.0000
  H   H2531     1.0  0.22128  0.68005  0.51177  1.0000
  H   H2532     1.0  0.11446  0.91606  0.69073  1.0000
  H   H2533     1.0  0.02168  0.67065  0.65785  1.0000
  S   S330      1.0  0.16228  0.94160  0.68543  1.0000
  H   H2534     1.0  0.10370  0.93489  0.70594  1.0000
  H   H2535     1.0  0.99702  0.82725  0.58126  1.0000
  S   S331      1.0  0.13646  0.96567  0.65128  1.0000
  H   H2536     1.0  0.06458  0.65809  0.58918  1.0000
  H   H2537     1.0  0.00992  0.80421  0.56857  1.0000
  S   S332      1.0  0.01372  0.95923  0.72186  1.0000
  C   C1432     1.0  0.08021  0.75258  0.58448  1.0000
  H   H2538     1.0  0.05768  0.78160  0.58763  1.0000
  Fe  Fe167     1.0  0.05309  0.90734  0.70786  1.0000
  S   S333      1.0  0.07637  0.90635  0.68819  1.0000
  S   S334      1.0  0.13346  0.69455  0.48291  1.0000
  S   S335      1.0  0.02870  0.92097  0.70142  1.0000
  C   C1433     1.0  0.08494  0.95893  0.67138  1.0000
  C   C1434     1.0  0.06994  0.95575  0.68163  1.0000
  C   C1435     1.0  0.06732  0.93961  0.68667  1.0000
  C   C1436     1.0  0.07951  0.92662  0.68113  1.0000
  C   C1437     1.0  0.09422  0.92988  0.67021  1.0000
  C   C1438     1.0  0.09711  0.94600  0.66562  1.0000
  H   H2539     1.0  0.06043  0.96571  0.68597  1.0000
  H   H2540     1.0  0.05580  0.93735  0.69481  1.0000
  H   H2541     1.0  0.10353  0.91991  0.66561  1.0000
  H   H2542     1.0  0.10860  0.94848  0.65742  1.0000
  H   H2543     1.0  0.18022  0.67045  0.50926  1.0000
  H   H2544     1.0  0.02309  0.70625  0.69180  1.0000
  C   C1439     1.0  0.16120  0.93972  0.70654  1.0000
  C   C1440     1.0  0.17599  0.93550  0.71212  1.0000
  H   H2545     1.0  0.05687  0.90297  0.60650  1.0000
  H   H2546     1.0  0.23397  0.94417  0.54283  1.0000
  H   H2547     1.0  0.18778  0.93353  0.70348  1.0000
  H   H2548     1.0  0.22127  0.95642  0.59489  1.0000
  C   C1441     1.0  0.23023  0.66685  0.54109  1.0000
  H   H2549     1.0  0.02358  0.91240  0.63017  1.0000
  C   C1442     1.0  0.10792  0.91727  0.72888  1.0000
  C   C1443     1.0  0.01345  0.85840  0.70413  1.0000
  H   H2550     1.0  0.09199  0.67540  0.48935  1.0000
  H   H2551     1.0  0.07114  0.86079  0.68103  1.0000
  H   H2552     1.0  0.20450  0.66806  0.48309  1.0000
  H   H2553     1.0  0.23673  0.97850  0.58266  1.0000
  H   H2554     1.0  0.02267  0.83330  0.70060  1.0000
  C   C1444     1.0  0.10171  0.69801  0.53428  1.0000
  H   H2555     1.0  0.11231  0.70824  0.60476  1.0000
  C   C1445     1.0  0.00156  0.84507  0.68942  1.0000
  S   S336      1.0  0.04375  0.88487  0.72346  1.0000
  H   H2556     1.0  0.07047  0.75444  0.57737  1.0000
  H   H2557     1.0  0.14040  0.68042  0.51532  1.0000
  C   C1446     1.0  0.21757  0.95630  0.56235  1.0000
  H   H2558     1.0  0.00736  0.71606  0.63726  1.0000
  H   H2559     1.0  0.08253  0.71340  0.52169  1.0000
  C   C1447     1.0  0.02674  0.74729  0.61055  1.0000
  C   C1448     1.0  0.02091  0.75221  0.62565  1.0000
  C   C1449     1.0  0.01708  0.76902  0.62604  1.0000
  C   C1450     1.0  0.01950  0.78089  0.61138  1.0000
  C   C1451     1.0  0.02558  0.77592  0.59629  1.0000
  C   C1452     1.0  0.02900  0.75914  0.59585  1.0000
  H   H2560     1.0  0.01911  0.74308  0.63704  1.0000
  H   H2561     1.0  0.01231  0.77274  0.63773  1.0000
  H   H2562     1.0  0.02751  0.78506  0.58496  1.0000
  H   H2563     1.0  0.03340  0.75543  0.58416  1.0000
  C   C1453     1.0  0.00836  0.67022  0.59265  1.0000
  C   C1454     1.0  0.45516  0.70148  0.71072  1.0000
  H   H2564     1.0  0.20474  0.67185  0.52562  1.0000
  C   C1455     1.0  0.09580  0.66163  0.51362  1.0000
  H   H2565     1.0  0.11425  0.65846  0.54192  1.0000
  H   H2566     1.0  0.08176  0.88056  0.72002  1.0000
  H   H2567     1.0  0.08696  0.67248  0.53513  1.0000
  H   H2568     1.0  0.45653  0.72481  0.71617  1.0000
  H   H2569     1.0  0.03016  0.72091  0.67333  1.0000
  C   C1456     1.0  0.00944  0.79427  0.54798  1.0000
  H   H2570     1.0  0.08377  0.98106  0.71595  1.0000
  C   C1457     1.0  0.00182  0.80667  0.55964  1.0000
  C   C1458     1.0  0.05754  0.86174  0.68546  1.0000
  C   C1459     1.0  0.18690  0.68034  0.50183  1.0000
  H   H2571     1.0  0.21419  0.95899  0.62381  1.0000
  H   H2572     1.0  0.10164  0.71755  0.57010  1.0000
  C   C1460     1.0  0.12723  0.90896  0.69083  1.0000
  H   H2573     1.0  0.48630  0.70235  0.71380  1.0000
  H   H2574     1.0  0.05221  0.86766  0.66146  1.0000
  H   H2575     1.0  0.08140  0.68637  0.50564  1.0000
  C   C1461     1.0  0.10516  0.70561  0.50451  1.0000
  H   H2576     1.0  0.02577  0.70485  0.65459  1.0000
  H   H2577     1.0  0.20197  0.97126  0.59949  1.0000
  C   C1462     1.0  0.07915  0.72390  0.59866  1.0000
  H   H2578     1.0  0.03982  0.89235  0.61261  1.0000
  C   C1463     1.0  0.04725  0.91995  0.65414  1.0000
  H   H2579     1.0  0.09760  0.75438  0.55279  1.0000
  S   S337      1.0  0.00174  0.82677  0.68316  1.0000
  N   N80       1.0  0.45617  0.69038  0.72746  1.0000
  H   H2580     1.0  0.07925  0.75537  0.60972  1.0000
  H   H2581     1.0  0.07624  0.68220  0.61051  1.0000
  C   C1464     1.0  0.45122  0.73010  0.69222  1.0000
  C   C1465     1.0  0.07400  0.69497  0.61241  1.0000
  C   C1466     1.0  0.99799  0.70839  0.64371  1.0000
  H   H2582     1.0  0.07568  0.78365  0.59340  1.0000
  H   H2583     1.0  0.03482  0.87367  0.67739  1.0000
  H   H2584     1.0  0.08308  0.73083  0.56577  1.0000
  H   H2585     1.0  0.13063  0.72352  0.60981  1.0000
  H   H2586     1.0  0.12158  0.71241  0.58289  1.0000
  H   H2587     1.0  0.44114  0.66373  0.72756  1.0000
  C   C1467     1.0  0.10527  0.73413  0.59245  1.0000
  C   C1468     1.0  0.05209  0.89085  0.66789  1.0000
  H   H2588     1.0  0.21789  0.67129  0.54871  1.0000
  C   C1469     1.0  0.08724  0.87418  0.73098  1.0000
  C   C1470     1.0  0.00717  0.71418  0.67393  1.0000
  H   H2589     1.0  0.07929  0.72407  0.61150  1.0000
  H   H2590     1.0  0.08837  0.76132  0.57716  1.0000
  H   H2591     1.0  0.02208  0.68951  0.67267  1.0000
  H   H2592     1.0  0.03406  0.78650  0.55364  1.0000
  H   H2593     1.0  0.06556  0.88922  0.66220  1.0000
  C   C1471     1.0  0.20501  0.67326  0.49346  1.0000
  H   H2594     1.0  0.23873  0.93537  0.56308  1.0000
  Fe  Fe168     1.0  0.02463  0.93170  0.72363  1.0000
  H   H2595     1.0  0.07882  0.69445  0.62331  1.0000
  C   C1472     1.0  0.10478  0.74147  0.55538  1.0000
  Fe  Fe169     1.0  0.01882  0.89919  0.71841  1.0000
  H   H2596     1.0  0.12332  0.68283  0.54319  1.0000
  H   H2597     1.0  0.13655  0.93101  0.67715  1.0000
  H   H2598     1.0  0.00308  0.66277  0.67940  1.0000
  H   H2599     1.0  0.19492  0.97815  0.57568  1.0000
  C   C1473     1.0  0.06502  0.77741  0.59739  1.0000
  H   H2600     1.0  0.01076  0.98592  0.69125  1.0000
  C   C1474     1.0  0.09520  0.70638  0.52033  1.0000
  H   H2601     1.0  0.09603  0.69978  0.59471  1.0000
  H   H2602     1.0  0.10016  0.71211  0.49368  1.0000
  H   H2603     1.0  0.44393  0.72637  0.68548  1.0000
  H   H2604     1.0  0.06596  0.72883  0.59753  1.0000
  S   S338      1.0  0.08790  0.97922  0.66571  1.0000
  Fe  Fe170     1.0  0.11384  0.98116  0.66414  1.0000
  H   H2605     1.0  0.01457  0.93130  0.66757  1.0000
  C   C1475     1.0  0.01345  0.84456  0.69821  1.0000
  H   H2606     1.0  0.11697  0.72245  0.54100  1.0000
  S   S339      1.0  0.00022  0.89061  0.70938  1.0000
  H   H2607     1.0  0.02703  0.98552  0.67294  1.0000
  C   C1476     1.0  0.04824  0.87330  0.67245  1.0000
  H   H2608     1.0  0.00234  0.67764  0.69110  1.0000
  C   C1477     1.0  0.09457  0.73047  0.56965  1.0000
  H   H2609     1.0  0.04066  0.92295  0.62418  1.0000
  H   H2610     1.0  0.13450  0.94545  0.71359  1.0000
  C   C1478     1.0  0.48557  0.69434  0.72634  1.0000
  H   H2611     1.0  0.01323  0.92782  0.64841  1.0000
  H   H2612     1.0  0.00030  0.76413  0.72775  1.0000
  C   C1479     1.0  0.06556  0.92036  0.64522  1.0000
  C   C1480     1.0  0.06858  0.93791  0.64114  1.0000
  H   H2613     1.0  0.07419  0.91243  0.65316  1.0000
  H   H2614     1.0  0.06886  0.91614  0.63345  1.0000
  H   H2615     1.0  0.08200  0.93770  0.63601  1.0000
  H   H2616     1.0  0.06148  0.94611  0.63185  1.0000
  H   H2617     1.0  0.06481  0.94313  0.65239  1.0000
  H   H2618     1.0  0.13999  0.72755  0.58795  1.0000
  H   H2619     1.0  0.06210  0.66529  0.55958  1.0000
  C   C1481     1.0  0.10966  0.89099  0.72050  1.0000
  N   N81       1.0  0.00461  0.69457  0.65695  1.0000
  C   C1482     1.0  0.08269  0.70564  0.59701  1.0000
  H   H2620     1.0  0.05487  0.84921  0.68815  1.0000
  H   H2621     1.0  0.15192  0.91186  0.67637  1.0000
  H   H2622     1.0  0.06020  0.75296  0.60681  1.0000
  C   C1483     1.0  0.13869  0.91788  0.67638  1.0000
  C   C1484     1.0  0.02376  0.90535  0.66545  1.0000
  C   C1485     1.0  0.21707  0.66823  0.51754  1.0000
  H   H2623     1.0  0.00671  0.78188  0.55360  1.0000
  H   H2624     1.0  0.02889  0.76018  0.70649  1.0000
  H   H2625     1.0  0.22101  0.93160  0.55835  1.0000
  C   C1486     1.0  0.15276  0.97970  0.72003  1.0000
  C   C1487     1.0  0.22754  0.96995  0.55906  1.0000
  S   S340      1.0  0.00338  0.79402  0.66085  1.0000
  C   C1488     1.0  0.21567  0.96889  0.59757  1.0000
  C   C1489     1.0  0.44931  0.72029  0.71006  1.0000
  H   H2626     1.0  0.44658  0.74352  0.69208  1.0000
  H   H2627     1.0  0.10166  0.73721  0.60482  1.0000
  C   C1490     1.0  0.01189  0.92248  0.66178  1.0000
  H   H2628     1.0  0.17437  0.98211  0.55902  1.0000
  C   C1491     1.0  0.10912  0.73515  0.53943  1.0000
  C   C1492     1.0  0.13359  0.71894  0.59823  1.0000
  H   H2629     1.0  0.14219  0.70664  0.59990  1.0000
  H   H2630     1.0  0.05697  0.78121  0.60881  1.0000
  C   C1493     1.0  0.99955  0.68236  0.60164  1.0000
  C   C1494     1.0  0.11818  0.68911  0.53241  1.0000
  H   H2631     1.0  0.47578  0.67235  0.71599  1.0000
  H   H2632     1.0  0.00652  0.78278  0.72626  1.0000
  H   H2633     1.0  0.07356  0.66972  0.50337  1.0000
  H   H2634     1.0  0.11610  0.74337  0.52928  1.0000
  C   C1495     1.0  0.04499  0.89828  0.64081  1.0000
  C   C1496     1.0  0.00145  0.87300  0.70144  1.0000
  C   C1497     1.0  0.16221  0.98343  0.70214  1.0000
  H   H2635     1.0  0.02249  0.90235  0.67910  1.0000
  H   H2636     1.0  0.11207  0.74378  0.58440  1.0000
  H   H2637     1.0  0.06042  0.70003  0.61480  1.0000
  H   H2638     1.0  0.05052  0.89486  0.67960  1.0000
  C   C1498     1.0  0.03728  0.91078  0.62682  1.0000
  H   H2639     1.0  0.04528  0.92329  0.66627  1.0000
  H   H2640     1.0  0.12817  0.89653  0.68863  1.0000
  H   H2641     1.0  0.02997  0.77342  0.68619  1.0000
  C   C1499     1.0  0.22855  0.94095  0.55625  1.0000
  H   H2642     1.0  0.00439  0.79884  0.53659  1.0000
  H   H2643     1.0  0.07784  0.70522  0.58646  1.0000
  H   H2644     1.0  0.23832  0.65863  0.54950  1.0000
  H   H2645     1.0  0.03057  0.78152  0.70318  1.0000
  C   C1500     1.0  0.12785  0.68771  0.51667  1.0000
  H   H2646     1.0  0.05342  0.86633  0.69709  1.0000
  H   H2647     1.0  0.14384  0.89788  0.70713  1.0000
  H   H2648     1.0  0.18685  0.68830  0.51009  1.0000
  H   H2649     1.0  0.03994  0.88703  0.64302  1.0000
  H   H2650     1.0  0.00078  0.70778  0.51696  1.0000
  N   N82       1.0  0.09007  0.73492  0.58635  1.0000
  H   H2651     1.0  0.03948  0.93038  0.64698  1.0000
  H   H2652     1.0  0.05856  0.89428  0.63600  1.0000
  H   H2653     1.0  0.23315  0.96587  0.61306  1.0000
  C   C1501     1.0  0.07115  0.75861  0.60076  1.0000
  C   C1502     1.0  0.03792  0.66910  0.62658  1.0000
  H   H2654     1.0  0.02935  0.66364  0.62304  1.0000
  H   H2655     1.0  0.07607  0.95014  0.71708  1.0000
  C   C1503     1.0  0.45313  0.66475  0.71872  1.0000
  H   H2656     1.0  0.00074  0.77269  0.57954  1.0000
  H   H2657     1.0  0.21209  0.95239  0.57559  1.0000
  H   H2658     1.0  0.11660  0.74147  0.55834  1.0000
  N   N83       1.0  0.04189  0.90388  0.65674  1.0000
  C   C1504     1.0  0.01971  0.97153  0.73184  1.0000
  S   S341      1.0  0.12370  0.97857  0.68654  1.0000
  C   C1505     1.0  0.13183  0.90713  0.70754  1.0000
  H   H2659     1.0  0.03720  0.91342  0.60106  1.0000
  H   H2660     1.0  0.01845  0.89595  0.66305  1.0000
  H   H2661     1.0  0.09766  0.73497  0.53582  1.0000
  C   C1506     1.0  0.12136  0.69598  0.50269  1.0000
  C   C1507     1.0  0.02842  0.68461  0.63321  1.0000
  H   H2662     1.0  0.13596  0.91766  0.66456  1.0000
  H   H2663     1.0  0.21397  0.98077  0.61757  1.0000
  C   C1508     1.0  0.00574  0.71119  0.52594  1.0000
  H   H2664     1.0  0.00334  0.72592  0.66524  1.0000
  C   C1509     1.0  0.01564  0.70016  0.66440  1.0000
  H   H2665     1.0  0.00340  0.81900  0.55174  1.0000
  H   H2666     1.0  0.10336  0.89691  0.71004  1.0000
  H   H2667     1.0  0.44635  0.69830  0.70529  1.0000
  H   H2668     1.0  0.16163  0.97084  0.72716  1.0000
  H   H2669     1.0  0.11841  0.87966  0.71700  1.0000
  H   H2670     1.0  0.46448  0.72810  0.68574  1.0000
  C   C1510     1.0  0.01502  0.68035  0.64900  1.0000
  H   H2671     1.0  0.23592  0.67759  0.53413  1.0000
  Fe  Fe171     1.0  0.14713  0.96494  0.67270  1.0000
  H   H2672     1.0  0.00054  0.76217  0.50751  1.0000
  H   H2673     1.0  0.07395  0.66052  0.53316  1.0000
  Fe  Fe172     1.0  0.99707  0.80483  0.63606  1.0000
  C   C1511     1.0  0.21953  0.96867  0.61396  1.0000
  H   H2674     1.0  0.00299  0.79126  0.69578  1.0000
  H   H2675     1.0  0.02278  0.69343  0.62318  1.0000
  C   C1512     1.0  0.22309  0.98215  0.58351  1.0000
  H   H2676     1.0  0.03176  0.80424  0.53665  1.0000
  H   H2677     1.0  0.03326  0.78377  0.53390  1.0000
  H   H2678     1.0  0.13493  0.91895  0.70740  1.0000
  H   H2679     1.0  0.08902  0.92147  0.71419  1.0000
  H   H2680     1.0  0.03754  0.69006  0.63580  1.0000
  C   C1513     1.0  0.02830  0.79214  0.54276  1.0000
  H   H2681     1.0  0.46733  0.69931  0.70194  1.0000
  C   C1514     1.0  0.24243  0.66783  0.48463  1.0000
  H   H2682     1.0  0.01270  0.72777  0.68889  1.0000
  C   C1515     1.0  0.04320  0.90443  0.61080  1.0000
  C   C1516     1.0  0.99589  0.70628  0.54351  1.0000
  H   H2683     1.0  0.20723  0.96087  0.55569  1.0000
  C   C1517     1.0  0.46371  0.67289  0.72503  1.0000
  H   H2684     1.0  0.23957  0.96398  0.56289  1.0000
  C   C1518     1.0  0.09632  0.92854  0.71742  1.0000
  C   C1519     1.0  0.99858  0.77751  0.72161  1.0000
  H   H2685     1.0  0.99592  0.70332  0.63402  1.0000
  H   H2686     1.0  0.00690  0.67426  0.64561  1.0000
  C   C1520     1.0  0.08496  0.67405  0.50236  1.0000
  H   H2687     1.0  0.99754  0.69262  0.54656  1.0000
  H   H2688     1.0  0.11533  0.92536  0.73043  1.0000
  H   H2689     1.0  0.23097  0.97387  0.54536  1.0000
  C   C1521     1.0  0.14598  0.94213  0.71784  1.0000
  H   H2690     1.0  0.02256  0.85766  0.71103  1.0000
  N   N84       1.0  0.21535  0.66038  0.50459  1.0000
  H   H2691     1.0  0.43594  0.72320  0.71592  1.0000
  S   S342      1.0  0.15791  0.98745  0.65994  1.0000
  H   H2692     1.0  0.49212  0.68151  0.72534  1.0000
  C   C1522     1.0  0.08718  0.66061  0.53210  1.0000
  C   C1523     1.0  0.01909  0.71739  0.68250  1.0000
  H   H2693     1.0  0.45046  0.67194  0.70661  1.0000
  C   C1524     1.0  0.02508  0.77303  0.69959  1.0000
  H   H2694     1.0  0.24416  0.67440  0.49327  1.0000
  C   C1525     1.0  0.22855  0.65725  0.52927  1.0000
  N   N85       1.0  0.21911  0.98477  0.56681  1.0000
  C   C1526     1.0  0.17565  0.93451  0.72871  1.0000
  N   N86       1.0  0.11923  0.90218  0.72313  1.0000
  H   H2695     1.0  0.01893  0.70462  0.52511  1.0000
  H   H2696     1.0  0.16798  0.97174  0.69778  1.0000
  H   H2697     1.0  0.14268  0.97372  0.72042  1.0000
  C   C1527     1.0  0.00617  0.77848  0.70294  1.0000
  H   H2698     1.0  0.11493  0.98732  0.73116  1.0000
  H   H2699     1.0  0.16415  0.69617  0.49522  1.0000
  H   H2700     1.0  0.09621  0.86266  0.72845  1.0000
  H   H2701     1.0  0.00147  0.77017  0.69825  1.0000
  C   C1528     1.0  0.08399  0.94200  0.72570  1.0000
  H   H2702     1.0  0.04755  0.67238  0.61545  1.0000
  H   H2703     1.0  0.08987  0.65967  0.56338  1.0000
  H   H2704     1.0  0.99880  0.69525  0.59587  1.0000
  H   H2705     1.0  0.09066  0.94970  0.72895  1.0000
  C   C1529     1.0  0.17693  0.69098  0.48896  1.0000
  H   H2706     1.0  0.21075  0.68417  0.48763  1.0000
  H   H2707     1.0  0.00526  0.72472  0.52262  1.0000
  H   H2708     1.0  0.00150  0.70998  0.55173  1.0000
  H   H2709     1.0  0.04411  0.65975  0.63597  1.0000
  C   C1530     1.0  0.99813  0.75836  0.53370  1.0000
  S   S343      1.0  0.04993  0.91967  0.72869  1.0000
  H   H2710     1.0  0.14840  0.90686  0.72906  1.0000
  H   H2711     1.0  0.42977  0.69170  0.73119  1.0000
  C   C1531     1.0  0.99540  0.67388  0.68406  1.0000
  H   H2712     1.0  0.25213  0.98700  0.55141  1.0000
  C   C1532     1.0  0.01148  0.98819  0.73082  1.0000
  H   H2713     1.0  0.18718  0.93195  0.73274  1.0000
  Fe  Fe173     1.0  0.38667  0.73612  0.90565  1.0000
  S   S344      1.0  0.39241  0.75523  0.88273  1.0000
  S   S345      1.0  0.35962  0.73828  0.91829  1.0000
  Fe  Fe174     1.0  0.42263  0.71717  0.90128  1.0000
  S   S346      1.0  0.43112  0.73512  0.87818  1.0000
  S   S347      1.0  0.44019  0.69311  0.90862  1.0000
  Fe  Fe175     1.0  0.41466  0.75448  0.89182  1.0000
  S   S348      1.0  0.41862  0.77980  0.88964  1.0000
  Fe  Fe176     1.0  0.40802  0.73420  0.87134  1.0000
  S   S349      1.0  0.40848  0.73383  0.84528  1.0000
  S   S350      1.0  0.40806  0.73666  0.91582  1.0000
  S   S351      1.0  0.40054  0.71492  0.89342  1.0000
  S   S352      1.0  0.44029  0.67273  0.78876  1.0000
  H   H2714     1.0  0.18690  0.95667  0.86740  1.0000
  Fe  Fe177     1.0  0.46376  0.68171  0.78439  1.0000
  S   S353      1.0  0.46400  0.70858  0.77158  1.0000
  H   H2715     1.0  0.20074  0.96556  0.84921  1.0000
  S   S354      1.0  0.45571  0.80820  0.81765  1.0000
  Fe  Fe178     1.0  0.17535  0.92704  0.90388  1.0000
  S   S355      1.0  0.19092  0.90157  0.90430  1.0000
  S   S356      1.0  0.15884  0.93862  0.88525  1.0000
  Fe  Fe179     1.0  0.18970  0.93167  0.93131  1.0000
  S   S357      1.0  0.20623  0.90655  0.93332  1.0000
  S   S358      1.0  0.19128  0.95031  0.94473  1.0000
  Fe  Fe180     1.0  0.21137  0.91223  0.90570  1.0000
  S   S359      1.0  0.23592  0.90732  0.88821  1.0000
  Fe  Fe181     1.0  0.18419  0.89846  0.93173  1.0000
  S   S360      1.0  0.18021  0.87370  0.94677  1.0000
  S   S361      1.0  0.19641  0.93810  0.90356  1.0000
  S   S362      1.0  0.16685  0.92334  0.93150  1.0000
  C   C1533     1.0  0.15502  0.86704  0.91992  1.0000
  H   H2716     1.0  0.46298  0.79766  0.77708  1.0000
  C   C1534     1.0  0.45868  0.66273  0.86001  1.0000
  Fe  Fe182     1.0  0.48253  0.79595  0.81040  1.0000
  H   H2717     1.0  0.40465  0.65708  0.90198  1.0000
  Fe  Fe183     1.0  0.27965  0.82946  0.93595  1.0000
  S   S363      1.0  0.27823  0.83559  0.90929  1.0000
  H   H2718     1.0  0.45575  0.73423  0.84625  1.0000
  S   S364      1.0  0.28493  0.80323  0.95007  1.0000
  Fe  Fe184     1.0  0.13699  0.90924  0.81715  1.0000
  S   S365      1.0  0.11074  0.90819  0.81854  1.0000
  S   S366      1.0  0.14919  0.89692  0.83903  1.0000
  Fe  Fe185     1.0  0.14135  0.92759  0.78110  1.0000
  S   S367      1.0  0.11537  0.92870  0.77951  1.0000
  S   S368      1.0  0.16074  0.93763  0.76023  1.0000
  Fe  Fe186     1.0  0.10864  0.93448  0.80473  1.0000
  S   S369      1.0  0.08542  0.95242  0.81257  1.0000
  Fe  Fe187     1.0  0.11962  0.90237  0.79333  1.0000
  S   S370      1.0  0.11232  0.88202  0.78666  1.0000
  S   S371      1.0  0.13419  0.93617  0.80503  1.0000
  S   S372      1.0  0.14634  0.90067  0.79315  1.0000
  C   C1535     1.0  0.07436  0.98204  0.79351  1.0000
  S   S373      1.0  0.04380  0.88626  0.76905  1.0000
  H   H2719     1.0  0.07488  0.92169  0.80161  1.0000
  H   H2720     1.0  0.46091  0.81245  0.85704  1.0000
  H   H2721     1.0  0.13009  0.90514  0.89555  1.0000
  C   C1536     1.0  0.46510  0.93540  0.78070  1.0000
  H   H2722     1.0  0.46366  0.94832  0.78183  1.0000
  C   C1537     1.0  0.05586  0.94298  0.79490  1.0000
  H   H2723     1.0  0.05437  0.90606  0.85409  1.0000
  C   C1538     1.0  0.12762  0.92053  0.92032  1.0000
  C   C1539     1.0  0.06353  0.92447  0.85937  1.0000
  C   C1540     1.0  0.41434  0.77605  0.81704  1.0000
  H   H2724     1.0  0.43183  0.66400  0.88569  1.0000
  H   H2725     1.0  0.00015  0.92852  0.82549  1.0000
  H   H2726     1.0  0.03084  0.93837  0.82336  1.0000
  H   H2727     1.0  0.48291  0.85352  0.78476  1.0000
  H   H2728     1.0  0.45333  0.93129  0.78721  1.0000
  H   H2729     1.0  0.09067  0.86669  0.82527  1.0000
  H   H2730     1.0  0.01788  0.95095  0.77491  1.0000
  C   C1541     1.0  0.10812  0.87880  0.95608  1.0000
  N   N87       1.0  0.43128  0.76713  0.80930  1.0000
  C   C1542     1.0  0.03462  0.97467  0.75077  1.0000
  C   C1543     1.0  0.09342  0.88416  0.78101  1.0000
  C   C1544     1.0  0.08435  0.89945  0.77399  1.0000
  C   C1545     1.0  0.06940  0.90026  0.76950  1.0000
  C   C1546     1.0  0.06333  0.88583  0.77249  1.0000
  C   C1547     1.0  0.07240  0.87070  0.77961  1.0000
  C   C1548     1.0  0.08751  0.86983  0.78349  1.0000
  H   H2731     1.0  0.08893  0.91056  0.77195  1.0000
  H   H2732     1.0  0.06243  0.91202  0.76403  1.0000
  H   H2733     1.0  0.06778  0.85954  0.78206  1.0000
  H   H2734     1.0  0.09447  0.85797  0.78883  1.0000
  H   H2735     1.0  0.40679  0.76689  0.82487  1.0000
  C   C1549     1.0  0.05922  0.92513  0.83127  1.0000
  S   S374      1.0  0.28801  0.81865  0.97975  1.0000
  C   C1550     1.0  0.15577  0.92680  0.87282  1.0000
  C   C1551     1.0  0.14704  0.93474  0.86019  1.0000
  C   C1552     1.0  0.14472  0.92573  0.84986  1.0000
  C   C1553     1.0  0.15101  0.90865  0.85218  1.0000
  C   C1554     1.0  0.15946  0.90066  0.86499  1.0000
  C   C1555     1.0  0.16199  0.90972  0.87514  1.0000
  H   H2736     1.0  0.14216  0.94795  0.85831  1.0000
  H   H2737     1.0  0.13810  0.93201  0.84009  1.0000
  H   H2738     1.0  0.16431  0.88745  0.86688  1.0000
  H   H2739     1.0  0.16873  0.90346  0.88475  1.0000
  C   C1556     1.0  0.16311  0.87453  0.96332  1.0000
  H   H2740     1.0  0.21555  0.88543  0.96751  1.0000
  C   C1557     1.0  0.48160  0.74152  0.88414  1.0000
  H   H2741     1.0  0.13470  0.96844  0.74989  1.0000
  H   H2742     1.0  0.15587  0.90108  0.95885  1.0000
  C   C1558     1.0  0.24740  0.88731  0.89424  1.0000
  C   C1559     1.0  0.26221  0.88149  0.88376  1.0000
  C   C1560     1.0  0.27152  0.86551  0.88838  1.0000
  C   C1561     1.0  0.26630  0.85548  0.90370  1.0000
  C   C1562     1.0  0.25153  0.86133  0.91424  1.0000
  C   C1563     1.0  0.24193  0.87714  0.90938  1.0000
  H   H2743     1.0  0.26643  0.88930  0.87203  1.0000
  H   H2744     1.0  0.28291  0.86100  0.88020  1.0000
  H   H2745     1.0  0.24725  0.85352  0.92594  1.0000
  H   H2746     1.0  0.23032  0.88140  0.91736  1.0000
  H   H2747     1.0  0.18086  0.86923  0.91308  1.0000
  C   C1564     1.0  0.20080  0.94690  0.96162  1.0000
  H   H2748     1.0  0.10874  0.88354  0.89146  1.0000
  H   H2749     1.0  0.17115  0.87315  0.89574  1.0000
  H   H2750     1.0  0.22865  0.86561  0.96504  1.0000
  H   H2751     1.0  0.16939  0.92231  0.81720  1.0000
  H   H2752     1.0  0.43197  0.75475  0.83482  1.0000
  H   H2753     1.0  0.18040  0.93079  0.79704  1.0000
  H   H2754     1.0  0.10961  0.93925  0.93252  1.0000
  C   C1565     1.0  0.35170  0.75411  0.92940  1.0000
  C   C1566     1.0  0.36229  0.76075  0.93437  1.0000
  C   C1567     1.0  0.35569  0.77337  0.94328  1.0000
  C   C1568     1.0  0.33856  0.77987  0.94668  1.0000
  C   C1569     1.0  0.32800  0.77336  0.94153  1.0000
  C   C1570     1.0  0.33453  0.76026  0.93321  1.0000
  H   H2755     1.0  0.37555  0.75605  0.93152  1.0000
  H   H2756     1.0  0.36393  0.77835  0.94726  1.0000
  H   H2757     1.0  0.31486  0.77846  0.94390  1.0000
  H   H2758     1.0  0.32632  0.75511  0.92940  1.0000
  C   C1571     1.0  0.42905  0.78755  0.86969  1.0000
  C   C1572     1.0  0.44246  0.77734  0.86137  1.0000
  C   C1573     1.0  0.45129  0.78384  0.84573  1.0000
  C   C1574     1.0  0.44597  0.80026  0.83789  1.0000
  C   C1575     1.0  0.43227  0.81035  0.84608  1.0000
  C   C1576     1.0  0.42410  0.80413  0.86213  1.0000
  H   H2759     1.0  0.44622  0.76450  0.86714  1.0000
  H   H2760     1.0  0.46186  0.77599  0.83957  1.0000
  H   H2761     1.0  0.42813  0.82307  0.84009  1.0000
  H   H2762     1.0  0.41371  0.81206  0.86855  1.0000
  C   C1577     1.0  0.41249  0.71347  0.84268  1.0000
  C   C1578     1.0  0.42285  0.70925  0.82816  1.0000
  C   C1579     1.0  0.42674  0.69293  0.82619  1.0000
  C   C1580     1.0  0.42007  0.68075  0.83858  1.0000
  C   C1581     1.0  0.40915  0.68504  0.85285  1.0000
  C   C1582     1.0  0.40550  0.70137  0.85498  1.0000
  H   H2763     1.0  0.42822  0.71841  0.81848  1.0000
  H   H2764     1.0  0.43493  0.68987  0.81502  1.0000
  H   H2765     1.0  0.40358  0.67578  0.86231  1.0000
  H   H2766     1.0  0.39702  0.70464  0.86596  1.0000
  H   H2767     1.0  0.44211  0.78859  0.80329  1.0000
  H   H2768     1.0  0.13059  0.90154  0.98119  1.0000
  C   C1583     1.0  0.47388  0.68316  0.90186  1.0000
  C   C1584     1.0  0.46034  0.69489  0.90787  1.0000
  C   C1585     1.0  0.46302  0.70731  0.91388  1.0000
  C   C1586     1.0  0.47926  0.70774  0.91411  1.0000
  H   H2769     1.0  0.18689  0.90930  0.80637  1.0000
  H   H2770     1.0  0.47182  0.67353  0.89735  1.0000
  H   H2771     1.0  0.45255  0.71624  0.91877  1.0000
  H   H2772     1.0  0.42850  0.65739  0.86922  1.0000
  C   C1587     1.0  0.45736  0.77311  0.78692  1.0000
  C   C1588     1.0  0.12579  0.87581  0.94503  1.0000
  H   H2773     1.0  0.46737  0.68665  0.74810  1.0000
  C   C1589     1.0  0.25718  0.92616  0.96324  1.0000
  C   C1590     1.0  0.15281  0.88962  0.96621  1.0000
  H   H2774     1.0  0.12807  0.86344  0.94207  1.0000
  H   H2775     1.0  0.15667  0.85882  0.93204  1.0000
  H   H2776     1.0  0.00310  0.93699  0.84136  1.0000
  H   H2777     1.0  0.07952  0.89408  0.83288  1.0000
  H   H2778     1.0  0.23187  0.87626  0.97896  1.0000
  H   H2779     1.0  0.07304  0.92200  0.82834  1.0000
  H   H2780     1.0  0.24605  0.90026  0.96670  1.0000
  C   C1591     1.0  0.41413  0.78794  0.82791  1.0000
  C   C1592     1.0  0.39643  0.79476  0.83649  1.0000
  H   H2781     1.0  0.44703  0.76698  0.82520  1.0000
  H   H2782     1.0  0.41958  0.79863  0.82031  1.0000
  H   H2783     1.0  0.42113  0.78158  0.83776  1.0000
  H   H2784     1.0  0.47112  0.74562  0.83304  1.0000
  H   H2785     1.0  0.39073  0.78451  0.84490  1.0000
  H   H2786     1.0  0.39670  0.80333  0.84398  1.0000
  H   H2787     1.0  0.38873  0.80163  0.82728  1.0000
  N   N88       1.0  0.33984  0.79244  0.88535  1.0000
  C   C1593     1.0  0.35257  0.77818  0.87924  1.0000
  C   C1594     1.0  0.34547  0.79773  0.89801  1.0000
  C   C1595     1.0  0.32403  0.78627  0.89368  1.0000
  C   C1596     1.0  0.33605  0.80693  0.87147  1.0000
  C   C1597     1.0  0.35093  0.81441  0.86050  1.0000
  C   C1598     1.0  0.34817  0.77093  0.86669  1.0000
  C   C1599     1.0  0.30976  0.79802  0.90311  1.0000
  C   C1600     1.0  0.36443  0.79614  0.89583  1.0000
  C   C1601     1.0  0.36794  0.80585  0.90651  1.0000
  C   C1602     1.0  0.34579  0.82771  0.84588  1.0000
  C   C1603     1.0  0.36233  0.75716  0.86087  1.0000
  C   C1604     1.0  0.29490  0.78983  0.91131  1.0000
  H   H2788     1.0  0.35500  0.76785  0.88997  1.0000
  H   H2789     1.0  0.36470  0.78162  0.87331  1.0000
  H   H2790     1.0  0.33899  0.81067  0.89898  1.0000
  H   H2791     1.0  0.34178  0.79012  0.91052  1.0000
  H   H2792     1.0  0.32678  0.77428  0.90254  1.0000
  H   H2793     1.0  0.31864  0.78369  0.88449  1.0000
  H   H2794     1.0  0.32980  0.80365  0.86340  1.0000
  H   H2795     1.0  0.32692  0.81730  0.87645  1.0000
  H   H2796     1.0  0.36117  0.80491  0.85541  1.0000
  H   H2797     1.0  0.35552  0.82046  0.86772  1.0000
  H   H2798     1.0  0.33712  0.76536  0.87235  1.0000
  H   H2799     1.0  0.34575  0.78061  0.85562  1.0000
  H   H2800     1.0  0.30540  0.80962  0.89454  1.0000
  H   H2801     1.0  0.31362  0.80127  0.91293  1.0000
  H   H2802     1.0  0.37041  0.78293  0.89970  1.0000
  H   H2803     1.0  0.37065  0.80057  0.88294  1.0000
  H   H2804     1.0  0.36179  0.80209  0.91964  1.0000
  H   H2805     1.0  0.38154  0.80340  0.90567  1.0000
  H   H2806     1.0  0.36341  0.81933  0.90220  1.0000
  H   H2807     1.0  0.34145  0.82231  0.83787  1.0000
  H   H2808     1.0  0.33573  0.83781  0.85026  1.0000
  H   H2809     1.0  0.35661  0.83309  0.83839  1.0000
  H   H2810     1.0  0.37378  0.76193  0.85453  1.0000
  H   H2811     1.0  0.36499  0.74688  0.87149  1.0000
  H   H2812     1.0  0.35881  0.75210  0.85203  1.0000
  H   H2813     1.0  0.29824  0.77873  0.92093  1.0000
  H   H2814     1.0  0.28447  0.79868  0.91722  1.0000
  H   H2815     1.0  0.29054  0.78624  0.90202  1.0000
  H   H2816     1.0  0.12001  0.88893  0.74841  1.0000
  H   H2817     1.0  0.99594  0.91793  0.84681  1.0000
  H   H2818     1.0  0.32589  0.70742  0.96188  1.0000
  H   H2819     1.0  0.04303  0.96917  0.75903  1.0000
  H   H2820     1.0  0.08054  0.94542  0.78030  1.0000
  C   C1605     1.0  0.48330  0.79656  0.86472  1.0000
  C   C1606     1.0  0.12781  0.98098  0.75180  1.0000
  H   H2821     1.0  0.47440  0.73788  0.86326  1.0000
  H   H2822     1.0  0.43337  0.71627  0.74247  1.0000
  C   C1607     1.0  0.08704  0.97235  0.80145  1.0000
  H   H2823     1.0  0.05188  0.89550  0.81523  1.0000
  H   H2824     1.0  0.45534  0.79025  0.76337  1.0000
  H   H2825     1.0  0.47275  0.72457  0.83197  1.0000
  H   H2826     1.0  0.11062  0.97116  0.80665  1.0000
  H   H2827     1.0  0.48572  0.78899  0.85538  1.0000
  H   H2828     1.0  0.10008  0.96851  0.76568  1.0000
  H   H2829     1.0  0.19780  0.92189  0.97269  1.0000
  N   N89       1.0  0.29732  0.74829  0.98288  1.0000
  H   H2830     1.0  0.16000  0.87953  0.74502  1.0000
  H   H2831     1.0  0.13088  0.90484  0.94401  1.0000
  H   H2832     1.0  0.12637  0.94675  0.91700  1.0000
  C   C1608     1.0  0.12864  0.89237  0.73646  1.0000
  C   C1609     1.0  0.49281  0.69618  0.90768  1.0000
  C   C1610     1.0  0.02216  0.91550  0.83545  1.0000
  C   C1611     1.0  0.47301  0.81358  0.85851  1.0000
  C   C1612     1.0  0.02415  0.92480  0.77658  1.0000
  C   C1613     1.0  0.15073  0.98565  0.77209  1.0000
  H   H2833     1.0  0.41248  0.69161  0.76550  1.0000
  H   H2834     1.0  0.01845  0.91382  0.78193  1.0000
  C   C1614     1.0  0.11190  0.98553  0.74480  1.0000
  H   H2835     1.0  0.49309  0.65557  0.94935  1.0000
  H   H2836     1.0  0.05568  0.95098  0.80308  1.0000
  H   H2837     1.0  0.45769  0.67855  0.87674  1.0000
  H   H2838     1.0  0.44043  0.68473  0.86669  1.0000
  C   C1615     1.0  0.20241  0.93208  0.97361  1.0000
  C   C1616     1.0  0.47225  0.76501  0.90559  1.0000
  H   H2839     1.0  0.10667  0.88870  0.96275  1.0000
  C   C1617     1.0  0.47413  0.78808  0.88178  1.0000
  C   C1618     1.0  0.26050  0.94199  0.96537  1.0000
  C   C1619     1.0  0.06769  0.94789  0.77848  1.0000
  C   C1620     1.0  0.45335  0.76740  0.90697  1.0000
  H   H2840     1.0  0.47707  0.75183  0.91086  1.0000
  H   H2841     1.0  0.16726  0.84801  0.97114  1.0000
  N   N90       1.0  0.05254  0.91852  0.82041  1.0000
  H   H2842     1.0  0.13274  0.91109  0.74707  1.0000
  C   C1621     1.0  0.44516  0.75725  0.92310  1.0000
  Fe  Fe188     1.0  0.03826  0.89858  0.74391  1.0000
  H   H2843     1.0  0.47367  0.77198  0.91415  1.0000
  H   H2844     1.0  0.05870  0.92098  0.87288  1.0000
  C   C1622     1.0  0.48124  0.71766  0.78984  1.0000
  H   H2845     1.0  0.45818  0.69473  0.84014  1.0000
  H   H2846     1.0  0.47251  0.79597  0.89071  1.0000
  H   H2847     1.0  0.46142  0.78877  0.88029  1.0000
  H   H2848     1.0  0.47247  0.76522  0.87001  1.0000
  S   S375      1.0  0.33077  0.79599  0.95746  1.0000
  H   H2849     1.0  0.10071  0.87857  0.74632  1.0000
  H   H2850     1.0  0.07072  0.86759  0.83940  1.0000
  H   H2851     1.0  0.44718  0.78062  0.90663  1.0000
  H   H2852     1.0  0.45089  0.76381  0.89658  1.0000
  C   C1623     1.0  0.07721  0.87244  0.82667  1.0000
  H   H2853     1.0  0.13466  0.87448  0.95288  1.0000
  H   H2854     1.0  0.04017  0.92599  0.85395  1.0000
  H   H2855     1.0  0.47825  0.70730  0.79964  1.0000
  N   N91       1.0  0.48216  0.77040  0.88846  1.0000
  H   H2856     1.0  0.33113  0.73001  0.98144  1.0000
  C   C1624     1.0  0.41843  0.74784  0.77945  1.0000
  H   H2857     1.0  0.48131  0.71709  0.91913  1.0000
  H   H2858     1.0  0.20651  0.95943  0.86894  1.0000
  H   H2859     1.0  0.43163  0.75951  0.92367  1.0000
  H   H2860     1.0  0.45044  0.74383  0.92379  1.0000
  H   H2861     1.0  0.44691  0.76086  0.93385  1.0000
  H   H2862     1.0  0.25493  0.77823  0.96567  1.0000
  H   H2863     1.0  0.06365  0.97729  0.79431  1.0000
  C   C1625     1.0  0.41404  0.70401  0.75787  1.0000
  C   C1626     1.0  0.44006  0.77985  0.79697  1.0000
  H   H2864     1.0  0.24594  0.91647  0.80019  1.0000
  N   N92       1.0  0.25050  0.91432  0.94150  1.0000
  C   C1627     1.0  0.24145  0.92032  0.92751  1.0000
  C   C1628     1.0  0.24089  0.90338  0.95551  1.0000
  C   C1629     1.0  0.25017  0.92940  0.94754  1.0000
  C   C1630     1.0  0.26829  0.90548  0.93641  1.0000
  C   C1631     1.0  0.27205  0.89539  0.92279  1.0000
  C   C1632     1.0  0.24881  0.93293  0.91240  1.0000
  C   C1633     1.0  0.05633  0.89984  0.82404  1.0000
  C   C1634     1.0  0.24059  0.88638  0.95283  1.0000
  H   H2865     1.0  0.22784  0.91015  0.95897  1.0000
  C   C1635     1.0  0.28951  0.88452  0.92114  1.0000
  C   C1636     1.0  0.23806  0.95047  0.91123  1.0000
  H   H2866     1.0  0.06743  0.94099  0.76938  1.0000
  H   H2867     1.0  0.22822  0.92597  0.93218  1.0000
  H   H2868     1.0  0.24080  0.90985  0.92267  1.0000
  C   C1637     1.0  0.43226  0.70365  0.74946  1.0000
  H   H2869     1.0  0.05598  0.93886  0.82859  1.0000
  H   H2870     1.0  0.23720  0.93672  0.95026  1.0000
  H   H2871     1.0  0.25726  0.93782  0.93774  1.0000
  H   H2872     1.0  0.27670  0.91438  0.93177  1.0000
  H   H2873     1.0  0.27266  0.89703  0.94738  1.0000
  H   H2874     1.0  0.27122  0.90382  0.91062  1.0000
  H   H2875     1.0  0.26329  0.88722  0.92528  1.0000
  H   H2876     1.0  0.26171  0.93324  0.91224  1.0000
  H   H2877     1.0  0.24945  0.92901  0.90091  1.0000
  H   H2878     1.0  0.10612  0.89639  0.92068  1.0000
  H   H2879     1.0  0.48343  0.71913  0.87614  1.0000
  H   H2880     1.0  0.23684  0.88744  0.94124  1.0000
  H   H2881     1.0  0.25307  0.87813  0.95254  1.0000
  H   H2882     1.0  0.03052  0.92574  0.81021  1.0000
  S   S376      1.0  0.26053  0.83884  0.95679  1.0000
  H   H2883     1.0  0.26892  0.91667  0.96279  1.0000
  H   H2884     1.0  0.29081  0.87540  0.93287  1.0000
  H   H2885     1.0  0.29180  0.87758  0.91129  1.0000
  H   H2886     1.0  0.29896  0.89218  0.91790  1.0000
  H   H2887     1.0  0.23678  0.95525  0.92235  1.0000
  H   H2888     1.0  0.24379  0.95890  0.90024  1.0000
  H   H2889     1.0  0.22547  0.95058  0.90991  1.0000
  C   C1638     1.0  0.07484  0.89123  0.82337  1.0000
  H   H2890     1.0  0.24926  0.95210  0.96503  1.0000
  H   H2891     1.0  0.08613  0.89643  0.73817  1.0000
  C   C1639     1.0  0.03408  0.92531  0.82185  1.0000
  H   H2892     1.0  0.99756  0.97589  0.76540  1.0000
  H   H2893     1.0  0.46921  0.74054  0.89211  1.0000
  H   H2894     1.0  0.04323  0.94581  0.79238  1.0000
  S   S377      1.0  0.49311  0.76891  0.81825  1.0000
  H   H2895     1.0  0.07240  0.86883  0.81770  1.0000
  H   H2896     1.0  0.06284  0.93804  0.85589  1.0000
  H   H2897     1.0  0.47976  0.81942  0.84631  1.0000
  H   H2898     1.0  0.14087  0.91885  0.91398  1.0000
  H   H2899     1.0  0.48947  0.71340  0.73642  1.0000
  H   H2900     1.0  0.27093  0.94593  0.95549  1.0000
  H   H2901     1.0  0.11470  0.82115  0.97678  1.0000
  C   C1640     1.0  0.15158  0.88929  0.75141  1.0000
  Fe  Fe189     1.0  0.44593  0.65939  0.81337  1.0000
  H   H2902     1.0  0.40976  0.71298  0.76611  1.0000
  C   C1641     1.0  0.06119  0.92433  0.80274  1.0000
  C   C1642     1.0  0.46249  0.69236  0.85181  1.0000
  H   H2903     1.0  0.47076  0.82178  0.86724  1.0000
  H   H2904     1.0  0.02247  0.90382  0.83200  1.0000
  C   C1643     1.0  0.10193  0.97190  0.75202  1.0000
  H   H2905     1.0  0.27823  0.77086  0.97992  1.0000
  S   S378      1.0  0.47916  0.66008  0.77319  1.0000
  H   H2906     1.0  0.05915  0.91735  0.79459  1.0000
  H   H2907     1.0  0.13397  0.94218  0.74340  1.0000
  H   H2908     1.0  0.06403  0.96136  0.77344  1.0000
  H   H2909     1.0  0.30065  0.72951  0.96899  1.0000
  H   H2910     1.0  0.09846  0.88250  0.94864  1.0000
  C   C1644     1.0  0.05326  0.91962  0.85012  1.0000
  H   H2911     1.0  0.47230  0.65997  0.85507  1.0000
  C   C1645     1.0  0.47561  0.72098  0.77520  1.0000
  C   C1646     1.0  0.12312  0.93623  0.92715  1.0000
  C   C1647     1.0  0.10087  0.97862  0.80036  1.0000
  H   H2912     1.0  0.11979  0.92279  0.91127  1.0000
  H   H2913     1.0  0.08264  0.89518  0.81113  1.0000
  C   C1648     1.0  0.45402  0.67967  0.86507  1.0000
  H   H2914     1.0  0.07675  0.91797  0.85648  1.0000
  H   H2915     1.0  0.22722  0.82138  0.97584  1.0000
  C   C1649     1.0  0.10504  0.86326  0.96917  1.0000
  H   H2916     1.0  0.15928  0.89619  0.75438  1.0000
  C   C1650     1.0  0.48416  0.73225  0.87057  1.0000
  H   H2917     1.0  0.11873  0.89837  0.87552  1.0000
  C   C1651     1.0  0.22841  0.87794  0.96699  1.0000
  H   H2918     1.0  0.47618  0.68798  0.84946  1.0000
  S   S379      1.0  0.42603  0.66013  0.83636  1.0000
  C   C1652     1.0  0.11303  0.89526  0.88890  1.0000
  Fe  Fe190     1.0  0.28224  0.84357  0.96342  1.0000
  H   H2919     1.0  0.03455  0.92333  0.78255  1.0000
  N   N93       1.0  0.20752  0.91746  0.84195  1.0000
  C   C1653     1.0  0.19599  0.91433  0.83314  1.0000
  C   C1654     1.0  0.20869  0.90451  0.85776  1.0000
  C   C1655     1.0  0.19999  0.93411  0.84655  1.0000
  C   C1656     1.0  0.22452  0.91822  0.83112  1.0000
  C   C1657     1.0  0.23395  0.90291  0.82372  1.0000
  C   C1658     1.0  0.19346  0.92671  0.81670  1.0000
  C   C1659     1.0  0.20851  0.93888  0.85787  1.0000
  C   C1660     1.0  0.20831  0.88656  0.85762  1.0000
  C   C1661     1.0  0.21349  0.87424  0.87279  1.0000
  C   C1662     1.0  0.24943  0.90650  0.81072  1.0000
  C   C1663     1.0  0.18186  0.92193  0.80889  1.0000
  C   C1664     1.0  0.20011  0.95620  0.86100  1.0000
  H   H2920     1.0  0.18354  0.91440  0.84145  1.0000
  H   H2921     1.0  0.20007  0.90185  0.83027  1.0000
  H   H2922     1.0  0.22002  0.90412  0.86200  1.0000
  H   H2923     1.0  0.19808  0.90798  0.86788  1.0000
  H   H2924     1.0  0.18669  0.93478  0.85290  1.0000
  H   H2925     1.0  0.20009  0.94422  0.83533  1.0000
  H   H2926     1.0  0.22381  0.92935  0.82088  1.0000
  H   H2927     1.0  0.23286  0.91986  0.83818  1.0000
  H   H2928     1.0  0.22621  0.89895  0.81770  1.0000
  H   H2929     1.0  0.23826  0.89255  0.83356  1.0000
  H   H2930     1.0  0.18771  0.93940  0.81873  1.0000
  H   H2931     1.0  0.20545  0.92688  0.80765  1.0000
  H   H2932     1.0  0.22176  0.93897  0.85224  1.0000
  H   H2933     1.0  0.20778  0.93012  0.87002  1.0000
  H   H2934     1.0  0.19550  0.88590  0.85774  1.0000
  H   H2935     1.0  0.21652  0.88231  0.84659  1.0000
  H   H2936     1.0  0.21349  0.86152  0.87211  1.0000
  H   H2937     1.0  0.22618  0.87459  0.87346  1.0000
  H   H2938     1.0  0.20466  0.87706  0.88423  1.0000
  H   H2939     1.0  0.25785  0.91026  0.81617  1.0000
  H   H2940     1.0  0.25625  0.89518  0.80596  1.0000
  C   C1665     1.0  0.44067  0.75839  0.82292  1.0000
  S   S380      1.0  0.46814  0.67011  0.80984  1.0000
  H   H2941     1.0  0.40736  0.78365  0.80742  1.0000
  C   C1666     1.0  0.01128  0.94057  0.77927  1.0000
  H   H2942     1.0  0.45735  0.76274  0.78161  1.0000
  H   H2943     1.0  0.44050  0.74668  0.79646  1.0000
  H   H2944     1.0  0.14416  0.88340  0.76314  1.0000
  H   H2945     1.0  0.11643  0.87576  0.91987  1.0000
  C   C1667     1.0  0.46394  0.73636  0.83381  1.0000
  H   H2946     1.0  0.47627  0.78187  0.76639  1.0000
  H   H2947     1.0  0.46648  0.66463  0.73685  1.0000
  H   H2948     1.0  0.40685  0.76870  0.79066  1.0000
  H   H2949     1.0  0.14677  0.86242  0.91508  1.0000
  S   S381      1.0  0.28093  0.86744  0.97027  1.0000
  H   H2950     1.0  0.43210  0.78776  0.78829  1.0000
  C   C1668     1.0  0.99755  0.94364  0.76948  1.0000
  H   H2951     1.0  0.04956  0.89463  0.83646  1.0000
  C   C1669     1.0  0.45368  0.74225  0.82057  1.0000
  H   H2952     1.0  0.46656  0.76893  0.79494  1.0000
  H   H2953     1.0  0.15951  0.97317  0.75192  1.0000
  C   C1670     1.0  0.48365  0.86824  0.80158  1.0000
  H   H2954     1.0  0.42132  0.74623  0.81066  1.0000
  H   H2955     1.0  0.46228  0.74392  0.80844  1.0000
  C   C1671     1.0  0.46330  0.78660  0.77257  1.0000
  H   H2956     1.0  0.44736  0.73221  0.82156  1.0000
  C   C1672     1.0  0.42863  0.75473  0.80125  1.0000
  N   N94       1.0  0.12907  0.88880  0.92940  1.0000
  C   C1673     1.0  0.03162  0.96491  0.74154  1.0000
  C   C1674     1.0  0.00425  0.92540  0.83734  1.0000
  H   H2957     1.0  0.33891  0.72251  0.95408  1.0000
  C   C1675     1.0  0.11870  0.88840  0.91784  1.0000
  H   H2958     1.0  0.10223  0.90541  0.89176  1.0000
  H   H2959     1.0  0.45293  0.66461  0.84930  1.0000
  H   H2960     1.0  0.30024  0.78304  0.98017  1.0000
  C   C1676     1.0  0.41967  0.76182  0.78664  1.0000
  C   C1677     1.0  0.17204  0.86545  0.90820  1.0000
  C   C1678     1.0  0.14748  0.88511  0.92215  1.0000
  H   H2961     1.0  0.15437  0.88766  0.93010  1.0000
  H   H2962     1.0  0.11083  0.90839  0.93979  1.0000
  Fe  Fe191     1.0  0.30471  0.81078  0.95701  1.0000
  C   C1679     1.0  0.21393  0.95858  0.97625  1.0000
  S   S382      1.0  0.30076  0.83632  0.94130  1.0000
  H   H2963     1.0  0.43890  0.67849  0.74758  1.0000
  C   C1680     1.0  0.12432  0.90536  0.93426  1.0000
  H   H2964     1.0  0.24797  0.92191  0.97439  1.0000
  C   C1681     1.0  0.16053  0.93693  0.74005  1.0000
  H   H2965     1.0  0.42659  0.77013  0.77656  1.0000
  H   H2966     1.0  0.03803  0.95210  0.74249  1.0000
  C   C1682     1.0  0.14566  0.94033  0.73469  1.0000
  H   H2967     1.0  0.13668  0.88373  0.89499  1.0000
  H   H2968     1.0  0.17702  0.85235  0.90712  1.0000
  H   H2969     1.0  0.45922  0.70412  0.85612  1.0000
  C   C1683     1.0  0.12586  0.89338  0.89899  1.0000
  H   H2970     1.0  0.15071  0.89360  0.91016  1.0000
  H   H2971     1.0  0.02936  0.92531  0.76321  1.0000
  H   H2972     1.0  0.41184  0.75307  0.76911  1.0000
  H   H2973     1.0  0.13622  0.88047  0.73317  1.0000
  H   H2974     1.0  0.26483  0.74871  0.97857  1.0000
  H   H2975     1.0  0.02551  0.91219  0.84762  1.0000
  H   H2976     1.0  0.46227  0.70754  0.73828  1.0000
  H   H2977     1.0  0.29304  0.76782  0.96179  1.0000
  H   H2978     1.0  0.43101  0.74082  0.77467  1.0000
  H   H2979     1.0  0.41143  0.73917  0.78903  1.0000
  H   H2980     1.0  0.09269  0.86604  0.97748  1.0000
  H   H2981     1.0  0.20518  0.97162  0.95412  1.0000
  C   C1684     1.0  0.48273  0.75986  0.87671  1.0000
  S   S383      1.0  0.01234  0.91127  0.74038  1.0000
  C   C1685     1.0  0.20649  0.96009  0.96317  1.0000
  H   H2982     1.0  0.13010  0.93473  0.93679  1.0000
  H   H2983     1.0  0.00631  0.93944  0.79267  1.0000
  C   C1686     1.0  0.30811  0.73680  0.97174  1.0000
  H   H2984     1.0  0.31347  0.74414  0.95962  1.0000
  H   H2985     1.0  0.26966  0.77533  0.94662  1.0000
  H   H2986     1.0  0.00421  0.94596  0.75633  1.0000
  H   H2987     1.0  0.49492  0.69253  0.74809  1.0000
  C   C1687     1.0  0.15402  0.98613  0.75333  1.0000
  H   H2988     1.0  0.11459  0.85903  0.97680  1.0000
  C   C1688     1.0  0.26207  0.76905  0.95800  1.0000
  H   H2989     1.0  0.18412  0.77390  0.96334  1.0000
  H   H2990     1.0  0.07581  0.93640  0.73704  1.0000
  H   H2991     1.0  0.47486  0.73746  0.75150  1.0000
  C   C1689     1.0  0.48936  0.74433  0.76446  1.0000
  C   C1690     1.0  0.43907  0.69053  0.73854  1.0000
  H   H2992     1.0  0.46750  0.93528  0.76739  1.0000
  C   C1691     1.0  0.47927  0.73468  0.76279  1.0000
  H   H2993     1.0  0.49513  0.87840  0.77681  1.0000
  H   H2994     1.0  0.12337  0.97944  0.76536  1.0000
  H   H2995     1.0  0.21836  0.96893  0.97708  1.0000
  C   C1692     1.0  0.49009  0.68390  0.90154  1.0000
  H   H2996     1.0  0.17016  0.96385  0.77743  1.0000
  H   H2997     1.0  0.27951  0.74592  0.95953  1.0000
  H   H2998     1.0  0.26374  0.93978  0.97752  1.0000
  C   C1693     1.0  0.09579  0.88551  0.73520  1.0000
  H   H2999     1.0  0.10025  0.91363  0.74138  1.0000
  C   C1694     1.0  0.27311  0.75478  0.96768  1.0000
  C   C1695     1.0  0.16633  0.97691  0.77890  1.0000
  H   H3000     1.0  0.48053  0.90566  0.77506  1.0000
  H   H3001     1.0  0.43929  0.70048  0.75937  1.0000
  H   H3002     1.0  0.48526  0.86554  0.81447  1.0000
  H   H3003     1.0  0.40620  0.70785  0.74854  1.0000
  H   H3004     1.0  0.14089  0.97881  0.77927  1.0000
  C   C1696     1.0  0.14026  0.90124  0.74037  1.0000
  C   C1697     1.0  0.49094  0.72775  0.79171  1.0000
  H   H3005     1.0  0.10528  0.85315  0.96330  1.0000
  C   C1698     1.0  0.46725  0.69496  0.73572  1.0000
  H   H3006     1.0  0.07709  0.87079  0.74155  1.0000
  H   H3007     1.0  0.49480  0.70421  0.85183  1.0000
  H   H3008     1.0  0.16372  0.97687  0.79226  1.0000
  H   H3009     1.0  0.34374  0.70496  0.97030  1.0000
  C   C1699     1.0  0.33341  0.71414  0.96533  1.0000
  Fe  Fe192     1.0  0.26765  0.81309  0.97168  1.0000
  H   H3010     1.0  0.48915  0.90501  0.83847  1.0000
  H   H3011     1.0  0.25308  0.76423  0.95438  1.0000
  H   H3012     1.0  0.17667  0.98336  0.77240  1.0000
  H   H3013     1.0  0.15651  0.76903  0.97880  1.0000
  C   C1700     1.0  0.49507  0.70034  0.73547  1.0000
  H   H3014     1.0  0.99747  0.77530  0.75451  1.0000
  C   C1701     1.0  0.28570  0.76116  0.97309  1.0000
  C   C1702     1.0  0.15930  0.85972  0.97327  1.0000
  H   H3015     1.0  0.49097  0.73497  0.89163  1.0000
  H   H3016     1.0  0.49415  0.76005  0.86679  1.0000
  H   H3017     1.0  0.10837  0.96076  0.74688  1.0000
  H   H3018     1.0  0.49296  0.75418  0.75431  1.0000
  C   C1703     1.0  0.13847  0.88988  0.97886  1.0000
  C   C1704     1.0  0.18160  0.77030  0.97703  1.0000
  H   H3019     1.0  0.47033  0.90206  0.79602  1.0000
  H   H3020     1.0  0.47667  0.92540  0.80135  1.0000
  C   C1705     1.0  0.32279  0.72398  0.97832  1.0000
  H   H3021     1.0  0.31951  0.75819  0.97733  1.0000
  H   H3022     1.0  0.15943  0.78891  0.97968  1.0000
  H   H3023     1.0  0.08947  0.97626  0.74899  1.0000
  C   C1706     1.0  0.48480  0.85167  0.79744  1.0000
  H   H3024     1.0  0.47095  0.87565  0.80106  1.0000
  C   C1707     1.0  0.48157  0.90600  0.78756  1.0000
  C   C1708     1.0  0.47956  0.92427  0.78829  1.0000
  H   H3025     1.0  0.48453  0.89271  0.81762  1.0000
  H   H3026     1.0  0.47513  0.84539  0.80626  1.0000
  H   H3027     1.0  0.49078  0.92921  0.78153  1.0000
  H   H3028     1.0  0.18606  0.75672  0.98070  1.0000
  H   H3029     1.0  0.13252  0.79375  0.98161  1.0000
  H   H3030     1.0  0.18865  0.77673  0.98151  1.0000
  Fe  Fe193     1.0  0.53863  0.22452  0.09246  1.0000
  S   S384      1.0  0.55195  0.23921  0.06951  1.0000
  S   S385      1.0  0.53428  0.22807  0.11820  1.0000
  Fe  Fe194     1.0  0.53179  0.20238  0.07407  1.0000
  S   S386      1.0  0.54449  0.21516  0.04947  1.0000
  S   S387      1.0  0.51985  0.18134  0.07628  1.0000
  Fe  Fe195     1.0  0.56398  0.21458  0.06270  1.0000
  S   S388      1.0  0.59160  0.20477  0.05590  1.0000
  Fe  Fe196     1.0  0.53110  0.23850  0.05862  1.0000
  S   S389      1.0  0.51850  0.26097  0.04237  1.0000
  S   S390      1.0  0.55217  0.19993  0.08668  1.0000
  S   S391      1.0  0.51686  0.22569  0.08216  1.0000
  C   C1709     1.0  0.68781  0.16961  0.99924  1.0000
  H   H3031     1.0  0.50192  0.26394  0.10656  1.0000
  S   S392      1.0  0.51907  0.30293  0.12259  1.0000
  S   S393      1.0  0.89597  0.08274  0.23044  1.0000
  C   C1710     1.0  0.82307  0.08470  0.06878  1.0000
  C   C1711     1.0  0.51115  0.22771  0.02210  1.0000
  H   H3032     1.0  0.51576  0.09432  0.12648  1.0000
  S   S394      1.0  0.63607  0.11176  0.03641  1.0000
  C   C1712     1.0  0.91372  0.99413  0.21305  1.0000
  Fe  Fe197     1.0  0.74597  0.03780  0.02068  1.0000
  S   S395      1.0  0.72626  0.06102  0.01927  1.0000
  H   H3033     1.0  0.82706  0.08412  0.04328  1.0000
  Fe  Fe198     1.0  0.75434  0.04195  0.05185  1.0000
  S   S396      1.0  0.73515  0.06540  0.05290  1.0000
  S   S397      1.0  0.77173  0.03052  0.06966  1.0000
  Fe  Fe199     1.0  0.71871  0.05259  0.04677  1.0000
  S   S398      1.0  0.69268  0.05385  0.06215  1.0000
  Fe  Fe200     1.0  0.74444  0.07171  0.02554  1.0000
  S   S399      1.0  0.74765  0.09775  0.01477  1.0000
  S   S400      1.0  0.73716  0.02835  0.04792  1.0000
  S   S401      1.0  0.76489  0.04920  0.02473  1.0000
  Fe  Fe201     1.0  0.90003  0.07030  0.20932  1.0000
  S   S402      1.0  0.92688  0.05894  0.21006  1.0000
  S   S403      1.0  0.89252  0.08418  0.18529  1.0000
  C   C1713     1.0  0.77134  0.02847  0.23037  1.0000
  C   C1714     1.0  0.57952  0.16322  0.06402  1.0000
  H   H3034     1.0  0.60831  0.16649  0.07141  1.0000
  Fe  Fe202     1.0  0.80426  0.05884  0.13062  1.0000
  S   S404      1.0  0.83000  0.06180  0.12902  1.0000
  S   S405      1.0  0.78830  0.07198  0.11175  1.0000
  Fe  Fe203     1.0  0.80289  0.03556  0.16450  1.0000
  S   S406      1.0  0.82851  0.03603  0.16597  1.0000
  S   S407      1.0  0.78497  0.02157  0.18358  1.0000
  Fe  Fe204     1.0  0.82153  0.06323  0.15578  1.0000
  S   S408      1.0  0.82673  0.08251  0.16591  1.0000
  Fe  Fe205     1.0  0.83512  0.03446  0.13928  1.0000
  S   S409      1.0  0.85860  0.01767  0.12965  1.0000
  S   S410      1.0  0.79513  0.06304  0.15649  1.0000
  S   S411      1.0  0.81022  0.03129  0.13871  1.0000
  C   C1715     1.0  0.77122  0.02850  0.21412  1.0000
  C   C1716     1.0  0.78546  0.02109  0.20400  1.0000
  C   C1717     1.0  0.79965  0.01303  0.21045  1.0000
  H   H3035     1.0  0.78387  0.00447  0.11283  1.0000
  H   H3036     1.0  0.76023  0.03468  0.20923  1.0000
  H   H3037     1.0  0.56927  0.19504  0.00838  1.0000
  H   H3038     1.0  0.80690  0.04021  0.05137  1.0000
  C   C1718     1.0  0.59114  0.12011  0.03106  1.0000
  C   C1719     1.0  0.84884  0.03084  0.22431  1.0000
  S   S412      1.0  0.62344  0.18634  0.98626  1.0000
  H   H3039     1.0  0.93930  0.99792  0.15075  1.0000
  H   H3040     1.0  0.83263  0.00415  0.15424  1.0000
  C   C1720     1.0  0.87469  0.08244  0.17983  1.0000
  C   C1721     1.0  0.86760  0.06845  0.18618  1.0000
  C   C1722     1.0  0.85357  0.06766  0.18097  1.0000
  C   C1723     1.0  0.84618  0.08120  0.17005  1.0000
  C   C1724     1.0  0.85331  0.09509  0.16385  1.0000
  C   C1725     1.0  0.86765  0.09555  0.16841  1.0000
  H   H3041     1.0  0.87298  0.05826  0.19498  1.0000
  H   H3042     1.0  0.84810  0.05692  0.18585  1.0000
  H   H3043     1.0  0.84758  0.10567  0.15559  1.0000
  H   H3044     1.0  0.87304  0.10637  0.16341  1.0000
  H   H3045     1.0  0.79375  0.07229  0.22116  1.0000
  C   C1726     1.0  0.85114  0.08323  0.22912  1.0000
  H   H3046     1.0  0.99202  0.14451  0.20143  1.0000
  C   C1727     1.0  0.77649  0.04249  0.08079  1.0000
  C   C1728     1.0  0.76652  0.05792  0.08290  1.0000
  C   C1729     1.0  0.77028  0.06683  0.09244  1.0000
  C   C1730     1.0  0.78408  0.06046  0.09981  1.0000
  C   C1731     1.0  0.79420  0.04516  0.09747  1.0000
  C   C1732     1.0  0.79034  0.03616  0.08810  1.0000
  H   H3047     1.0  0.75572  0.06281  0.07749  1.0000
  H   H3048     1.0  0.76232  0.07858  0.09436  1.0000
  H   H3049     1.0  0.80502  0.04027  0.10288  1.0000
  H   H3050     1.0  0.79816  0.02426  0.08644  1.0000
  H   H3051     1.0  0.54178  0.28953  0.15946  1.0000
  C   C1733     1.0  0.65162  0.09497  0.04292  1.0000
  C   C1734     1.0  0.66626  0.08968  0.03189  1.0000
  C   C1735     1.0  0.67878  0.07674  0.03762  1.0000
  C   C1736     1.0  0.67680  0.06923  0.05438  1.0000
  C   C1737     1.0  0.66201  0.07426  0.06532  1.0000
  C   C1738     1.0  0.64947  0.08711  0.05961  1.0000
  H   H3052     1.0  0.66802  0.09558  0.01900  1.0000
  H   H3053     1.0  0.68990  0.07247  0.02907  1.0000
  H   H3054     1.0  0.66036  0.06838  0.07828  1.0000
  H   H3055     1.0  0.63817  0.09109  0.06819  1.0000
  C   C1739     1.0  0.69674  0.03058  0.02709  1.0000
  H   H3056     1.0  0.49587  0.19253  0.03424  1.0000
  C   C1740     1.0  0.59367  0.20909  0.02256  1.0000
  C   C1741     1.0  0.60041  0.20027  0.03630  1.0000
  C   C1742     1.0  0.61447  0.18745  0.03451  1.0000
  C   C1743     1.0  0.62137  0.18294  0.01924  1.0000
  H   H3057     1.0  0.74107  0.03401  0.15495  1.0000
  H   H3058     1.0  0.58291  0.21911  0.02385  1.0000
  H   H3059     1.0  0.61991  0.18083  0.04502  1.0000
  H   H3060     1.0  0.63202  0.17286  0.01807  1.0000
  C   C1744     1.0  0.53130  0.24869  0.11949  1.0000
  C   C1745     1.0  0.53895  0.26005  0.10677  1.0000
  C   C1746     1.0  0.53584  0.27663  0.10803  1.0000
  C   C1747     1.0  0.52467  0.28192  0.12174  1.0000
  C   C1748     1.0  0.51729  0.27047  0.13451  1.0000
  C   C1749     1.0  0.52072  0.25389  0.13345  1.0000
  H   H3061     1.0  0.54739  0.25603  0.09609  1.0000
  H   H3062     1.0  0.54176  0.28541  0.09826  1.0000
  H   H3063     1.0  0.50870  0.27432  0.14516  1.0000
  H   H3064     1.0  0.51467  0.24523  0.14320  1.0000
  C   C1750     1.0  0.51256  0.17313  0.09721  1.0000
  S   S413      1.0  0.89030  0.04800  0.22469  1.0000
  H   H3065     1.0  0.93944  0.14251  0.19923  1.0000
  C   C1751     1.0  0.52212  0.17089  0.10880  1.0000
  C   C1752     1.0  0.54293  0.30000  0.16404  1.0000
  H   H3066     1.0  0.50865  0.14131  0.19520  1.0000
  H   H3067     1.0  0.53439  0.17354  0.10483  1.0000
  H   H3068     1.0  0.84003  0.06623  0.21395  1.0000
  H   H3069     1.0  0.51975  0.24126  0.17383  1.0000
  C   C1753     1.0  0.75473  0.03093  0.15069  1.0000
  Fe  Fe206     1.0  0.49856  0.30510  0.14499  1.0000
  H   H3070     1.0  0.52486  0.19777  0.17060  1.0000
  H   H3071     1.0  0.50982  0.08211  0.14683  1.0000
  C   C1754     1.0  0.65069  0.05249  0.99938  1.0000
  C   C1755     1.0  0.76019  0.04773  0.14366  1.0000
  H   H3072     1.0  0.78359  0.01115  0.14659  1.0000
  C   C1756     1.0  0.86129  0.01642  0.23198  1.0000
  C   C1757     1.0  0.51751  0.14683  0.19822  1.0000
  C   C1758     1.0  0.66579  0.06074  0.99054  1.0000
  N   N95       1.0  0.98049  0.14150  0.22738  1.0000
  H   H3073     1.0  0.67669  0.16654  0.00860  1.0000
  C   C1759     1.0  0.50692  0.17479  0.18099  1.0000
  H   H3074     1.0  0.95245  0.00178  0.19716  1.0000
  H   H3075     1.0  0.54956  0.19370  0.02244  1.0000
  H   H3076     1.0  0.72935  0.04047  0.13380  1.0000
  H   H3077     1.0  0.94598  0.00364  0.12864  1.0000
  H   H3078     1.0  0.77388  0.04596  0.14052  1.0000
  H   H3079     1.0  0.75528  0.05460  0.13248  1.0000
  H   H3080     1.0  0.69749  0.15807  0.99852  1.0000
  H   H3081     1.0  0.49918  0.22427  0.18786  1.0000
  H   H3082     1.0  0.81810  0.13320  0.99859  1.0000
  C   C1760     1.0  0.50113  0.20530  0.13182  1.0000
  H   H3083     1.0  0.86078  0.99462  0.18306  1.0000
  C   C1761     1.0  0.75403  0.02658  0.12329  1.0000
  H   H3084     1.0  0.56661  0.13411  0.03807  1.0000
  C   C1762     1.0  0.49684  0.16930  0.10243  1.0000
  H   H3085     1.0  0.59686  0.14155  0.07492  1.0000
  H   H3086     1.0  0.58358  0.17100  0.02663  1.0000
  C   C1763     1.0  0.80658  0.04394  0.03805  1.0000
  H   H3087     1.0  0.68801  0.02211  0.03290  1.0000
  C   C1764     1.0  0.77667  0.10248  0.03934  1.0000
  C   C1765     1.0  0.77869  0.01479  0.13505  1.0000
  H   H3088     1.0  0.52612  0.31746  0.15004  1.0000
  S   S414      1.0  0.65857  0.11365  0.98929  1.0000
  C   C1766     1.0  0.76250  0.09651  0.05344  1.0000
  H   H3089     1.0  0.57917  0.14965  0.08974  1.0000
  H   H3090     1.0  0.90292  0.99704  0.22256  1.0000
  H   H3091     1.0  0.81414  0.08180  0.08067  1.0000
  H   H3092     1.0  0.53858  0.29744  0.04806  1.0000
  C   C1767     1.0  0.74645  0.10975  0.05415  1.0000
  H   H3093     1.0  0.65738  0.18721  0.98946  1.0000
  C   C1768     1.0  0.73095  0.04235  0.10818  1.0000
  C   C1769     1.0  0.58838  0.15301  0.07824  1.0000
  C   C1770     1.0  0.51403  0.29746  0.06375  1.0000
  H   H3094     1.0  0.81938  0.06339  0.03328  1.0000
  H   H3095     1.0  0.77698  0.11489  0.04074  1.0000
  H   H3096     1.0  0.80010  0.10514  0.05270  1.0000
  C   C1771     1.0  0.63845  0.05547  0.98825  1.0000
  H   H3097     1.0  0.52946  0.14516  0.18906  1.0000
  Fe  Fe207     1.0  0.91677  0.03722  0.22671  1.0000
  H   H3098     1.0  0.83008  0.11227  0.00115  1.0000
  H   H3099     1.0  0.76302  0.99452  0.15513  1.0000
  H   H3100     1.0  0.76573  0.09364  0.06561  1.0000
  H   H3101     1.0  0.75981  0.08530  0.05159  1.0000
  H   H3102     1.0  0.60417  0.12162  0.02746  1.0000
  H   H3103     1.0  0.86358  0.99402  0.20319  1.0000
  H   H3104     1.0  0.50963  0.22092  0.01351  1.0000
  H   H3105     1.0  0.52716  0.12452  0.08117  1.0000
  C   C1772     1.0  0.53886  0.31617  0.15160  1.0000
  H   H3106     1.0  0.81048  0.00612  0.23194  1.0000
  H   H3107     1.0  0.78202  0.07399  0.03380  1.0000
  C   C1773     1.0  0.53512  0.13116  0.08409  1.0000
  C   C1774     1.0  0.94155  0.99701  0.19861  1.0000
  H   H3108     1.0  0.72715  0.01414  0.15540  1.0000
  H   H3109     1.0  0.75965  0.02495  0.16213  1.0000
  H   H3110     1.0  0.73656  0.10484  0.06407  1.0000
  H   H3111     1.0  0.74821  0.12098  0.05693  1.0000
  H   H3112     1.0  0.74236  0.11318  0.04227  1.0000
  H   H3113     1.0  0.55082  0.15583  0.07903  1.0000
  H   H3114     1.0  0.81248  0.11807  0.99139  1.0000
  C   C1775     1.0  0.54730  0.13721  0.06837  1.0000
  H   H3115     1.0  0.64381  0.05807  0.01021  1.0000
  C   C1776     1.0  0.51328  0.20131  0.17974  1.0000
  H   H3116     1.0  0.62782  0.04958  0.99518  1.0000
  H   H3117     1.0  0.88868  0.99814  0.18174  1.0000
  N   N96       1.0  0.57077  0.15399  0.05754  1.0000
  H   H3118     1.0  0.58992  0.10957  0.04181  1.0000
  H   H3119     1.0  0.96929  0.12182  0.22704  1.0000
  C   C1777     1.0  0.49955  0.16261  0.13097  1.0000
  C   C1778     1.0  0.80017  0.09212  0.05293  1.0000
  H   H3120     1.0  0.72927  0.02154  0.12838  1.0000
  C   C1779     1.0  0.57111  0.17791  0.03178  1.0000
  H   H3121     1.0  0.84217  0.09502  0.22598  1.0000
  C   C1780     1.0  0.77873  0.08768  0.99639  1.0000
  H   H3122     1.0  0.69921  0.05245  0.00860  1.0000
  C   C1781     1.0  0.58361  0.14092  0.04948  1.0000
  H   H3123     1.0  0.82403  0.09782  0.06634  1.0000
  N   N97       1.0  0.89221  0.02675  0.15577  1.0000
  C   C1782     1.0  0.90518  0.01180  0.15160  1.0000
  C   C1783     1.0  0.87669  0.02116  0.16640  1.0000
  C   C1784     1.0  0.88780  0.03753  0.13984  1.0000
  C   C1785     1.0  0.89816  0.03692  0.16395  1.0000
  C   C1786     1.0  0.91084  0.02765  0.17501  1.0000
  C   C1787     1.0  0.92071  0.01563  0.13821  1.0000
  C   C1788     1.0  0.87329  0.05280  0.14163  1.0000
  C   C1789     1.0  0.87829  0.00895  0.18308  1.0000
  H   H3124     1.0  0.54785  0.31483  0.13981  1.0000
  C   C1790     1.0  0.91496  0.03967  0.18276  1.0000
  N   N98       1.0  0.49994  0.19315  0.17922  1.0000
  C   C1791     1.0  0.87217  0.06459  0.12497  1.0000
  C   C1792     1.0  0.79213  0.07378  0.03979  1.0000
  H   H3125     1.0  0.51620  0.20840  0.14646  1.0000
  H   H3126     1.0  0.86683  0.03192  0.16968  1.0000
  H   H3127     1.0  0.87154  0.01539  0.15929  1.0000
  H   H3128     1.0  0.88465  0.03011  0.13279  1.0000
  H   H3129     1.0  0.89868  0.04242  0.13167  1.0000
  H   H3130     1.0  0.90408  0.04659  0.15456  1.0000
  H   H3131     1.0  0.88740  0.04395  0.17157  1.0000
  H   H3132     1.0  0.92270  0.02171  0.16779  1.0000
  H   H3133     1.0  0.90599  0.01795  0.18502  1.0000
  H   H3134     1.0  0.91781  0.01865  0.12577  1.0000
  H   H3135     1.0  0.92465  0.02636  0.13964  1.0000
  H   H3136     1.0  0.87487  0.05987  0.14993  1.0000
  H   H3137     1.0  0.86125  0.04887  0.14665  1.0000
  H   H3138     1.0  0.73698  0.03520  0.09832  1.0000
  C   C1793     1.0  0.50836  0.19972  0.14728  1.0000
  C   C1794     1.0  0.50648  0.08710  0.13456  1.0000
  H   H3139     1.0  0.53416  0.30037  0.17616  1.0000
  H   H3140     1.0  0.50862  0.20762  0.04335  1.0000
  H   H3141     1.0  0.92407  0.03295  0.19060  1.0000
  H   H3142     1.0  0.92042  0.04939  0.17308  1.0000
  H   H3143     1.0  0.90361  0.04572  0.19053  1.0000
  N   N99       1.0  0.68218  0.04941  0.98525  1.0000
  H   H3144     1.0  0.51135  0.20487  0.12070  1.0000
  H   H3145     1.0  0.51945  0.17000  0.20161  1.0000
  H   H3146     1.0  0.86158  0.07524  0.12670  1.0000
  H   H3147     1.0  0.88369  0.06943  0.11952  1.0000
  H   H3148     1.0  0.87008  0.05816  0.11634  1.0000
  H   H3149     1.0  0.81062  0.00708  0.20273  1.0000
  S   S415      1.0  0.92934  0.01053  0.22590  1.0000
  H   H3150     1.0  0.75430  0.12630  0.99043  1.0000
  H   H3151     1.0  0.49881  0.16602  0.20788  1.0000
  H   H3152     1.0  0.50705  0.07667  0.12897  1.0000
  H   H3153     1.0  0.69126  0.07593  0.99277  1.0000
  H   H3154     1.0  0.49861  0.16871  0.17780  1.0000
  H   H3155     1.0  0.76001  0.03710  0.11622  1.0000
  H   H3156     1.0  0.50575  0.24110  0.01832  1.0000
  S   S416      1.0  0.75343  0.01993  0.00357  1.0000
  H   H3157     1.0  0.57062  0.17405  0.06841  1.0000
  C   C1795     1.0  0.50281  0.22091  0.03982  1.0000
  H   H3158     1.0  0.69442  0.10710  0.00833  1.0000
  H   H3159     1.0  0.81716  0.06814  0.05783  1.0000
  C   C1796     1.0  0.86253  0.00212  0.19090  1.0000
  C   C1797     1.0  0.99493  0.13736  0.21353  1.0000
  H   H3160     1.0  0.85555  0.04082  0.21734  1.0000
  H   H3161     1.0  0.53318  0.22486  0.16414  1.0000
  C   C1798     1.0  0.60094  0.20492  0.00711  1.0000
  H   H3162     1.0  0.58658  0.12947  0.05896  1.0000
  H   H3163     1.0  0.60452  0.15552  0.09260  1.0000
  C   C1799     1.0  0.75377  0.05873  0.15631  1.0000
  C   C1800     1.0  0.83172  0.06716  0.22617  1.0000
  H   H3164     1.0  0.67022  0.19934  0.99125  1.0000
  H   H3165     1.0  0.70084  0.02975  0.99546  1.0000
  H   H3166     1.0  0.58915  0.16847  0.05395  1.0000
  C   C1801     1.0  0.95934  0.14316  0.21007  1.0000
  H   H3167     1.0  0.54187  0.12257  0.09348  1.0000
  C   C1802     1.0  0.64518  0.22267  0.98532  1.0000
  H   H3168     1.0  0.79972  0.09564  0.01205  1.0000
  H   H3169     1.0  0.51980  0.14014  0.21064  1.0000
  H   H3170     1.0  0.78358  0.02581  0.12750  1.0000
  H   H3171     1.0  0.81064  0.00860  0.11520  1.0000
  H   H3172     1.0  0.68031  0.02794  0.00543  1.0000
  H   H3173     1.0  0.58817  0.11717  0.02053  1.0000
  H   H3174     1.0  0.70912  0.02342  0.02200  1.0000
  H   H3175     1.0  0.75879  0.05262  0.16762  1.0000
  C   C1803     1.0  0.61463  0.19167  0.00551  1.0000
  C   C1804     1.0  0.69010  0.04439  0.01355  1.0000
  H   H3176     1.0  0.87998  0.01549  0.19179  1.0000
  H   H3177     1.0  0.96868  0.13931  0.19929  1.0000
  C   C1805     1.0  0.80588  0.99740  0.12249  1.0000
  C   C1806     1.0  0.56202  0.18645  0.01772  1.0000
  Fe  Fe208     1.0  0.64263  0.12539  0.01011  1.0000
  C   C1807     1.0  0.81736  0.12000  0.00130  1.0000
  H   H3178     1.0  0.56569  0.13674  0.08091  1.0000
  H   H3179     1.0  0.56066  0.17718  0.01162  1.0000
  C   C1808     1.0  0.97628  0.16000  0.22599  1.0000
  H   H3180     1.0  0.90950  0.00373  0.16273  1.0000
  C   C1809     1.0  0.80450  0.09732  0.02215  1.0000
  H   H3181     1.0  0.71732  0.04523  0.10915  1.0000
  H   H3182     1.0  0.75811  0.01763  0.11503  1.0000
  H   H3183     1.0  0.85144  0.01232  0.19247  1.0000
  H   H3184     1.0  0.78303  0.98910  0.13178  1.0000
  C   C1810     1.0  0.96601  0.13543  0.22612  1.0000
  H   H3185     1.0  0.53805  0.29401  0.06977  1.0000
  C   C1811     1.0  0.73507  0.03244  0.12474  1.0000
  H   H3186     1.0  0.51237  0.28776  0.09005  1.0000
  H   H3187     1.0  0.49833  0.27596  0.01871  1.0000
  H   H3188     1.0  0.67802  0.05140  0.01935  1.0000
  H   H3189     1.0  0.50549  0.22756  0.04790  1.0000
  H   H3190     1.0  0.79364  0.12413  0.01750  1.0000
  C   C1812     1.0  0.76485  0.10055  0.99869  1.0000
  H   H3191     1.0  0.89967  0.00384  0.14718  1.0000
  C   C1813     1.0  0.57941  0.13601  0.03521  1.0000
  H   H3192     1.0  0.55583  0.29773  0.16572  1.0000
  H   H3193     1.0  0.97570  0.16670  0.21308  1.0000
  H   H3194     1.0  0.52695  0.14177  0.08934  1.0000
  C   C1814     1.0  0.51578  0.16521  0.12563  1.0000
  H   H3195     1.0  0.74000  0.06147  0.15966  1.0000
  C   C1815     1.0  0.56101  0.16657  0.04573  1.0000
  N   N100      1.0  0.68845  0.13077  0.04650  1.0000
  C   C1816     1.0  0.68858  0.12358  0.03229  1.0000
  C   C1817     1.0  0.67106  0.14008  0.05237  1.0000
  C   C1818     1.0  0.69952  0.14319  0.03998  1.0000
  C   C1819     1.0  0.69481  0.11785  0.06051  1.0000
  C   C1820     1.0  0.69177  0.10017  0.06340  1.0000
  C   C1821     1.0  0.70601  0.11678  0.02246  1.0000
  C   C1822     1.0  0.69984  0.15336  0.05225  1.0000
  C   C1823     1.0  0.65740  0.12983  0.05917  1.0000
  C   C1824     1.0  0.64011  0.14102  0.06184  1.0000
  C   C1825     1.0  0.69658  0.08933  0.07937  1.0000
  C   C1826     1.0  0.70557  0.10370  0.01373  1.0000
  C   C1827     1.0  0.71396  0.16272  0.04556  1.0000
  H   H3196     1.0  0.68202  0.13308  0.02321  1.0000
  H   H3197     1.0  0.68151  0.11360  0.03641  1.0000
  H   H3198     1.0  0.67054  0.14595  0.06256  1.0000
  H   H3199     1.0  0.66719  0.15036  0.04213  1.0000
  H   H3200     1.0  0.69590  0.15215  0.02890  1.0000
  H   H3201     1.0  0.71262  0.13692  0.03574  1.0000
  H   H3202     1.0  0.70850  0.11616  0.05865  1.0000
  H   H3203     1.0  0.68955  0.12216  0.07232  1.0000
  H   H3204     1.0  0.69942  0.09408  0.05315  1.0000
  H   H3205     1.0  0.67865  0.10029  0.06418  1.0000
  H   H3206     1.0  0.71078  0.12705  0.01297  1.0000
  H   H3207     1.0  0.71490  0.11110  0.03072  1.0000
  H   H3208     1.0  0.70157  0.14528  0.06437  1.0000
  H   H3209     1.0  0.68808  0.16273  0.05416  1.0000
  H   H3210     1.0  0.65755  0.12226  0.05061  1.0000
  H   H3211     1.0  0.65905  0.12162  0.07127  1.0000
  H   H3212     1.0  0.63753  0.14903  0.04992  1.0000
  H   H3213     1.0  0.63064  0.13328  0.06700  1.0000
  H   H3214     1.0  0.63897  0.14887  0.07061  1.0000
  H   H3215     1.0  0.68892  0.09455  0.09017  1.0000
  H   H3216     1.0  0.69443  0.07674  0.08109  1.0000
  H   H3217     1.0  0.70993  0.08821  0.07884  1.0000
  C   C1828     1.0  0.81587  0.05176  0.21852  1.0000
  C   C1829     1.0  0.79952  0.01237  0.22700  1.0000
  H   H3218     1.0  0.70543  0.09187  0.02279  1.0000
  H   H3219     1.0  0.71267  0.17112  0.03344  1.0000
  H   H3220     1.0  0.71362  0.17028  0.05433  1.0000
  H   H3221     1.0  0.72618  0.15393  0.04410  1.0000
  H   H3222     1.0  0.69275  0.17834  0.00310  1.0000
  C   C1830     1.0  0.49683  0.26475  0.04447  1.0000
  H   H3223     1.0  0.53982  0.14541  0.05946  1.0000
  H   H3224     1.0  0.95771  0.19251  0.22354  1.0000
  C   C1831     1.0  0.81755  0.08146  0.05469  1.0000
  H   H3225     1.0  0.79892  0.04622  0.98900  1.0000
  H   H3226     1.0  0.77266  0.10458  0.02753  1.0000
  H   H3227     1.0  0.79503  0.04172  0.03642  1.0000
  N   N101      1.0  0.82261  0.05316  0.23247  1.0000
  H   H3228     1.0  0.59576  0.21176  0.99647  1.0000
  C   C1832     1.0  0.73708  0.00446  0.16039  1.0000
  H   H3229     1.0  0.93178  0.98983  0.13751  1.0000
  H   H3230     1.0  0.51134  0.31096  0.06283  1.0000
  C   C1833     1.0  0.76491  0.11626  0.98851  1.0000
  C   C1834     1.0  0.75399  0.00313  0.14780  1.0000
  H   H3231     1.0  0.52318  0.16357  0.13455  1.0000
  C   C1835     1.0  0.59850  0.16301  0.08226  1.0000
  H   H3232     1.0  0.66679  0.06799  0.99898  1.0000
  H   H3233     1.0  0.55071  0.17488  0.05258  1.0000
  H   H3234     1.0  0.80823  0.06506  0.01792  1.0000
  C   C1836     1.0  0.80590  0.11567  0.01813  1.0000
  H   H3235     1.0  0.58073  0.14591  0.02387  1.0000
  H   H3236     1.0  0.75794  0.07061  0.15097  1.0000
  H   H3237     1.0  0.93351  0.14178  0.22108  1.0000
  H   H3238     1.0  0.53612  0.27767  0.06125  1.0000
  H   H3239     1.0  0.83542  0.07668  0.07003  1.0000
  H   H3240     1.0  0.73518  0.05420  0.10463  1.0000
  C   C1837     1.0  0.55883  0.14623  0.07209  1.0000
  H   H3241     1.0  0.65429  0.03907  0.00441  1.0000
  H   H3242     1.0  0.50791  0.27517  0.07914  1.0000
  H   H3243     1.0  0.76141  0.99600  0.98431  1.0000
  H   H3244     1.0  0.59034  0.17445  0.08598  1.0000
  H   H3245     1.0  0.55474  0.16063  0.03997  1.0000
  C   C1838     1.0  0.53285  0.29123  0.06059  1.0000
  C   C1839     1.0  0.80755  0.06211  0.03145  1.0000
  Fe  Fe209     1.0  0.63740  0.15988  0.98811  1.0000
  N   N102      1.0  0.75993  0.01900  0.13922  1.0000
  H   H3246     1.0  0.50970  0.29520  0.05365  1.0000
  C   C1840     1.0  0.79565  0.06375  0.19940  1.0000
  H   H3247     1.0  0.75352  0.99651  0.13850  1.0000
  H   H3248     1.0  0.82602  0.04894  0.20786  1.0000
  C   C1841     1.0  0.68829  0.03716  0.99972  1.0000
  C   C1842     1.0  0.50545  0.28816  0.08069  1.0000
  H   H3249     1.0  0.81732  0.03605  0.03128  1.0000
  C   C1843     1.0  0.52366  0.22760  0.17527  1.0000
  H   H3250     1.0  0.78818  0.07539  0.19336  1.0000
  H   H3251     1.0  0.80522  0.05826  0.18966  1.0000
  H   H3252     1.0  0.78734  0.05506  0.20608  1.0000
  H   H3253     1.0  0.79178  0.08799  0.06481  1.0000
  H   H3254     1.0  0.78829  0.06766  0.05295  1.0000
  H   H3255     1.0  0.81737  0.08989  0.02084  1.0000
  H   H3256     1.0  0.59567  0.14492  0.04412  1.0000
  H   H3257     1.0  0.77889  0.07562  0.00437  1.0000
  H   H3258     1.0  0.69819  0.03602  0.03677  1.0000
  H   H3259     1.0  0.86021  0.08061  0.21769  1.0000
  H   H3260     1.0  0.57285  0.18770  0.03690  1.0000
  H   H3261     1.0  0.52915  0.22245  0.18637  1.0000
  N   N103      1.0  0.79372  0.09123  0.03859  1.0000
  H   H3262     1.0  0.71680  0.10205  0.00370  1.0000
  C   C1844     1.0  0.51037  0.16518  0.19818  1.0000
  S   S417      1.0  0.65562  0.14631  0.00415  1.0000
  C   C1845     1.0  0.93534  0.00081  0.13883  1.0000
  H   H3263     1.0  0.50347  0.22624  0.16591  1.0000
  H   H3264     1.0  0.81102  0.11817  0.02753  1.0000
  H   H3265     1.0  0.55474  0.12609  0.06362  1.0000
  H   H3266     1.0  0.62628  0.24079  0.99729  1.0000
  C   C1846     1.0  0.50859  0.22045  0.17710  1.0000
  H   H3267     1.0  0.51884  0.17245  0.17190  1.0000
  C   C1847     1.0  0.84393  0.99479  0.15369  1.0000
  H   H3268     1.0  0.52462  0.22626  0.02126  1.0000
  H   H3269     1.0  0.51640  0.18727  0.14711  1.0000
  S   S418      1.0  0.62291  0.13998  0.99613  1.0000
  H   H3270     1.0  0.82284  0.07923  0.22381  1.0000
  H   H3271     1.0  0.78445  0.03266  0.99651  1.0000
  Fe  Fe210     1.0  0.92196  0.06935  0.23282  1.0000
  H   H3272     1.0  0.87105  0.01131  0.22213  1.0000
  H   H3273     1.0  0.80980  0.99348  0.13451  1.0000
  H   H3274     1.0  0.51686  0.19679  0.19191  1.0000
  C   C1848     1.0  0.63012  0.23709  0.98518  1.0000
  C   C1849     1.0  0.85849  0.99809  0.14251  1.0000
  H   H3275     1.0  0.65525  0.22669  0.98795  1.0000
  H   H3276     1.0  0.64144  0.21253  0.99571  1.0000
  H   H3277     1.0  0.73837  0.00753  0.17166  1.0000
  H   H3278     1.0  0.95621  0.15686  0.20776  1.0000
  H   H3279     1.0  0.80946  0.04121  0.22259  1.0000
  H   H3280     1.0  0.81067  0.07733  0.20435  1.0000
  H   H3281     1.0  0.84453  0.02645  0.21554  1.0000
  C   C1850     1.0  0.78697  0.00087  0.12519  1.0000
  C   C1851     1.0  0.80378  0.06744  0.21135  1.0000
  S   S419      1.0  0.50304  0.29244  0.17015  1.0000
  C   C1852     1.0  0.92765  0.00070  0.21105  1.0000
  H   H3282     1.0  0.98635  0.16394  0.22887  1.0000
  H   H3283     1.0  0.94605  0.12366  0.21343  1.0000
  C   C1853     1.0  0.94364  0.13739  0.21106  1.0000
  H   H3284     1.0  0.71950  0.98924  0.17502  1.0000
  H   H3285     1.0  0.63355  0.06895  0.98421  1.0000
  C   C1854     1.0  0.79150  0.03965  0.98523  1.0000
  H   H3286     1.0  0.49523  0.16431  0.05174  1.0000
  H   H3287     1.0  0.88433  0.98838  0.13331  1.0000
  C   C1855     1.0  0.74899  0.02137  0.98424  1.0000
  H   H3288     1.0  0.50292  0.32156  0.08495  1.0000
  H   H3289     1.0  0.77115  0.06041  0.98321  1.0000
  C   C1856     1.0  0.66873  0.19223  0.98295  1.0000
  C   C1857     1.0  0.79271  0.09061  0.98396  1.0000
  H   H3290     1.0  0.61950  0.23335  0.98312  1.0000
  C   C1858     1.0  0.75138  0.00784  0.29599  1.0000
  S   S420      1.0  0.91416  0.04643  0.24955  1.0000
  S   S421      1.0  0.86672  0.05910  0.26733  1.0000
  H   H3291     1.0  0.85498  0.00646  0.24009  1.0000
  C   C1859     1.0  0.78544  0.02037  0.23688  1.0000
  H   H3292     1.0  0.98606  0.10946  0.35495  1.0000
  S   S422      1.0  0.78539  0.02160  0.25696  1.0000
  H   H3293     1.0  0.79735  0.05191  0.24603  1.0000
  H   H3294     1.0  0.88703  0.02847  0.25983  1.0000
  H   H3295     1.0  0.82110  0.32130  0.41358  1.0000
  H   H3296     1.0  0.76390  0.99830  0.26491  1.0000
  C   C1860     1.0  0.75301  0.99335  0.26566  1.0000
  H   H3297     1.0  0.96667  0.23005  0.35165  1.0000
  Fe  Fe211     1.0  0.92235  0.22199  0.40588  1.0000
  S   S423      1.0  0.93809  0.23332  0.38252  1.0000
  S   S424      1.0  0.93151  0.19838  0.42301  1.0000
  Fe  Fe212     1.0  0.89153  0.24891  0.40138  1.0000
  S   S425      1.0  0.90470  0.26265  0.37761  1.0000
  S   S426      1.0  0.86393  0.25808  0.40876  1.0000
  Fe  Fe213     1.0  0.91581  0.23764  0.37172  1.0000
  S   S427      1.0  0.91849  0.23463  0.34601  1.0000
  Fe  Fe214     1.0  0.92553  0.25720  0.39056  1.0000
  S   S428      1.0  0.94075  0.27553  0.38806  1.0000
  S   S429      1.0  0.90103  0.22416  0.39445  1.0000
  S   S430      1.0  0.91147  0.24564  0.41502  1.0000
  Fe  Fe215     1.0  0.95304  0.14558  0.28615  1.0000
  S   S431      1.0  0.95719  0.13225  0.31152  1.0000
  S   S432      1.0  0.93788  0.13883  0.27153  1.0000
  Fe  Fe216     1.0  0.96698  0.17530  0.28713  1.0000
  S   S433      1.0  0.97182  0.16425  0.31247  1.0000
  S   S434      1.0  0.97258  0.19988  0.27152  1.0000
  S   S435      1.0  0.80583  0.00170  0.29458  1.0000
  Fe  Fe217     1.0  0.94722  0.15707  0.31821  1.0000
  S   S436      1.0  0.92912  0.16020  0.34200  1.0000
  H   H3298     1.0  0.86295  0.11791  0.26570  1.0000
  S   S437      1.0  0.94136  0.17012  0.29355  1.0000
  S   S438      1.0  0.96497  0.30172  0.31179  1.0000
  H   H3299     1.0  0.61310  0.29093  0.47864  1.0000
  H   H3300     1.0  0.82169  0.19144  0.46914  1.0000
  H   H3301     1.0  0.85151  0.18702  0.45320  1.0000
  H   H3302     1.0  0.98427  0.22865  0.37088  1.0000
  H   H3303     1.0  0.90017  0.15627  0.44250  1.0000
  C   C1861     1.0  0.94726  0.28351  0.36702  1.0000
  C   C1862     1.0  0.96419  0.28218  0.36013  1.0000
  C   C1863     1.0  0.96960  0.28782  0.34316  1.0000
  C   C1864     1.0  0.95806  0.29525  0.33311  1.0000
  C   C1865     1.0  0.94107  0.29697  0.34008  1.0000
  C   C1866     1.0  0.93568  0.29082  0.35700  1.0000
  H   H3304     1.0  0.97313  0.27646  0.36785  1.0000
  H   H3305     1.0  0.98273  0.28641  0.33792  1.0000
  H   H3306     1.0  0.70948  0.31917  0.44466  1.0000
  C   C1867     1.0  0.90060  0.29405  0.41225  1.0000
  C   C1868     1.0  0.92066  0.21407  0.34488  1.0000
  C   C1869     1.0  0.91261  0.20319  0.35779  1.0000
  C   C1870     1.0  0.91471  0.18671  0.35669  1.0000
  C   C1871     1.0  0.92516  0.18106  0.34286  1.0000
  C   C1872     1.0  0.93297  0.19201  0.32989  1.0000
  C   C1873     1.0  0.93067  0.20847  0.33086  1.0000
  H   H3307     1.0  0.90457  0.20751  0.36848  1.0000
  H   H3308     1.0  0.90843  0.17834  0.36659  1.0000
  H   H3309     1.0  0.94085  0.18786  0.31906  1.0000
  H   H3310     1.0  0.93702  0.21665  0.32086  1.0000
  Fe  Fe218     1.0  0.80228  0.28880  0.47856  1.0000
  H   H3311     1.0  0.98101  0.13057  0.37235  1.0000
  C   C1874     1.0  0.95923  0.18834  0.43600  1.0000
  C   C1875     1.0  0.95313  0.19302  0.42154  1.0000
  C   C1876     1.0  0.96429  0.19282  0.40629  1.0000
  H   H3312     1.0  0.98149  0.23189  0.33227  1.0000
  H   H3313     1.0  0.70301  0.01440  0.28641  1.0000
  H   H3314     1.0  0.95070  0.18849  0.44781  1.0000
  H   H3315     1.0  0.95969  0.19688  0.39506  1.0000
  C   C1877     1.0  0.83679  0.26475  0.46070  1.0000
  C   C1878     1.0  0.85419  0.26038  0.45702  1.0000
  C   C1879     1.0  0.86282  0.25814  0.44110  1.0000
  C   C1880     1.0  0.85397  0.25984  0.42906  1.0000
  C   C1881     1.0  0.83662  0.26336  0.43304  1.0000
  C   C1882     1.0  0.90948  0.15065  0.40257  1.0000
  H   H3316     1.0  0.86097  0.25944  0.46627  1.0000
  H   H3317     1.0  0.87622  0.25559  0.43802  1.0000
  H   H3318     1.0  0.82972  0.26433  0.42387  1.0000
  H   H3319     1.0  0.70299  0.04293  0.26919  1.0000
  H   H3320     1.0  0.64649  0.27417  0.46370  1.0000
  C   C1883     1.0  0.97937  0.23354  0.40096  1.0000
  H   H3321     1.0  0.75990  0.01208  0.28426  1.0000
  C   C1884     1.0  0.93944  0.09454  0.25004  1.0000
  C   C1885     1.0  0.95103  0.09341  0.25939  1.0000
  C   C1886     1.0  0.95043  0.10658  0.26656  1.0000
  C   C1887     1.0  0.93833  0.12114  0.26430  1.0000
  C   C1888     1.0  0.92663  0.12218  0.25512  1.0000
  C   C1889     1.0  0.92719  0.10900  0.24799  1.0000
  H   H3322     1.0  0.88987  0.22664  0.43823  1.0000
  H   H3323     1.0  0.87708  0.11827  0.24588  1.0000
  Fe  Fe219     1.0  0.79950  0.99918  0.27188  1.0000
  C   C1890     1.0  0.85073  0.30185  0.46834  1.0000
  C   C1891     1.0  0.86308  0.03901  0.27324  1.0000
  C   C1892     1.0  0.84794  0.03579  0.28328  1.0000
  C   C1893     1.0  0.84505  0.01966  0.28746  1.0000
  C   C1894     1.0  0.85749  0.00677  0.28194  1.0000
  C   C1895     1.0  0.87255  0.01008  0.27204  1.0000
  C   C1896     1.0  0.87533  0.02614  0.26759  1.0000
  H   H3324     1.0  0.83848  0.04572  0.28776  1.0000
  H   H3325     1.0  0.83343  0.01712  0.29530  1.0000
  H   H3326     1.0  0.99182  0.26844  0.25435  1.0000
  H   H3327     1.0  0.97549  0.22392  0.42781  1.0000
  H   H3328     1.0  0.89575  0.29758  0.30580  1.0000
  N   N104      1.0  0.86901  0.20283  0.44816  1.0000
  C   C1897     1.0  0.97108  0.23536  0.41900  1.0000
  H   H3329     1.0  0.97599  0.22231  0.39987  1.0000
  H   H3330     1.0  0.97274  0.24394  0.39254  1.0000
  H   H3331     1.0  0.80310  0.07041  0.24521  1.0000
  Fe  Fe220     1.0  0.99180  0.28930  0.30580  1.0000
  C   C1898     1.0  0.72070  0.30326  0.48152  1.0000
  H   H3332     1.0  0.84180  0.23273  0.41299  1.0000
  H   H3333     1.0  0.90483  0.30238  0.41736  1.0000
  H   H3334     1.0  0.70093  0.29358  0.44681  1.0000
  C   C1899     1.0  0.83830  0.20838  0.46396  1.0000
  H   H3335     1.0  0.72763  0.26851  0.46679  1.0000
  H   H3336     1.0  0.72689  0.31272  0.48144  1.0000
  H   H3337     1.0  0.82620  0.31009  0.38870  1.0000
  C   C1900     1.0  0.72459  0.99881  0.30824  1.0000
  C   C1901     1.0  0.98533  0.14462  0.41226  1.0000
  H   H3338     1.0  0.83405  0.07183  0.24914  1.0000
  C   C1902     1.0  0.97252  0.11156  0.35575  1.0000
  H   H3339     1.0  0.69673  0.03008  0.25956  1.0000
  C   C1903     1.0  0.95225  0.23777  0.42231  1.0000
  H   H3340     1.0  0.95225  0.17724  0.38734  1.0000
  C   C1904     1.0  0.70365  0.30192  0.43454  1.0000
  H   H3341     1.0  0.94894  0.16535  0.23400  1.0000
  H   H3342     1.0  0.81289  0.03587  0.26715  1.0000
  C   C1905     1.0  0.96301  0.14431  0.39813  1.0000
  C   C1906     1.0  0.89591  0.22556  0.46115  1.0000
  C   C1907     1.0  0.82801  0.30833  0.41391  1.0000
  C   C1908     1.0  0.88206  0.29453  0.41901  1.0000
  H   H3343     1.0  0.74082  0.03339  0.29958  1.0000
  C   C1909     1.0  0.89111  0.21748  0.44985  1.0000
  H   H3344     1.0  0.70923  0.29420  0.42514  1.0000
  H   H3345     1.0  0.97356  0.16056  0.36548  1.0000
  C   C1910     1.0  0.95080  0.17709  0.37505  1.0000
  C   C1911     1.0  0.84705  0.30674  0.41043  1.0000
  H   H3346     1.0  0.95584  0.16095  0.35859  1.0000
  C   C1912     1.0  0.79538  0.05558  0.27706  1.0000
  H   H3347     1.0  0.97393  0.24600  0.42183  1.0000
  H   H3348     1.0  0.94874  0.22778  0.41895  1.0000
  C   C1913     1.0  0.72931  0.29039  0.47331  1.0000
  C   C1914     1.0  0.72813  0.01887  0.28189  1.0000
  H   H3349     1.0  0.73931  0.01785  0.31846  1.0000
  C   C1915     1.0  0.95795  0.18541  0.23635  1.0000
  H   H3350     1.0  0.94870  0.20350  0.36568  1.0000
  C   C1916     1.0  0.85115  0.22242  0.40815  1.0000
  H   H3351     1.0  0.96208  0.13215  0.40675  1.0000
  C   C1917     1.0  0.87173  0.31245  0.41499  1.0000
  H   H3352     1.0  0.97333  0.13480  0.25396  1.0000
  C   C1918     1.0  0.80796  0.05683  0.24651  1.0000
  C   C1919     1.0  0.96765  0.13034  0.37564  1.0000
  H   H3353     1.0  0.87863  0.28609  0.41339  1.0000
  H   H3354     1.0  0.96971  0.19166  0.36368  1.0000
  H   H3355     1.0  0.77141  0.02815  0.29673  1.0000
  H   H3356     1.0  0.93088  0.14381  0.41319  1.0000
  H   H3357     1.0  0.93740  0.17898  0.37550  1.0000
  S   S439      1.0  0.94145  0.07801  0.24038  1.0000
  H   H3358     1.0  0.97036  0.27414  0.25274  1.0000
  H   H3359     1.0  0.98762  0.19926  0.33472  1.0000
  H   H3360     1.0  0.96656  0.11873  0.38517  1.0000
  Fe  Fe221     1.0  0.98147  0.14057  0.30359  1.0000
  H   H3361     1.0  0.95484  0.15372  0.40506  1.0000
  C   C1920     1.0  0.97909  0.27436  0.26010  1.0000
  H   H3362     1.0  0.72268  0.02898  0.28878  1.0000
  C   C1921     1.0  0.85467  0.31222  0.45089  1.0000
  H   H3363     1.0  0.98569  0.11074  0.27376  1.0000
  H   H3364     1.0  0.90886  0.99243  0.25350  1.0000
  H   H3365     1.0  0.86508  0.22287  0.46050  1.0000
  Fe  Fe222     1.0  0.88859  0.05925  0.24591  1.0000
  C   C1922     1.0  0.82806  0.26582  0.44880  1.0000
  H   H3366     1.0  0.85246  0.29326  0.41240  1.0000
  H   H3367     1.0  0.90533  0.15779  0.39106  1.0000
  H   H3368     1.0  0.89803  0.21650  0.47271  1.0000
  H   H3369     1.0  0.82367  0.30076  0.42622  1.0000
  H   H3370     1.0  0.97898  0.28738  0.25989  1.0000
  H   H3371     1.0  0.96778  0.13802  0.34906  1.0000
  H   H3372     1.0  0.97814  0.20809  0.30064  1.0000
  H   H3373     1.0  0.94224  0.22286  0.28671  1.0000
  H   H3374     1.0  0.99015  0.17819  0.33325  1.0000
  C   C1923     1.0  0.85659  0.20864  0.42230  1.0000
  H   H3375     1.0  0.96061  0.08230  0.26100  1.0000
  H   H3376     1.0  0.93827  0.13065  0.38975  1.0000
  C   C1924     1.0  0.97638  0.18384  0.43522  1.0000
  H   H3377     1.0  0.72352  0.31694  0.40806  1.0000
  H   H3378     1.0  0.83342  0.21601  0.45298  1.0000
  H   H3379     1.0  0.71730  0.03425  0.25239  1.0000
  H   H3380     1.0  0.96826  0.18762  0.24046  1.0000
  H   H3381     1.0  0.82138  0.05313  0.26630  1.0000
  H   H3382     1.0  0.75987  0.03434  0.31574  1.0000
  C   C1925     1.0  0.90491  0.16325  0.44870  1.0000
  H   H3383     1.0  0.89269  0.19410  0.43266  1.0000
  N   N105      1.0  0.89572  0.08167  0.29274  1.0000
  C   C1926     1.0  0.88735  0.07270  0.30925  1.0000
  C   C1927     1.0  0.90322  0.09484  0.29491  1.0000
  C   C1928     1.0  0.88240  0.09018  0.28293  1.0000
  C   C1929     1.0  0.90864  0.06990  0.28320  1.0000
  C   C1930     1.0  0.92308  0.05928  0.29155  1.0000
  C   C1931     1.0  0.87881  0.05904  0.30879  1.0000
  C   C1932     1.0  0.88759  0.10221  0.26639  1.0000
  C   C1933     1.0  0.91026  0.09128  0.31064  1.0000
  C   C1934     1.0  0.91997  0.10420  0.30964  1.0000
  C   C1935     1.0  0.93346  0.04568  0.28240  1.0000
  C   C1936     1.0  0.87159  0.05033  0.32622  1.0000
  H   H3384     1.0  0.62569  0.26308  0.48103  1.0000
  H   H3385     1.0  0.87776  0.08180  0.31579  1.0000
  H   H3386     1.0  0.89618  0.06672  0.31751  1.0000
  H   H3387     1.0  0.91322  0.09791  0.28395  1.0000
  H   H3388     1.0  0.89376  0.10662  0.29543  1.0000
  H   H3389     1.0  0.87154  0.09728  0.29051  1.0000
  H   H3390     1.0  0.87765  0.08092  0.27968  1.0000
  H   H3391     1.0  0.90274  0.06160  0.27979  1.0000
  H   H3392     1.0  0.91465  0.07676  0.27116  1.0000
  H   H3393     1.0  0.91860  0.05309  0.30444  1.0000
  H   H3394     1.0  0.93148  0.06723  0.29130  1.0000
  H   H3395     1.0  0.86837  0.06434  0.30232  1.0000
  H   H3396     1.0  0.88774  0.04944  0.30256  1.0000
  H   H3397     1.0  0.89744  0.09548  0.25780  1.0000
  H   H3398     1.0  0.89222  0.11232  0.26819  1.0000
  H   H3399     1.0  0.89988  0.09180  0.32164  1.0000
  H   H3400     1.0  0.91862  0.07896  0.31272  1.0000
  H   H3401     1.0  0.92390  0.10206  0.32145  1.0000
  H   H3402     1.0  0.93128  0.10330  0.29963  1.0000
  H   H3403     1.0  0.91223  0.11691  0.30727  1.0000
  H   H3404     1.0  0.94399  0.03863  0.28838  1.0000
  H   H3405     1.0  0.92583  0.03696  0.28272  1.0000
  H   H3406     1.0  0.93863  0.05108  0.26937  1.0000
  H   H3407     1.0  0.86220  0.05932  0.33296  1.0000
  H   H3408     1.0  0.86544  0.04078  0.32548  1.0000
  H   H3409     1.0  0.88157  0.04413  0.33319  1.0000
  H   H3410     1.0  0.93002  0.23568  0.27207  1.0000
  H   H3411     1.0  0.71807  0.00967  0.31392  1.0000
  H   H3412     1.0  0.83719  0.30236  0.47254  1.0000
  H   H3413     1.0  0.83896  0.03686  0.24830  1.0000
  C   C1937     1.0  0.93931  0.14385  0.38670  1.0000
  H   H3414     1.0  0.95941  0.10551  0.27371  1.0000
  C   C1938     1.0  0.98146  0.18720  0.40563  1.0000
  H   H3415     1.0  0.79291  0.06923  0.27542  1.0000
  H   H3416     1.0  0.98100  0.18069  0.44644  1.0000
  H   H3417     1.0  0.91124  0.30298  0.31281  1.0000
  H   H3418     1.0  0.72700  0.30334  0.43794  1.0000
  H   H3419     1.0  0.95011  0.12956  0.36109  1.0000
  C   C1939     1.0  0.70468  0.27874  0.48190  1.0000
  C   C1940     1.0  0.64742  0.28491  0.46795  1.0000
  H   H3420     1.0  0.90818  0.13766  0.40475  1.0000
  H   H3421     1.0  0.94687  0.23754  0.43561  1.0000
  H   H3422     1.0  0.66627  0.29140  0.44615  1.0000
  H   H3423     1.0  0.88194  0.00023  0.26752  1.0000
  C   C1941     1.0  0.85450  0.19563  0.45904  1.0000
  H   H3424     1.0  0.79755  0.04980  0.28971  1.0000
  H   H3425     1.0  0.78435  0.05194  0.27580  1.0000
  H   H3426     1.0  0.74115  0.98846  0.32595  1.0000
  C   C1942     1.0  0.96359  0.12843  0.35981  1.0000
  H   H3427     1.0  0.74845  0.31489  0.43025  1.0000
  H   H3428     1.0  0.98407  0.31873  0.33893  1.0000
  C   C1943     1.0  0.84214  0.06899  0.23741  1.0000
  H   H3429     1.0  0.88028  0.28954  0.43251  1.0000
  C   C1944     1.0  0.71565  0.31214  0.43477  1.0000
  C   C1945     1.0  0.98626  0.21342  0.28966  1.0000
  H   H3430     1.0  0.93209  0.30279  0.33239  1.0000
  C   C1946     1.0  0.86414  0.21515  0.43317  1.0000
  H   H3431     1.0  0.81327  0.20908  0.47865  1.0000
  C   C1947     1.0  0.95700  0.19179  0.36278  1.0000
  H   H3432     1.0  0.83043  0.28915  0.40063  1.0000
  H   H3433     1.0  0.86779  0.10060  0.25575  1.0000
  H   H3434     1.0  0.92798  0.16420  0.40027  1.0000
  C   C1948     1.0  0.96007  0.16059  0.36983  1.0000
  C   C1949     1.0  0.72112  0.27836  0.47327  1.0000
  H   H3435     1.0  0.84553  0.21753  0.40077  1.0000
  H   H3436     1.0  0.84553  0.20362  0.42953  1.0000
  H   H3437     1.0  0.95698  0.19151  0.34997  1.0000
  H   H3438     1.0  0.91849  0.11027  0.24044  1.0000
  C   C1950     1.0  0.81066  0.04960  0.26440  1.0000
  C   C1951     1.0  0.87291  0.11021  0.25797  1.0000
  C   C1952     1.0  0.71357  0.01652  0.27585  1.0000
  H   H3439     1.0  0.71217  0.99114  0.34239  1.0000
  H   H3440     1.0  0.85476  0.30667  0.47701  1.0000
  H   H3441     1.0  0.86199  0.22728  0.39987  1.0000
  H   H3442     1.0  0.87507  0.21984  0.42490  1.0000
  S   S440      1.0  0.79293  0.29871  0.45525  1.0000
  H   H3443     1.0  0.73725  0.02394  0.27102  1.0000
  N   N106      1.0  0.94951  0.26249  0.30269  1.0000
  C   C1953     1.0  0.95713  0.27309  0.28690  1.0000
  C   C1954     1.0  0.93445  0.27312  0.31148  1.0000
  C   C1955     1.0  0.96194  0.25651  0.31370  1.0000
  C   C1956     1.0  0.94511  0.24766  0.30000  1.0000
  C   C1957     1.0  0.93995  0.24941  0.28357  1.0000
  C   C1958     1.0  0.97441  0.26485  0.27783  1.0000
  C   C1959     1.0  0.95638  0.24576  0.33099  1.0000
  C   C1960     1.0  0.91981  0.28073  0.30262  1.0000
  C   C1961     1.0  0.90631  0.29251  0.31215  1.0000
  C   C1962     1.0  0.93298  0.23459  0.28414  1.0000
  H   H3444     1.0  0.85528  0.22634  0.43678  1.0000
  C   C1963     1.0  0.97067  0.23874  0.33999  1.0000
  H   H3445     1.0  0.95867  0.28460  0.28941  1.0000
  H   H3446     1.0  0.94880  0.27745  0.27805  1.0000
  H   H3447     1.0  0.92899  0.26590  0.32358  1.0000
  H   H3448     1.0  0.93819  0.28336  0.31424  1.0000
  H   H3449     1.0  0.96566  0.26721  0.31558  1.0000
  H   H3450     1.0  0.97345  0.24880  0.30774  1.0000
  H   H3451     1.0  0.95573  0.23679  0.30057  1.0000
  H   H3452     1.0  0.93487  0.24386  0.31028  1.0000
  H   H3453     1.0  0.95083  0.24981  0.27308  1.0000
  H   H3454     1.0  0.93046  0.26076  0.28076  1.0000
  H   H3455     1.0  0.97062  0.11103  0.34366  1.0000
  H   H3456     1.0  0.97477  0.25196  0.27754  1.0000
  H   H3457     1.0  0.95210  0.23512  0.32988  1.0000
  H   H3458     1.0  0.94637  0.25311  0.33898  1.0000
  H   H3459     1.0  0.92376  0.28787  0.28999  1.0000
  H   H3460     1.0  0.91406  0.27081  0.30209  1.0000
  H   H3461     1.0  0.87512  0.31677  0.40137  1.0000
  H   H3462     1.0  0.92256  0.29190  0.36233  1.0000
  H   H3463     1.0  0.90334  0.29774  0.39856  1.0000
  H   H3464     1.0  0.97608  0.15291  0.41990  1.0000
  H   H3465     1.0  0.92147  0.23405  0.29389  1.0000
  H   H3466     1.0  0.92290  0.00558  0.26602  1.0000
  C   C1964     1.0  0.95991  0.16695  0.23744  1.0000
  H   H3467     1.0  0.76973  0.01298  0.31598  1.0000
  C   C1965     1.0  0.98468  0.13324  0.24402  1.0000
  H   H3468     1.0  0.97432  0.24886  0.34301  1.0000
  H   H3469     1.0  0.71463  0.99452  0.30556  1.0000
  H   H3470     1.0  0.90759  0.22991  0.45479  1.0000
  H   H3471     1.0  0.94686  0.24987  0.41514  1.0000
  H   H3472     1.0  0.67449  0.27795  0.46346  1.0000
  C   C1966     1.0  0.76306  0.02437  0.30877  1.0000
  C   C1967     1.0  0.70730  0.03193  0.26350  1.0000
  C   C1968     1.0  0.84827  0.30642  0.43863  1.0000
  C   C1969     1.0  0.92747  0.15120  0.40137  1.0000
  S   S441      1.0  0.97837  0.15194  0.27752  1.0000
  H   H3473     1.0  0.90128  0.15618  0.41298  1.0000
  H   H3474     1.0  0.85229  0.29278  0.44033  1.0000
  H   H3475     1.0  0.93377  0.14962  0.37563  1.0000
  H   H3476     1.0  0.86587  0.19880  0.41669  1.0000
  C   C1970     1.0  0.87461  0.21161  0.45801  1.0000
  H   H3477     1.0  0.87795  0.18186  0.43640  1.0000
  N   N107      1.0  0.95735  0.14516  0.38267  1.0000
  H   H3478     1.0  0.90164  0.28586  0.32488  1.0000
  C   C1971     1.0  0.74724  0.02142  0.30612  1.0000
  H   H3479     1.0  0.81467  0.26838  0.45177  1.0000
  H   H3480     1.0  0.75896  0.99658  0.30251  1.0000
  H   H3481     1.0  0.83451  0.30874  0.44283  1.0000
  H   H3482     1.0  0.91729  0.13344  0.25315  1.0000
  Fe  Fe223     1.0  0.76749  0.29839  0.47121  1.0000
  H   H3483     1.0  0.98997  0.18642  0.39394  1.0000
  H   H3484     1.0  0.88607  0.23634  0.46425  1.0000
  H   H3485     1.0  0.98303  0.26558  0.40035  1.0000
  H   H3486     1.0  0.63814  0.29582  0.46347  1.0000
  C   C1972     1.0  0.88270  0.18901  0.44244  1.0000
  H   H3487     1.0  0.69864  0.26908  0.48216  1.0000
  H   H3488     1.0  0.86740  0.02075  0.23936  1.0000
  H   H3489     1.0  0.85734  0.28875  0.46877  1.0000
  N   N108      1.0  0.73678  0.00375  0.29247  1.0000
  H   H3490     1.0  0.80997  0.30200  0.40446  1.0000
  H   H3491     1.0  0.99033  0.13829  0.38887  1.0000
  H   H3492     1.0  0.98167  0.15983  0.38878  1.0000
  H   H3493     1.0  0.66601  0.29964  0.46341  1.0000
  H   H3494     1.0  0.90154  0.20709  0.44703  1.0000
  S   S442      1.0  0.75000  0.28914  0.46229  1.0000
  C   C1973     1.0  0.74313  0.98944  0.28378  1.0000
  N   N109      1.0  0.85311  0.31460  0.42072  1.0000
  C   C1974     1.0  0.83387  0.03675  0.23776  1.0000
  C   C1975     1.0  0.89078  0.17615  0.45610  1.0000
  H   H3495     1.0  0.85156  0.31156  0.39704  1.0000
  C   C1976     1.0  0.82341  0.30201  0.40112  1.0000
  C   C1977     1.0  0.66460  0.28870  0.45978  1.0000
  H   H3496     1.0  0.94611  0.19000  0.24461  1.0000
  H   H3497     1.0  0.75174  0.31346  0.40971  1.0000
  H   H3498     1.0  0.82655  0.02684  0.24249  1.0000
  H   H3499     1.0  0.98323  0.10745  0.24629  1.0000
  H   H3500     1.0  0.98412  0.26461  0.28427  1.0000
  H   H3501     1.0  0.98600  0.13157  0.41908  1.0000
  H   H3502     1.0  0.69178  0.31011  0.43189  1.0000
  H   H3503     1.0  0.91465  0.16929  0.43963  1.0000
  H   H3504     1.0  0.74526  0.00260  0.25753  1.0000
  H   H3505     1.0  0.76046  0.03473  0.23792  1.0000
  H   H3506     1.0  0.85174  0.05762  0.24003  1.0000
  H   H3507     1.0  0.99331  0.13937  0.24663  1.0000
  H   H3508     1.0  0.71721  0.00590  0.26970  1.0000
  H   H3509     1.0  0.87577  0.20372  0.47040  1.0000
  H   H3510     1.0  0.95969  0.16068  0.25049  1.0000
  C   C1978     1.0  0.98080  0.14704  0.39566  1.0000
  H   H3511     1.0  0.96755  0.10152  0.36536  1.0000
  H   H3512     1.0  0.91069  0.15436  0.45864  1.0000
  H   H3513     1.0  0.87645  0.32046  0.42009  1.0000
  C   C1979     1.0  0.98756  0.18306  0.42009  1.0000
  S   S443      1.0  0.82609  0.26951  0.47991  1.0000
  H   H3514     1.0  0.88153  0.16949  0.46513  1.0000
  H   H3515     1.0  0.90539  0.99913  0.28102  1.0000
  H   H3516     1.0  0.89606  0.18204  0.46287  1.0000
  H   H3517     1.0  0.85801  0.08478  0.23764  1.0000
  H   H3518     1.0  0.90780  0.28129  0.41580  1.0000
  C   C1980     1.0  0.91781  0.99464  0.27359  1.0000
  C   C1981     1.0  0.98628  0.21068  0.27427  1.0000
  H   H3519     1.0  0.84041  0.21680  0.47058  1.0000
  H   H3520     1.0  0.78095  0.30809  0.41964  1.0000
  H   H3521     1.0  0.85783  0.18785  0.47078  1.0000
  H   H3522     1.0  0.86828  0.31122  0.44738  1.0000
  C   C1982     1.0  0.82469  0.19969  0.47537  1.0000
  C   C1983     1.0  0.99220  0.11437  0.24684  1.0000
  H   H3523     1.0  0.95552  0.13741  0.23674  1.0000
  S   S444      1.0  0.80043  0.31398  0.48278  1.0000
  H   H3524     1.0  0.77365  0.32127  0.43455  1.0000
  C   C1984     1.0  0.77769  0.32107  0.42124  1.0000
  Fe  Fe224     1.0  0.54615  0.07200  0.72011  1.0000
  S   S445      1.0  0.57059  0.06076  0.70560  1.0000
  S   S446      1.0  0.53905  0.09969  0.71132  1.0000
  C   C1985     1.0  0.61019  0.02931  0.66665  1.0000
  C   C1986     1.0  0.63437  0.00968  0.57802  1.0000
  H   H3525     1.0  0.54815  0.19608  0.58942  1.0000
  Fe  Fe225     1.0  0.55856  0.04024  0.70716  1.0000
  S   S447      1.0  0.56164  0.02856  0.68582  1.0000
  S   S448      1.0  0.53348  0.05249  0.71969  1.0000
  Fe  Fe226     1.0  0.51973  0.26105  0.56026  1.0000
  S   S449      1.0  0.52213  0.28086  0.53738  1.0000
  Fe  Fe227     1.0  0.53840  0.23380  0.54258  1.0000
  S   S450      1.0  0.54287  0.25141  0.51806  1.0000
  S   S451      1.0  0.54841  0.20655  0.54411  1.0000
  Fe  Fe228     1.0  0.54858  0.26724  0.53191  1.0000
  S   S452      1.0  0.56803  0.28295  0.52152  1.0000
  Fe  Fe229     1.0  0.51604  0.26333  0.52588  1.0000
  C   C1987     1.0  0.74337  0.26036  0.51999  1.0000
  S   S453      1.0  0.54659  0.24848  0.55574  1.0000
  S   S454      1.0  0.51119  0.24466  0.54940  1.0000
  H   H3526     1.0  0.64676  0.25238  0.54662  1.0000
  C   C1988     1.0  0.53930  0.18440  0.62909  1.0000
  H   H3527     1.0  0.67954  0.99152  0.62751  1.0000
  C   C1989     1.0  0.51974  0.22077  0.51100  1.0000
  H   H3528     1.0  0.58857  0.04576  0.67736  1.0000
  H   H3529     1.0  0.50292  0.12059  0.62939  1.0000
  Fe  Fe230     1.0  0.66276  0.30754  0.51942  1.0000
  H   H3530     1.0  0.49693  0.29419  0.56068  1.0000
  S   S455      1.0  0.61268  0.29565  0.56283  1.0000
  H   H3531     1.0  0.50504  0.20583  0.50775  1.0000
  S   S456      1.0  0.67576  0.29068  0.50165  1.0000
  S   S457      1.0  0.65936  0.29744  0.54668  1.0000
  H   H3532     1.0  0.66602  0.03665  0.70945  1.0000
  H   H3533     1.0  0.57420  0.05839  0.62034  1.0000
  H   H3534     1.0  0.51340  0.09395  0.64695  1.0000
  Fe  Fe231     1.0  0.77452  0.31217  0.49657  1.0000
  C   C1990     1.0  0.62065  0.01135  0.71002  1.0000
  H   H3535     1.0  0.63747  0.25180  0.49598  1.0000
  H   H3536     1.0  0.50657  0.14217  0.67502  1.0000
  H   H3537     1.0  0.82863  0.19231  0.48694  1.0000
  C   C1991     1.0  0.53580  0.30444  0.56483  1.0000
  C   C1992     1.0  0.53381  0.10161  0.65214  1.0000
  H   H3538     1.0  0.55737  0.20862  0.63714  1.0000
  C   C1993     1.0  0.57858  0.28713  0.53442  1.0000
  H   H3539     1.0  0.52543  0.22219  0.52055  1.0000
  H   H3540     1.0  0.73271  0.31251  0.51162  1.0000
  C   C1994     1.0  0.59903  0.29286  0.55218  1.0000
  C   C1995     1.0  0.59185  0.27890  0.55788  1.0000
  C   C1996     1.0  0.58175  0.27595  0.54895  1.0000
  H   H3541     1.0  0.57697  0.31441  0.60546  1.0000
  H   H3542     1.0  0.59459  0.27003  0.56890  1.0000
  H   H3543     1.0  0.57693  0.26478  0.55298  1.0000
  C   C1997     1.0  0.53746  0.19305  0.55969  1.0000
  C   C1998     1.0  0.52297  0.19892  0.57056  1.0000
  C   C1999     1.0  0.51489  0.18774  0.58327  1.0000
  C   C2000     1.0  0.52134  0.17071  0.58513  1.0000
  C   C2001     1.0  0.53564  0.16488  0.57405  1.0000
  C   C2002     1.0  0.54367  0.17600  0.56139  1.0000
  H   H3544     1.0  0.51815  0.21205  0.56931  1.0000
  H   H3545     1.0  0.75473  0.25994  0.52411  1.0000
  H   H3546     1.0  0.54064  0.15172  0.57539  1.0000
  H   H3547     1.0  0.55484  0.17138  0.55301  1.0000
  H   H3548     1.0  0.75715  0.24235  0.50502  1.0000
  H   H3549     1.0  0.65490  0.27024  0.49019  1.0000
  H   H3550     1.0  0.50985  0.20004  0.62472  1.0000
  H   H3551     1.0  0.72271  0.28077  0.56913  1.0000
  C   C2003     1.0  0.55798  0.30899  0.59663  1.0000
  H   H3552     1.0  0.52919  0.21898  0.66579  1.0000
  H   H3553     1.0  0.55668  0.15120  0.63156  1.0000
  H   H3554     1.0  0.54509  0.99318  0.69813  1.0000
  H   H3555     1.0  0.64401  0.02956  0.67813  1.0000
  H   H3556     1.0  0.70760  0.26155  0.52635  1.0000
  C   C2004     1.0  0.58270  0.02316  0.67660  1.0000
  C   C2005     1.0  0.58892  0.00791  0.67195  1.0000
  C   C2006     1.0  0.60589  0.00302  0.66535  1.0000
  C   C2007     1.0  0.61652  0.01376  0.66262  1.0000
  C   C2008     1.0  0.59334  0.03388  0.67395  1.0000
  H   H3557     1.0  0.58069  0.99971  0.67384  1.0000
  C   C2009     1.0  0.61525  0.30928  0.49073  1.0000
  H   H3558     1.0  0.54919  0.22143  0.60834  1.0000
  H   H3559     1.0  0.51144  0.23271  0.50675  1.0000
  H   H3560     1.0  0.52582  0.07583  0.68925  1.0000
  H   H3561     1.0  0.63946  0.00369  0.68991  1.0000
  C   C2010     1.0  0.55007  0.20786  0.59060  1.0000
  H   H3562     1.0  0.62384  0.03458  0.58255  1.0000
  C   C2011     1.0  0.64828  0.03181  0.68831  1.0000
  C   C2012     1.0  0.51081  0.22504  0.61094  1.0000
  H   H3563     1.0  0.73791  0.25418  0.49934  1.0000
  C   C2013     1.0  0.53679  0.28811  0.59285  1.0000
  C   C2014     1.0  0.55130  0.27380  0.58796  1.0000
  C   C2015     1.0  0.58503  0.30150  0.52926  1.0000
  S   S458      1.0  0.76183  0.31921  0.52085  1.0000
  H   H3564     1.0  0.50637  0.05884  0.67607  1.0000
  H   H3565     1.0  0.64761  0.29140  0.49057  1.0000
  C   C2016     1.0  0.54987  0.25759  0.60053  1.0000
  C   C2017     1.0  0.69062  0.99265  0.67493  1.0000
  C   C2018     1.0  0.73616  0.28372  0.54325  1.0000
  H   H3566     1.0  0.74352  0.27099  0.54668  1.0000
  N   N110      1.0  0.65098  0.01601  0.70129  1.0000
  S   S459      1.0  0.51218  0.15629  0.60127  1.0000
  H   H3567     1.0  0.51977  0.23222  0.60224  1.0000
  Fe  Fe232     1.0  0.63251  0.31002  0.54792  1.0000
  H   H3568     1.0  0.52311  0.31605  0.60248  1.0000
  H   H3569     1.0  0.53603  0.28843  0.60587  1.0000
  H   H3570     1.0  0.52525  0.28438  0.59327  1.0000
  H   H3571     1.0  0.56349  0.27641  0.58725  1.0000
  H   H3572     1.0  0.55115  0.27173  0.57585  1.0000
  C   C2019     1.0  0.53130  0.21166  0.63571  1.0000
  H   H3573     1.0  0.66022  0.03582  0.68225  1.0000
  C   C2020     1.0  0.53472  0.32122  0.55215  1.0000
  C   C2021     1.0  0.74267  0.29277  0.56612  1.0000
  C   C2022     1.0  0.69609  0.29140  0.49029  1.0000
  H   H3574     1.0  0.52898  0.09963  0.62895  1.0000
  H   H3575     1.0  0.73664  0.25121  0.52902  1.0000
  H   H3576     1.0  0.65809  0.00718  0.58296  1.0000
  H   H3577     1.0  0.54100  0.23253  0.64988  1.0000
  H   H3578     1.0  0.53807  0.25408  0.60128  1.0000
  H   H3579     1.0  0.56037  0.24760  0.59663  1.0000
  H   H3580     1.0  0.55032  0.25875  0.61293  1.0000
  C   C2023     1.0  0.63611  0.04723  0.69405  1.0000
  H   H3581     1.0  0.60987  0.24050  0.48818  1.0000
  C   C2024     1.0  0.51122  0.12002  0.63754  1.0000
  C   C2025     1.0  0.52988  0.01236  0.72056  1.0000
  C   C2026     1.0  0.72261  0.31510  0.52235  1.0000
  C   C2027     1.0  0.50712  0.13037  0.68358  1.0000
  H   H3582     1.0  0.53081  0.12986  0.68819  1.0000
  H   H3583     1.0  0.52503  0.29906  0.56572  1.0000
  C   C2028     1.0  0.56686  0.21047  0.57960  1.0000
  H   H3584     1.0  0.59891  0.23462  0.50914  1.0000
  H   H3585     1.0  0.62259  0.03200  0.56288  1.0000
  H   H3586     1.0  0.71957  0.26048  0.55061  1.0000
  C   C2029     1.0  0.59530  0.30431  0.53802  1.0000
  H   H3587     1.0  0.56187  0.07351  0.67312  1.0000
  H   H3588     1.0  0.58493  0.10591  0.66926  1.0000
  H   H3589     1.0  0.50238  0.21191  0.54220  1.0000
  H   H3590     1.0  0.61334  0.31096  0.50346  1.0000
  C   C2030     1.0  0.72895  0.29002  0.55957  1.0000
  C   C2031     1.0  0.49553  0.18238  0.54842  1.0000
  C   C2032     1.0  0.66310  0.02647  0.72011  1.0000
  H   H3591     1.0  0.57377  0.09779  0.64988  1.0000
  H   H3592     1.0  0.56730  0.05459  0.65092  1.0000
  H   H3593     1.0  0.63714  0.02727  0.72194  1.0000
  H   H3594     1.0  0.60033  0.31536  0.53381  1.0000
  H   H3595     1.0  0.56914  0.22250  0.57990  1.0000
  H   H3596     1.0  0.74548  0.29094  0.53513  1.0000
  Fe  Fe233     1.0  0.57617  0.04694  0.73008  1.0000
  H   H3597     1.0  0.66792  0.00949  0.67009  1.0000
  H   H3598     1.0  0.54642  0.14622  0.61833  1.0000
  H   H3599     1.0  0.64160  0.01266  0.59925  1.0000
  C   C2033     1.0  0.54511  0.15440  0.62684  1.0000
  H   H3600     1.0  0.52983  0.21777  0.50036  1.0000
  C   C2034     1.0  0.70051  0.26847  0.53613  1.0000
  C   C2035     1.0  0.54134  0.21963  0.65707  1.0000
  H   H3601     1.0  0.50378  0.19227  0.59174  1.0000
  H   H3602     1.0  0.52883  0.22529  0.63093  1.0000
  H   H3603     1.0  0.56697  0.21054  0.56666  1.0000
  H   H3604     1.0  0.50386  0.31823  0.57611  1.0000
  C   C2036     1.0  0.66840  0.00627  0.69628  1.0000
  H   H3605     1.0  0.62485  0.26062  0.54801  1.0000
  C   C2037     1.0  0.49609  0.21074  0.53294  1.0000
  H   H3606     1.0  0.75219  0.28116  0.56819  1.0000
  H   H3607     1.0  0.57006  0.09750  0.68643  1.0000
  C   C2038     1.0  0.71227  0.27240  0.54478  1.0000
  C   C2039     1.0  0.55333  0.30991  0.58015  1.0000
  H   H3608     1.0  0.64099  0.05147  0.70251  1.0000
  C   C2040     1.0  0.54196  0.17247  0.61756  1.0000
  H   H3609     1.0  0.64221  0.03302  0.56608  1.0000
  S   S460      1.0  0.49986  0.27333  0.50719  1.0000
  H   H3610     1.0  0.49984  0.22334  0.59146  1.0000
  H   H3611     1.0  0.55100  0.18122  0.63361  1.0000
  N   N111      1.0  0.53492  0.20272  0.62181  1.0000
  C   C2041     1.0  0.52081  0.12341  0.69110  1.0000
  H   H3612     1.0  0.69706  0.31411  0.49556  1.0000
  H   H3613     1.0  0.72804  0.31694  0.53186  1.0000
  H   H3614     1.0  0.56124  0.20109  0.61199  1.0000
  C   C2042     1.0  0.51921  0.20646  0.61547  1.0000
  H   H3615     1.0  0.70560  0.30125  0.52085  1.0000
  H   H3616     1.0  0.55113  0.21623  0.66434  1.0000
  H   H3617     1.0  0.51896  0.19523  0.52153  1.0000
  H   H3618     1.0  0.52942  0.18101  0.64009  1.0000
  H   H3619     1.0  0.55304  0.17385  0.60751  1.0000
  N   N112      1.0  0.62813  0.27777  0.49669  1.0000
  H   H3620     1.0  0.53459  0.15203  0.63735  1.0000
  H   H3621     1.0  0.69274  0.28002  0.53041  1.0000
  H   H3622     1.0  0.50595  0.23042  0.62208  1.0000
  H   H3623     1.0  0.61443  0.27613  0.52205  1.0000
  H   H3624     1.0  0.57702  0.20028  0.58365  1.0000
  H   H3625     1.0  0.55976  0.99478  0.70818  1.0000
  H   H3626     1.0  0.52089  0.04849  0.68944  1.0000
  H   H3627     1.0  0.65267  0.26363  0.51694  1.0000
  C   C2043     1.0  0.61043  0.99893  0.71091  1.0000
  C   C2044     1.0  0.58192  0.06185  0.62683  1.0000
  C   C2045     1.0  0.51008  0.20693  0.51790  1.0000
  H   H3628     1.0  0.50235  0.14727  0.55308  1.0000
  H   H3629     1.0  0.53026  0.06884  0.65481  1.0000
  H   H3630     1.0  0.59243  0.05123  0.62908  1.0000
  H   H3631     1.0  0.74090  0.28648  0.51040  1.0000
  H   H3632     1.0  0.73727  0.29683  0.57800  1.0000
  C   C2046     1.0  0.57167  0.06588  0.64331  1.0000
  H   H3633     1.0  0.50338  0.12340  0.64920  1.0000
  H   H3634     1.0  0.51981  0.20899  0.64481  1.0000
  C   C2047     1.0  0.56584  0.09870  0.66223  1.0000
  C   C2048     1.0  0.63057  0.02848  0.57205  1.0000
  C   C2049     1.0  0.63357  0.06172  0.67945  1.0000
  H   H3635     1.0  0.50448  0.17625  0.53870  1.0000
  C   C2050     1.0  0.55447  0.08593  0.66855  1.0000
  H   H3636     1.0  0.50748  0.15352  0.56919  1.0000
  C   C2051     1.0  0.53513  0.99357  0.72344  1.0000
  H   H3637     1.0  0.61077  0.99765  0.69835  1.0000
  C   C2052     1.0  0.70393  0.30397  0.48967  1.0000
  H   H3638     1.0  0.61533  0.02311  0.70232  1.0000
  C   C2053     1.0  0.68894  0.25782  0.54838  1.0000
  C   C2054     1.0  0.55686  0.08079  0.64081  1.0000
  C   C2055     1.0  0.53543  0.07150  0.66413  1.0000
  H   H3639     1.0  0.62487  0.07251  0.68403  1.0000
  H   H3640     1.0  0.64555  0.06533  0.67281  1.0000
  H   H3641     1.0  0.62813  0.05844  0.67077  1.0000
  H   H3642     1.0  0.67766  0.01391  0.69435  1.0000
  C   C2056     1.0  0.52101  0.07461  0.67905  1.0000
  N   N113      1.0  0.54512  0.08499  0.65641  1.0000
  C   C2057     1.0  0.61422  0.29141  0.49107  1.0000
  H   H3643     1.0  0.62933  0.28842  0.51626  1.0000
  S   S461      1.0  0.63567  0.31838  0.52054  1.0000
  H   H3644     1.0  0.70423  0.27790  0.55534  1.0000
  H   H3645     1.0  0.51164  0.08596  0.67571  1.0000
  H   H3646     1.0  0.68145  0.26408  0.55855  1.0000
  H   H3647     1.0  0.54035  0.21784  0.58550  1.0000
  C   C2058     1.0  0.64486  0.28107  0.48701  1.0000
  S   S462      1.0  0.49870  0.16520  0.64538  1.0000
  H   H3648     1.0  0.52627  0.10588  0.66355  1.0000
  C   C2059     1.0  0.52190  0.10259  0.64101  1.0000
  H   H3649     1.0  0.63817  0.25025  0.52230  1.0000
  C   C2060     1.0  0.62715  0.27684  0.51466  1.0000
  H   H3650     1.0  0.56195  0.09167  0.63299  1.0000
  H   H3651     1.0  0.55002  0.07788  0.63302  1.0000
  C   C2061     1.0  0.63740  0.26252  0.54111  1.0000
  H   H3652     1.0  0.68535  0.32104  0.65234  1.0000
  H   H3653     1.0  0.51910  0.12923  0.63128  1.0000
  C   C2062     1.0  0.63971  0.26245  0.52293  1.0000
  H   H3654     1.0  0.61838  0.03761  0.66454  1.0000
  H   H3655     1.0  0.58015  0.06858  0.64949  1.0000
  H   H3656     1.0  0.61045  0.25297  0.51825  1.0000
  H   H3657     1.0  0.55812  0.11145  0.66150  1.0000
  H   H3658     1.0  0.72356  0.27924  0.51046  1.0000
  H   H3659     1.0  0.71972  0.30186  0.55806  1.0000
  H   H3660     1.0  0.54378  0.05970  0.66862  1.0000
  H   H3661     1.0  0.60208  0.28954  0.49928  1.0000
  H   H3662     1.0  0.54036  0.01756  0.72056  1.0000
  H   H3663     1.0  0.69620  0.24563  0.55366  1.0000
  H   H3664     1.0  0.62127  0.22922  0.50420  1.0000
  H   H3665     1.0  0.58588  0.08395  0.67452  1.0000
  S   S463      1.0  0.50801  0.26596  0.58541  1.0000
  C   C2063     1.0  0.50852  0.09996  0.70628  1.0000
  H   H3666     1.0  0.54571  0.08943  0.67978  1.0000
  C   C2064     1.0  0.54925  0.20836  0.60872  1.0000
  C   C2065     1.0  0.61069  0.25522  0.50490  1.0000
  S   S464      1.0  0.63782  0.00747  0.65482  1.0000
  C   C2066     1.0  0.61025  0.23889  0.50132  1.0000
  C   C2067     1.0  0.71305  0.30087  0.52968  1.0000
  H   H3667     1.0  0.74871  0.30258  0.55723  1.0000
  N   N114      1.0  0.72353  0.28375  0.53399  1.0000
  C   C2068     1.0  0.57736  0.09630  0.67386  1.0000
  H   H3668     1.0  0.54123  0.11118  0.64554  1.0000
  H   H3669     1.0  0.52413  0.98903  0.72360  1.0000
  H   H3670     1.0  0.54677  0.29591  0.55909  1.0000
  H   H3671     1.0  0.59916  0.26415  0.50236  1.0000
  H   H3672     1.0  0.75572  0.26353  0.49394  1.0000
  C   C2069     1.0  0.74885  0.25482  0.50355  1.0000
  C   C2070     1.0  0.52158  0.10815  0.70237  1.0000
  C   C2071     1.0  0.62630  0.26174  0.49408  1.0000
  H   H3673     1.0  0.54601  0.19503  0.65340  1.0000
  H   H3674     1.0  0.52598  0.01764  0.70859  1.0000
  H   H3675     1.0  0.64056  0.00431  0.56697  1.0000
  H   H3676     1.0  0.67460  0.01670  0.72086  1.0000
  H   H3677     1.0  0.58705  0.07263  0.61887  1.0000
  H   H3678     1.0  0.59732  0.00338  0.71676  1.0000
  H   H3679     1.0  0.64326  0.99263  0.70970  1.0000
  H   H3680     1.0  0.68031  0.25574  0.54193  1.0000
  H   H3681     1.0  0.63909  0.27442  0.54243  1.0000
  C   C2072     1.0  0.54514  0.20770  0.64554  1.0000
  H   H3682     1.0  0.53092  0.17463  0.61233  1.0000
  C   C2073     1.0  0.51209  0.06021  0.68562  1.0000
  C   C2074     1.0  0.49593  0.22747  0.60331  1.0000
  H   H3683     1.0  0.50893  0.08831  0.71514  1.0000
  H   H3684     1.0  0.54015  0.31025  0.53071  1.0000
  S   S465      1.0  0.77714  0.28612  0.49430  1.0000
  H   H3685     1.0  0.62380  0.04467  0.70061  1.0000
  C   C2075     1.0  0.73251  0.27815  0.51813  1.0000
  H   H3686     1.0  0.52139  0.20128  0.60450  1.0000
  H   H3687     1.0  0.70360  0.30411  0.54062  1.0000
  C   C2076     1.0  0.63917  0.00528  0.70238  1.0000
  H   H3688     1.0  0.58227  0.31038  0.51829  1.0000
  C   C2077     1.0  0.50539  0.31618  0.58893  1.0000
  H   H3689     1.0  0.55977  0.29614  0.60404  1.0000
  H   H3690     1.0  0.50211  0.06262  0.69656  1.0000
  H   H3691     1.0  0.56387  0.30238  0.57270  1.0000
  C   C2078     1.0  0.64925  0.01906  0.71818  1.0000
  H   H3692     1.0  0.62235  0.00586  0.58353  1.0000
  H   H3693     1.0  0.61720  0.00605  0.61376  1.0000
  S   S466      1.0  0.56652  0.02503  0.73040  1.0000
  N   N115      1.0  0.53726  0.30496  0.58175  1.0000
  C   C2079     1.0  0.67206  0.99962  0.68037  1.0000
  H   H3694     1.0  0.58456  0.30638  0.58696  1.0000
  H   H3695     1.0  0.69786  0.00233  0.67248  1.0000
  C   C2080     1.0  0.64600  0.00429  0.59035  1.0000
  C   C2081     1.0  0.53064  0.31991  0.53642  1.0000
  H   H3696     1.0  0.50283  0.30391  0.59577  1.0000
  H   H3697     1.0  0.65271  0.99286  0.62052  1.0000
  H   H3698     1.0  0.61898  0.01283  0.72279  1.0000
  C   C2082     1.0  0.49715  0.15255  0.56430  1.0000
  H   H3699     1.0  0.50349  0.18482  0.55540  1.0000
  H   H3700     1.0  0.64909  0.00726  0.72762  1.0000
  H   H3701     1.0  0.62736  0.31225  0.48371  1.0000
  C   C2083     1.0  0.52306  0.31738  0.58928  1.0000
  H   H3702     1.0  0.54820  0.31703  0.60410  1.0000
  H   H3703     1.0  0.59654  0.99541  0.63753  1.0000
  H   H3704     1.0  0.51936  0.01600  0.73064  1.0000
  H   H3705     1.0  0.51823  0.31688  0.53917  1.0000
  H   H3706     1.0  0.67662  0.99998  0.59813  1.0000
  C   C2084     1.0  0.57415  0.31473  0.59352  1.0000
  H   H3707     1.0  0.62662  0.99327  0.63048  1.0000
  H   H3708     1.0  0.61072  0.99094  0.66240  1.0000
  H   H3709     1.0  0.67137  0.99548  0.70639  1.0000
  C   C2085     1.0  0.62061  0.99314  0.62065  1.0000
  H   H3710     1.0  0.66554  0.98942  0.68270  1.0000
  H   H3711     1.0  0.58934  0.31963  0.48898  1.0000
  H   H3712     1.0  0.55479  0.04949  0.78442  1.0000
  Fe  Fe234     1.0  0.98127  0.28329  0.79562  1.0000
  C   C2086     1.0  0.78998  0.08200  0.93308  1.0000
  Fe  Fe235     1.0  0.63101  0.00426  0.80726  1.0000
  S   S467      1.0  0.65599  0.01069  0.79773  1.0000
  S   S468      1.0  0.60867  0.02520  0.80696  1.0000
  H   H3713     1.0  0.79285  0.09153  0.93788  1.0000
  C   C2087     1.0  0.98968  0.14810  0.80388  1.0000
  C   C2088     1.0  0.84186  0.26375  0.90197  1.0000
  Fe  Fe236     1.0  0.89947  0.19528  0.91720  1.0000
  S   S469      1.0  0.89905  0.20819  0.89101  1.0000
  S   S470      1.0  0.87758  0.18413  0.93279  1.0000
  Fe  Fe237     1.0  0.93359  0.20288  0.91470  1.0000
  S   S471      1.0  0.93513  0.21634  0.88835  1.0000
  S   S472      1.0  0.95561  0.19831  0.92660  1.0000
  Fe  Fe238     1.0  0.90823  0.22754  0.89667  1.0000
  S   S473      1.0  0.89457  0.25362  0.88898  1.0000
  Fe  Fe239     1.0  0.92571  0.19558  0.88562  1.0000
  S   S474      1.0  0.93668  0.18411  0.86362  1.0000
  S   S475      1.0  0.90710  0.21562  0.92342  1.0000
  S   S476      1.0  0.92570  0.18107  0.91151  1.0000
  Fe  Fe240     1.0  0.94487  0.29061  0.81056  1.0000
  S   S477      1.0  0.95950  0.30028  0.78555  1.0000
  S   S478      1.0  0.91961  0.28553  0.81417  1.0000
  Fe  Fe241     1.0  0.96959  0.29359  0.82836  1.0000
  N   N116      1.0  0.66623  0.20326  0.96650  1.0000
  C   C2089     1.0  0.59221  0.04839  0.76494  1.0000
  C   C2090     1.0  0.55957  0.00653  0.79758  1.0000
  H   H3714     1.0  0.56513  0.99463  0.82775  1.0000
  S   S479      1.0  0.96633  0.27239  0.81988  1.0000
  H   H3715     1.0  0.73226  0.11710  0.94572  1.0000
  H   H3716     1.0  0.97236  0.20159  0.85848  1.0000
  C   C2091     1.0  0.93556  0.22320  0.82672  1.0000
  C   C2092     1.0  0.68774  0.21945  0.96675  1.0000
  S   S480      1.0  0.62805  0.12257  0.95864  1.0000
  S   S481      1.0  0.65335  0.15113  0.96539  1.0000
  Fe  Fe242     1.0  0.80837  0.15804  0.90937  1.0000
  S   S482      1.0  0.81444  0.13050  0.91217  1.0000
  S   S483      1.0  0.82842  0.17244  0.89562  1.0000
  Fe  Fe243     1.0  0.77238  0.15867  0.92659  1.0000
  S   S484      1.0  0.77555  0.13109  0.93146  1.0000
  S   S485      1.0  0.74717  0.17532  0.93260  1.0000
  Fe  Fe244     1.0  0.79952  0.13022  0.93779  1.0000
  S   S486      1.0  0.80944  0.10976  0.95738  1.0000
  Fe  Fe245     1.0  0.79010  0.13339  0.90549  1.0000
  S   S487      1.0  0.78877  0.11669  0.88989  1.0000
  S   S488      1.0  0.79502  0.15765  0.93573  1.0000
  S   S489      1.0  0.78541  0.16113  0.89989  1.0000
  Fe  Fe246     1.0  0.71095  0.04667  0.88586  1.0000
  S   S490      1.0  0.69425  0.07037  0.89192  1.0000
  S   S491      1.0  0.71198  0.04065  0.86106  1.0000
  Fe  Fe247     1.0  0.72368  0.03873  0.91809  1.0000
  S   S492      1.0  0.70761  0.06143  0.92635  1.0000
  S   S493      1.0  0.74030  0.02021  0.93414  1.0000
  Fe  Fe248     1.0  0.68807  0.05551  0.91756  1.0000
  S   S494      1.0  0.66159  0.05746  0.93144  1.0000
  Fe  Fe249     1.0  0.71547  0.07425  0.90007  1.0000
  S   S495      1.0  0.71895  0.10013  0.89711  1.0000
  S   S496      1.0  0.70339  0.03148  0.91123  1.0000
  S   S497      1.0  0.73301  0.05182  0.89203  1.0000
  C   C2093     1.0  0.54209  0.99232  0.76582  1.0000
  H   H3717     1.0  0.67071  0.03167  0.98102  1.0000
  H   H3718     1.0  0.84361  0.14326  0.95292  1.0000
  C   C2094     1.0  0.73752  0.03590  0.95982  1.0000
  C   C2095     1.0  0.74318  0.02149  0.95335  1.0000
  H   H3719     1.0  0.59630  0.99163  0.83936  1.0000
  C   C2096     1.0  0.95521  0.26083  0.78198  1.0000
  H   H3720     1.0  0.85987  0.21359  0.95000  1.0000
  H   H3721     1.0  0.73103  0.04704  0.95286  1.0000
  C   C2097     1.0  0.70330  0.22551  0.95617  1.0000
  H   H3722     1.0  0.90925  0.30946  0.86930  1.0000
  H   H3723     1.0  0.99420  0.18166  0.90919  1.0000
  H   H3724     1.0  0.96044  0.29220  0.92179  1.0000
  C   C2098     1.0  0.68112  0.21064  0.95721  1.0000
  H   H3725     1.0  0.82041  0.28433  0.90395  1.0000
  C   C2099     1.0  0.65596  0.19011  0.93089  1.0000
  H   H3726     1.0  0.79922  0.05256  0.95371  1.0000
  C   C2100     1.0  0.74108  0.10888  0.95338  1.0000
  H   H3727     1.0  0.96011  0.20018  0.83574  1.0000
  C   C2101     1.0  0.76473  0.08390  0.95500  1.0000
  C   C2102     1.0  0.76939  0.11165  0.89269  1.0000
  C   C2103     1.0  0.76856  0.09840  0.88654  1.0000
  C   C2104     1.0  0.75320  0.09435  0.88836  1.0000
  C   C2105     1.0  0.73857  0.10372  0.89610  1.0000
  C   C2106     1.0  0.73942  0.11695  0.90226  1.0000
  C   C2107     1.0  0.75479  0.12081  0.90071  1.0000
  H   H3728     1.0  0.77980  0.09132  0.88026  1.0000
  H   H3729     1.0  0.75262  0.08432  0.88333  1.0000
  H   H3730     1.0  0.72817  0.12433  0.90817  1.0000
  H   H3731     1.0  0.75529  0.13110  0.90541  1.0000
  C   C2108     1.0  0.63764  0.10393  0.95217  1.0000
  C   C2109     1.0  0.65433  0.09660  0.95237  1.0000
  C   C2110     1.0  0.66202  0.08257  0.94553  1.0000
  C   C2111     1.0  0.65275  0.07540  0.93935  1.0000
  C   C2112     1.0  0.63595  0.08242  0.93974  1.0000
  C   C2113     1.0  0.62851  0.09684  0.94580  1.0000
  H   H3732     1.0  0.66140  0.10201  0.95733  1.0000
  H   H3733     1.0  0.67501  0.07723  0.94518  1.0000
  H   H3734     1.0  0.62874  0.07688  0.93503  1.0000
  H   H3735     1.0  0.61561  0.10245  0.94565  1.0000
  C   C2114     1.0  0.71066  0.14396  0.96593  1.0000
  C   C2115     1.0  0.72636  0.14167  0.96913  1.0000
  C   C2116     1.0  0.73756  0.15130  0.95889  1.0000
  C   C2117     1.0  0.73288  0.16365  0.94567  1.0000
  C   C2118     1.0  0.71688  0.16646  0.94280  1.0000
  C   C2119     1.0  0.70584  0.15639  0.95277  1.0000
  H   H3736     1.0  0.77844  0.13114  0.96769  1.0000
  H   H3737     1.0  0.74987  0.14909  0.96116  1.0000
  H   H3738     1.0  0.71334  0.17591  0.93244  1.0000
  H   H3739     1.0  0.69387  0.15789  0.95004  1.0000
  C   C2120     1.0  0.86390  0.18090  0.92245  1.0000
  C   C2121     1.0  0.84861  0.17704  0.93145  1.0000
  C   C2122     1.0  0.83761  0.17424  0.92344  1.0000
  C   C2123     1.0  0.84176  0.17560  0.90632  1.0000
  C   C2124     1.0  0.85689  0.17974  0.89734  1.0000
  C   C2125     1.0  0.86805  0.18206  0.90540  1.0000
  H   H3740     1.0  0.84532  0.17606  0.94467  1.0000
  H   H3741     1.0  0.82594  0.17111  0.93048  1.0000
  H   H3742     1.0  0.86018  0.18078  0.88410  1.0000
  H   H3743     1.0  0.87994  0.18450  0.89839  1.0000
  C   C2126     1.0  0.90142  0.26153  0.86790  1.0000
  C   C2127     1.0  0.91807  0.25695  0.86015  1.0000
  C   C2128     1.0  0.92373  0.26434  0.84364  1.0000
  C   C2129     1.0  0.91262  0.27584  0.83467  1.0000
  C   C2130     1.0  0.89583  0.27990  0.84224  1.0000
  C   C2131     1.0  0.89031  0.27303  0.85894  1.0000
  H   H3744     1.0  0.92669  0.24812  0.86698  1.0000
  H   H3745     1.0  0.93665  0.26098  0.83784  1.0000
  H   H3746     1.0  0.88720  0.28875  0.83531  1.0000
  H   H3747     1.0  0.87742  0.27657  0.86489  1.0000
  C   C2132     1.0  0.95629  0.17233  0.86633  1.0000
  C   C2133     1.0  0.96616  0.16286  0.85493  1.0000
  C   C2134     1.0  0.96221  0.17258  0.87986  1.0000
  H   H3748     1.0  0.96159  0.16248  0.84454  1.0000
  H   H3749     1.0  0.95500  0.18028  0.88840  1.0000
  H   H3750     1.0  0.92032  0.22707  0.80848  1.0000
  H   H3751     1.0  0.97759  0.14899  0.80094  1.0000
  C   C2135     1.0  0.96459  0.21835  0.94096  1.0000
  C   C2136     1.0  0.96646  0.21333  0.92629  1.0000
  H   H3752     1.0  0.55332  0.99668  0.76374  1.0000
  H   H3753     1.0  0.54868  0.00788  0.80799  1.0000
  H   H3754     1.0  0.95523  0.21455  0.95160  1.0000
  H   H3755     1.0  0.98387  0.21748  0.85442  1.0000
  C   C2137     1.0  0.79250  0.10622  0.97348  1.0000
  C   C2138     1.0  0.68184  0.01109  0.84707  1.0000
  C   C2139     1.0  0.68019  0.01140  0.86370  1.0000
  C   C2140     1.0  0.68904  0.02059  0.86820  1.0000
  C   C2141     1.0  0.69986  0.02948  0.85609  1.0000
  C   C2142     1.0  0.70151  0.02915  0.83944  1.0000
  H   H3756     1.0  0.98227  0.16349  0.89268  1.0000
  H   H3757     1.0  0.68767  0.02063  0.88105  1.0000
  H   H3758     1.0  0.93896  0.19123  0.82165  1.0000
  C   C2143     1.0  0.55055  0.03763  0.78832  1.0000
  C   C2144     1.0  0.57666  0.99260  0.81810  1.0000
  H   H3759     1.0  0.95294  0.28584  0.89087  1.0000
  C   C2145     1.0  0.59399  0.04453  0.78141  1.0000
  C   C2146     1.0  0.60739  0.03230  0.78621  1.0000
  C   C2147     1.0  0.61950  0.02483  0.77441  1.0000
  H   H3760     1.0  0.56964  0.02577  0.80181  1.0000
  C   C2148     1.0  0.75263  0.09570  0.94433  1.0000
  H   H3761     1.0  0.58469  0.05052  0.79049  1.0000
  H   H3762     1.0  0.63014  0.01580  0.77782  1.0000
  C   C2149     1.0  0.98790  0.15410  0.87058  1.0000
  N   N117      1.0  0.57267  0.99150  0.80245  1.0000
  H   H3763     1.0  0.84202  0.12298  0.88256  1.0000
  N   N118      1.0  0.63952  0.05238  0.83120  1.0000
  C   C2150     1.0  0.62481  0.04422  0.83835  1.0000
  C   C2151     1.0  0.63319  0.07050  0.82460  1.0000
  C   C2152     1.0  0.65092  0.04405  0.81769  1.0000
  C   C2153     1.0  0.64914  0.05071  0.84409  1.0000
  C   C2154     1.0  0.63908  0.05723  0.85980  1.0000
  C   C2155     1.0  0.62848  0.02615  0.84823  1.0000
  C   C2156     1.0  0.66585  0.05205  0.80756  1.0000
  C   C2157     1.0  0.62509  0.07459  0.80947  1.0000
  C   C2158     1.0  0.61902  0.09323  0.80399  1.0000
  C   C2159     1.0  0.64991  0.05354  0.87241  1.0000
  H   H3764     1.0  0.98103  0.21356  0.90162  1.0000
  C   C2160     1.0  0.67577  0.04336  0.79351  1.0000
  H   H3765     1.0  0.61905  0.04388  0.82833  1.0000
  H   H3766     1.0  0.61484  0.05160  0.84643  1.0000
  H   H3767     1.0  0.62364  0.07606  0.83437  1.0000
  H   H3768     1.0  0.64328  0.07746  0.82139  1.0000
  H   H3769     1.0  0.64381  0.04314  0.80900  1.0000
  H   H3770     1.0  0.65637  0.03102  0.82297  1.0000
  H   H3771     1.0  0.65542  0.03761  0.84794  1.0000
  H   H3772     1.0  0.65939  0.05751  0.83884  1.0000
  H   H3773     1.0  0.62827  0.05139  0.86588  1.0000
  H   H3774     1.0  0.63453  0.07083  0.85669  1.0000
  H   H3775     1.0  0.63735  0.01815  0.84019  1.0000
  H   H3776     1.0  0.63377  0.02513  0.85896  1.0000
  H   H3777     1.0  0.67448  0.05111  0.81549  1.0000
  H   H3778     1.0  0.66175  0.06527  0.80194  1.0000
  H   H3779     1.0  0.63400  0.07016  0.79877  1.0000
  H   H3780     1.0  0.61421  0.06880  0.81247  1.0000
  H   H3781     1.0  0.62955  0.09963  0.80034  1.0000
  H   H3782     1.0  0.61330  0.09579  0.79317  1.0000
  H   H3783     1.0  0.60951  0.09828  0.81406  1.0000
  H   H3784     1.0  0.64271  0.05883  0.88331  1.0000
  H   H3785     1.0  0.65400  0.03997  0.87668  1.0000
  H   H3786     1.0  0.66105  0.05905  0.86699  1.0000
  H   H3787     1.0  0.75639  0.99612  0.95745  1.0000
  H   H3788     1.0  0.67828  0.21991  0.94596  1.0000
  S   S498      1.0  0.98663  0.30277  0.80496  1.0000
  H   H3789     1.0  0.68062  0.03007  0.79843  1.0000
  H   H3790     1.0  0.66789  0.04445  0.78476  1.0000
  H   H3791     1.0  0.68648  0.04915  0.78666  1.0000
  N   N119      1.0  0.87475  0.12703  0.91005  1.0000
  C   C2161     1.0  0.88662  0.13802  0.89982  1.0000
  C   C2162     1.0  0.86110  0.12932  0.90110  1.0000
  C   C2163     1.0  0.86678  0.13291  0.92599  1.0000
  C   C2164     1.0  0.88318  0.10898  0.91420  1.0000
  C   C2165     1.0  0.89861  0.10259  0.90137  1.0000
  C   C2166     1.0  0.89915  0.14017  0.90876  1.0000
  C   C2167     1.0  0.85197  0.12528  0.93715  1.0000
  C   C2168     1.0  0.86638  0.12559  0.88360  1.0000
  C   C2169     1.0  0.85149  0.13035  0.87541  1.0000
  C   C2170     1.0  0.90397  0.08375  0.90575  1.0000
  C   C2171     1.0  0.91293  0.14811  0.89655  1.0000
  C   C2172     1.0  0.84712  0.12963  0.95414  1.0000
  H   H3792     1.0  0.87956  0.15064  0.89530  1.0000
  H   H3793     1.0  0.89377  0.13372  0.88841  1.0000
  H   H3794     1.0  0.85225  0.12122  0.90822  1.0000
  H   H3795     1.0  0.85368  0.14226  0.90011  1.0000
  H   H3796     1.0  0.86226  0.14652  0.92334  1.0000
  H   H3797     1.0  0.87610  0.13046  0.93368  1.0000
  H   H3798     1.0  0.88753  0.10607  0.92594  1.0000
  H   H3799     1.0  0.87407  0.10102  0.91667  1.0000
  H   H3800     1.0  0.90926  0.10776  0.90114  1.0000
  H   H3801     1.0  0.89635  0.10614  0.88872  1.0000
  H   H3802     1.0  0.89271  0.14845  0.91755  1.0000
  H   H3803     1.0  0.90490  0.12812  0.91581  1.0000
  H   H3804     1.0  0.85501  0.11160  0.93889  1.0000
  H   H3805     1.0  0.84085  0.13029  0.93159  1.0000
  H   H3806     1.0  0.87572  0.13259  0.87539  1.0000
  H   H3807     1.0  0.87133  0.11214  0.88435  1.0000
  H   H3808     1.0  0.84570  0.14373  0.87448  1.0000
  H   H3809     1.0  0.85558  0.12788  0.86276  1.0000
  H   H3810     1.0  0.78368  0.08929  0.92290  1.0000
  H   H3811     1.0  0.90690  0.07960  0.91821  1.0000
  H   H3812     1.0  0.89399  0.07789  0.90545  1.0000
  H   H3813     1.0  0.91526  0.07957  0.89663  1.0000
  H   H3814     1.0  0.90764  0.16056  0.88975  1.0000
  H   H3815     1.0  0.92161  0.14956  0.90332  1.0000
  H   H3816     1.0  0.92012  0.14025  0.88756  1.0000
  S   S499      1.0  0.97276  0.29246  0.85362  1.0000
  Fe  Fe250     1.0  0.64010  0.13008  0.97466  1.0000
  H   H3817     1.0  0.69492  0.18050  0.97372  1.0000
  H   H3818     1.0  0.64685  0.04312  0.73582  1.0000
  N   N120      1.0  0.84037  0.23293  0.90639  1.0000
  C   C2173     1.0  0.85604  0.22957  0.89347  1.0000
  C   C2174     1.0  0.84419  0.22720  0.92345  1.0000
  C   C2175     1.0  0.82884  0.22282  0.90534  1.0000
  C   C2176     1.0  0.95099  0.18181  0.79975  1.0000
  C   C2177     1.0  0.95095  0.19112  0.81258  1.0000
  C   C2178     1.0  0.85399  0.23457  0.87531  1.0000
  H   H3819     1.0  0.79770  0.21845  0.90468  1.0000
  C   C2179     1.0  0.86086  0.22952  0.92544  1.0000
  C   C2180     1.0  0.69255  0.02005  0.83493  1.0000
  C   C2181     1.0  0.92112  0.23298  0.81811  1.0000
  C   C2182     1.0  0.87077  0.23146  0.86342  1.0000
  H   H3820     1.0  0.59481  0.00060  0.78845  1.0000
  H   H3821     1.0  0.86188  0.21616  0.89601  1.0000
  H   H3822     1.0  0.86554  0.23586  0.89404  1.0000
  H   H3823     1.0  0.83393  0.23316  0.93247  1.0000
  H   H3824     1.0  0.84480  0.21362  0.92788  1.0000
  H   H3825     1.0  0.83563  0.20983  0.90510  1.0000
  H   H3826     1.0  0.82437  0.22760  0.89360  1.0000
  H   H3827     1.0  0.70993  0.03587  0.82997  1.0000
  H   H3828     1.0  0.97345  0.23149  0.95369  1.0000
  Fe  Fe251     1.0  0.54231  0.03861  0.74301  1.0000
  C   C2183     1.0  0.51242  0.99804  0.76811  1.0000
  H   H3829     1.0  0.84621  0.22723  0.87320  1.0000
  H   H3830     1.0  0.84832  0.24792  0.87199  1.0000
  H   H3831     1.0  0.99060  0.19747  0.87999  1.0000
  C   C2184     1.0  0.97782  0.16319  0.88219  1.0000
  H   H3832     1.0  0.87128  0.22050  0.91975  1.0000
  S   S500      1.0  0.67037  0.99909  0.84237  1.0000
  C   C2185     1.0  0.97915  0.21781  0.91282  1.0000
  H   H3833     1.0  0.92267  0.24588  0.81256  1.0000
  H   H3834     1.0  0.85140  0.23538  0.94986  1.0000
  H   H3835     1.0  0.99111  0.15697  0.77101  1.0000
  C   C2186     1.0  0.83160  0.25090  0.90339  1.0000
  H   H3836     1.0  0.57488  0.02350  0.78071  1.0000
  H   H3837     1.0  0.86899  0.23543  0.85052  1.0000
  H   H3838     1.0  0.87916  0.23860  0.86487  1.0000
  H   H3839     1.0  0.87669  0.21807  0.86567  1.0000
  C   C2187     1.0  0.61777  0.02870  0.75811  1.0000
  H   H3840     1.0  0.95741  0.22746  0.84429  1.0000
  C   C2188     1.0  0.61267  0.01929  0.85481  1.0000
  H   H3841     1.0  0.97566  0.23054  0.82867  1.0000
  H   H3842     1.0  0.89437  0.24144  0.82418  1.0000
  H   H3843     1.0  0.87351  0.22778  0.94474  1.0000
  H   H3844     1.0  0.76040  0.05854  0.90535  1.0000
  H   H3845     1.0  0.83628  0.12433  0.96168  1.0000
  H   H3846     1.0  0.80555  0.23448  0.92048  1.0000
  C   C2189     1.0  0.52691  0.00375  0.76566  1.0000
  H   H3847     1.0  0.74844  0.11650  0.95570  1.0000
  H   H3848     1.0  0.90458  0.24012  0.84036  1.0000
  H   H3849     1.0  0.65371  0.19673  0.91844  1.0000
  H   H3850     1.0  0.97137  0.23431  0.80317  1.0000
  H   H3851     1.0  0.76977  0.09151  0.96035  1.0000
  H   H3852     1.0  0.60341  0.02669  0.86330  1.0000
  H   H3853     1.0  0.80548  0.05986  0.92381  1.0000
  H   H3854     1.0  0.67394  0.04843  0.96397  1.0000
  C   C2190     1.0  0.66387  0.19264  0.95627  1.0000
  H   H3855     1.0  0.86327  0.24198  0.91943  1.0000
  H   H3856     1.0  0.66248  0.07036  0.97967  1.0000
  H   H3857     1.0  0.85409  0.26166  0.89338  1.0000
  H   H3858     1.0  0.99063  0.20214  0.84200  1.0000
  C   C2191     1.0  0.65062  0.21672  0.96877  1.0000
  H   H3859     1.0  0.81563  0.06891  0.93381  1.0000
  H   H3860     1.0  0.74768  0.05661  0.92583  1.0000
  H   H3861     1.0  0.79494  0.06983  0.96295  1.0000
  C   C2192     1.0  0.60403  0.04021  0.75336  1.0000
  H   H3862     1.0  0.82061  0.25314  0.91353  1.0000
  H   H3863     1.0  0.96303  0.18092  0.79065  1.0000
  H   H3864     1.0  0.79097  0.21169  0.92665  1.0000
  H   H3865     1.0  0.53848  0.98905  0.73563  1.0000
  C   C2193     1.0  0.99004  0.22697  0.91420  1.0000
  C   C2194     1.0  0.78892  0.06186  0.95920  1.0000
  C   C2195     1.0  0.81310  0.22197  0.91944  1.0000
  C   C2196     1.0  0.90453  0.23401  0.83054  1.0000
  H   H3866     1.0  0.81584  0.09349  0.90974  1.0000
  H   H3867     1.0  0.70457  0.03562  0.95795  1.0000
  C   C2197     1.0  0.75471  0.00720  0.97758  1.0000
  H   H3868     1.0  0.70770  0.05204  0.97627  1.0000
  H   H3869     1.0  0.94071  0.18815  0.79321  1.0000
  C   C2198     1.0  0.99354  0.28786  0.85517  1.0000
  H   H3870     1.0  0.98962  0.14653  0.84819  1.0000
  S   S501      1.0  0.69798  0.13032  0.97823  1.0000
  H   H3871     1.0  0.70058  0.23435  0.94468  1.0000
  H   H3872     1.0  0.68466  0.02778  0.94609  1.0000
  H   H3873     1.0  0.76719  0.04200  0.92160  1.0000
  C   C2199     1.0  0.66015  0.20176  0.93905  1.0000
  H   H3874     1.0  0.95640  0.23769  0.86826  1.0000
  Fe  Fe252     1.0  0.96344  0.31881  0.79739  1.0000
  C   C2200     1.0  0.96473  0.21080  0.82668  1.0000
  H   H3875     1.0  0.50065  0.00678  0.76813  1.0000
  C   C2201     1.0  0.98204  0.15387  0.85698  1.0000
  C   C2202     1.0  0.97958  0.20984  0.84863  1.0000
  H   H3876     1.0  0.67118  0.20627  0.93080  1.0000
  H   H3877     1.0  0.69163  0.20105  0.95240  1.0000
  C   C2203     1.0  0.95763  0.23592  0.80587  1.0000
  H   H3878     1.0  0.82641  0.25419  0.89211  1.0000
  H   H3879     1.0  0.89433  0.29648  0.87927  1.0000
  H   H3880     1.0  0.71347  0.99526  0.79467  1.0000
  C   C2204     1.0  0.86137  0.22638  0.94365  1.0000
  H   H3881     1.0  0.61570  0.00630  0.86170  1.0000
  H   H3882     1.0  0.83098  0.28267  0.88297  1.0000
  H   H3883     1.0  0.73393  0.10319  0.96540  1.0000
  H   H3884     1.0  0.65367  0.18610  0.96320  1.0000
  H   H3885     1.0  0.65596  0.02298  0.74688  1.0000
  C   C2205     1.0  0.77859  0.11902  0.97571  1.0000
  H   H3886     1.0  0.55454  0.00514  0.78751  1.0000
  H   H3887     1.0  0.96606  0.20763  0.79577  1.0000
  H   H3888     1.0  0.69416  0.01979  0.82212  1.0000
  H   H3889     1.0  0.68300  0.01045  0.96343  1.0000
  H   H3890     1.0  0.98826  0.27594  0.88084  1.0000
  H   H3891     1.0  0.66844  0.03816  0.73691  1.0000
  H   H3892     1.0  0.69499  0.06244  0.96198  1.0000
  H   H3893     1.0  0.84370  0.26338  0.91433  1.0000
  C   C2206     1.0  0.90116  0.30487  0.88123  1.0000
  H   H3894     1.0  0.97816  0.27525  0.92266  1.0000
  H   H3895     1.0  0.70269  0.01165  0.94927  1.0000
  C   C2207     1.0  0.83271  0.28131  0.89563  1.0000
  H   H3896     1.0  0.75671  0.07707  0.96555  1.0000
  H   H3897     1.0  0.95259  0.24566  0.81331  1.0000
  H   H3898     1.0  0.90203  0.22145  0.83629  1.0000
  H   H3899     1.0  0.84013  0.29028  0.89518  1.0000
  H   H3900     1.0  0.94450  0.21457  0.79622  1.0000
  C   C2208     1.0  0.56501  0.02331  0.79207  1.0000
  H   H3901     1.0  0.63315  0.24791  0.97536  1.0000
  H   H3902     1.0  0.95281  0.26528  0.76931  1.0000
  H   H3903     1.0  0.64455  0.18578  0.93839  1.0000
  Fe  Fe253     1.0  0.66252  0.99372  0.82106  1.0000
  C   C2209     1.0  0.70907  0.08336  0.97099  1.0000
  H   H3904     1.0  0.60718  0.01939  0.84447  1.0000
  Fe  Fe254     1.0  0.67031  0.13571  0.98217  1.0000
  H   H3905     1.0  0.91738  0.30478  0.89638  1.0000
  H   H3906     1.0  0.79992  0.03057  0.97798  1.0000
  H   H3907     1.0  0.90278  0.29151  0.90580  1.0000
  H   H3908     1.0  0.76206  0.07918  0.92014  1.0000
  C   C2210     1.0  0.65821  0.03310  0.73590  1.0000
  H   H3909     1.0  0.97368  0.23474  0.87783  1.0000
  C   C2211     1.0  0.97506  0.22782  0.94219  1.0000
  H   H3910     1.0  0.93807  0.29046  0.90869  1.0000
  C   C2212     1.0  0.91150  0.29575  0.89423  1.0000
  H   H3911     1.0  0.96116  0.18393  0.81895  1.0000
  H   H3912     1.0  0.80881  0.19948  0.91557  1.0000
  H   H3913     1.0  0.67197  0.00449  0.87323  1.0000
  H   H3914     1.0  0.62679  0.02214  0.74940  1.0000
  C   C2213     1.0  0.76068  0.05516  0.91866  1.0000
  H   H3915     1.0  0.64951  0.21247  0.93987  1.0000
  C   C2214     1.0  0.95313  0.24298  0.78864  1.0000
  C   C2215     1.0  0.75186  0.00727  0.96232  1.0000
  N   N121      1.0  0.93514  0.27000  0.90044  1.0000
  C   C2216     1.0  0.94525  0.25532  0.89316  1.0000
  C   C2217     1.0  0.92333  0.26429  0.91637  1.0000
  C   C2218     1.0  0.92489  0.28112  0.88825  1.0000
  C   C2219     1.0  0.94591  0.28000  0.90298  1.0000
  C   C2220     1.0  0.95855  0.27074  0.91401  1.0000
  C   C2221     1.0  0.95737  0.25917  0.87640  1.0000
  C   C2222     1.0  0.92921  0.24703  0.92710  1.0000
  C   C2223     1.0  0.91722  0.24401  0.94379  1.0000
  C   C2224     1.0  0.96576  0.24363  0.86963  1.0000
  H   H3916     1.0  0.93669  0.24843  0.89158  1.0000
  H   H3917     1.0  0.95290  0.24641  0.90161  1.0000
  H   H3918     1.0  0.91962  0.27359  0.92426  1.0000
  H   H3919     1.0  0.91161  0.26332  0.91369  1.0000
  H   H3920     1.0  0.91851  0.27368  0.88425  1.0000
  H   H3921     1.0  0.93291  0.28692  0.87688  1.0000
  H   H3922     1.0  0.96738  0.26032  0.90893  1.0000
  H   H3923     1.0  0.95208  0.26610  0.92674  1.0000
  H   H3924     1.0  0.95100  0.26787  0.86685  1.0000
  H   H3925     1.0  0.96724  0.26430  0.87800  1.0000
  H   H3926     1.0  0.92987  0.23712  0.92077  1.0000
  H   H3927     1.0  0.94163  0.24549  0.92942  1.0000
  H   H3928     1.0  0.91679  0.25306  0.95107  1.0000
  H   H3929     1.0  0.90455  0.24500  0.94210  1.0000
  H   H3930     1.0  0.92151  0.23135  0.95084  1.0000
  H   H3931     1.0  0.75920  0.10227  0.93253  1.0000
  H   H3932     1.0  0.97352  0.24711  0.85719  1.0000
  C   C2225     1.0  0.69542  0.02836  0.96609  1.0000
  H   H3933     1.0  0.97505  0.28823  0.90305  1.0000
  N   N122      1.0  0.66269  0.13482  0.90988  1.0000
  C   C2226     1.0  0.66362  0.11809  0.90675  1.0000
  C   C2227     1.0  0.67035  0.13255  0.92446  1.0000
  C   C2228     1.0  0.64453  0.14278  0.91466  1.0000
  C   C2229     1.0  0.67075  0.14617  0.89490  1.0000
  C   C2230     1.0  0.68568  0.13797  0.88277  1.0000
  C   C2231     1.0  0.65291  0.11809  0.89481  1.0000
  C   C2232     1.0  0.64073  0.15893  0.92104  1.0000
  C   C2233     1.0  0.68813  0.12188  0.92383  1.0000
  C   C2234     1.0  0.69394  0.12008  0.93964  1.0000
  C   C2235     1.0  0.69442  0.15085  0.87005  1.0000
  C   C2236     1.0  0.65794  0.10191  0.88882  1.0000
  C   C2237     1.0  0.62224  0.16693  0.92348  1.0000
  H   H3934     1.0  0.65944  0.10961  0.91854  1.0000
  H   H3935     1.0  0.67663  0.11191  0.90214  1.0000
  H   H3936     1.0  0.67094  0.14471  0.92625  1.0000
  H   H3937     1.0  0.66232  0.12699  0.93600  1.0000
  H   H3938     1.0  0.63783  0.13391  0.92436  1.0000
  H   H3939     1.0  0.63844  0.14586  0.90400  1.0000
  H   H3940     1.0  0.66159  0.15358  0.88722  1.0000
  H   H3941     1.0  0.67486  0.15550  0.89879  1.0000
  H   H3942     1.0  0.68145  0.13118  0.87594  1.0000
  H   H3943     1.0  0.69501  0.12905  0.88917  1.0000
  H   H3944     1.0  0.63965  0.11943  0.90133  1.0000
  H   H3945     1.0  0.65393  0.12846  0.88390  1.0000
  H   H3946     1.0  0.64777  0.16799  0.91225  1.0000
  H   H3947     1.0  0.64403  0.15624  0.93322  1.0000
  H   H3948     1.0  0.68884  0.10921  0.92250  1.0000
  H   H3949     1.0  0.69698  0.12790  0.91361  1.0000
  H   H3950     1.0  0.68585  0.11380  0.95055  1.0000
  H   H3951     1.0  0.70681  0.11257  0.93866  1.0000
  H   H3952     1.0  0.69397  0.13237  0.94147  1.0000
  H   H3953     1.0  0.68568  0.15994  0.86281  1.0000
  H   H3954     1.0  0.69967  0.15741  0.87624  1.0000
  H   H3955     1.0  0.70482  0.14456  0.86143  1.0000
  H   H3956     1.0  0.65752  0.09117  0.89948  1.0000
  H   H3957     1.0  0.64927  0.10180  0.88134  1.0000
  H   H3958     1.0  0.67065  0.10069  0.88097  1.0000
  H   H3959     1.0  0.61813  0.17045  0.91160  1.0000
  H   H3960     1.0  0.61485  0.15824  0.93251  1.0000
  H   H3961     1.0  0.61983  0.17824  0.92840  1.0000
  C   C2238     1.0  0.81482  0.08118  0.90875  1.0000
  H   H3962     1.0  0.74478  0.08869  0.94177  1.0000
  H   H3963     1.0  0.89198  0.31559  0.88543  1.0000
  C   C2239     1.0  0.80202  0.21232  0.91634  1.0000
  H   H3964     1.0  0.54030  0.03822  0.79940  1.0000
  H   H3965     1.0  0.54581  0.03615  0.77816  1.0000
  H   H3966     1.0  0.71337  0.21491  0.95287  1.0000
  C   C2240     1.0  0.80688  0.07174  0.92547  1.0000
  C   C2241     1.0  0.77943  0.05198  0.97518  1.0000
  C   C2242     1.0  0.77238  0.06068  0.94037  1.0000
  H   H3967     1.0  0.58167  0.05752  0.76124  1.0000
  H   H3968     1.0  0.58220  0.00352  0.81587  1.0000
  H   H3969     1.0  0.98975  0.00476  0.77134  1.0000
  H   H3970     1.0  0.76049  0.05813  0.94870  1.0000
  N   N123      1.0  0.95258  0.21990  0.81571  1.0000
  H   H3971     1.0  0.81649  0.21558  0.93149  1.0000
  H   H3972     1.0  0.70779  0.23191  0.96319  1.0000
  S   S502      1.0  0.94669  0.31069  0.82143  1.0000
  H   H3973     1.0  0.80728  0.08289  0.89953  1.0000
  H   H3974     1.0  0.94025  0.24277  0.78878  1.0000
  S   S503      1.0  0.52529  0.02503  0.76392  1.0000
  H   H3975     1.0  0.94625  0.26895  0.78995  1.0000
  H   H3976     1.0  0.71202  0.08397  0.95749  1.0000
  H   H3977     1.0  0.96156  0.23552  0.77973  1.0000
  C   C2243     1.0  0.96863  0.28237  0.91538  1.0000
  H   H3978     1.0  0.85754  0.12446  0.96068  1.0000
  H   H3979     1.0  0.67512  0.18280  0.95392  1.0000
  H   H3980     1.0  0.66637  0.17922  0.92954  1.0000
  C   C2244     1.0  0.95358  0.20892  0.80426  1.0000
  C   C2245     1.0  0.76956  0.06646  0.92244  1.0000
  H   H3981     1.0  0.78098  0.04832  0.94088  1.0000
  H   H3982     1.0  0.60931  0.99966  0.75899  1.0000
  H   H3983     1.0  0.82744  0.07408  0.90434  1.0000
  N   N124      1.0  0.77884  0.07211  0.94657  1.0000
  C   C2246     1.0  0.69111  0.01901  0.95560  1.0000
  S   S504      1.0  0.55263  0.05949  0.74478  1.0000
  H   H3984     1.0  0.78160  0.06622  0.91342  1.0000
  H   H3985     1.0  0.99022  0.16032  0.80553  1.0000
  H   H3986     1.0  0.96801  0.26178  0.78149  1.0000
  C   C2247     1.0  0.96876  0.22107  0.83682  1.0000
  H   H3987     1.0  0.90182  0.31263  0.83600  1.0000
  H   H3988     1.0  0.93230  0.21148  0.83463  1.0000
  H   H3989     1.0  0.94923  0.16909  0.80602  1.0000
  H   H3990     1.0  0.93543  0.23048  0.83562  1.0000
  H   H3991     1.0  0.97678  0.20531  0.81924  1.0000
  H   H3992     1.0  0.97012  0.01093  0.78472  1.0000
  C   C2248     1.0  0.98810  0.23184  0.92903  1.0000
  H   H3993     1.0  0.65157  0.22780  0.95853  1.0000
  H   H3994     1.0  0.91758  0.31425  0.78076  1.0000
  H   H3995     1.0  0.99048  0.13898  0.81571  1.0000
  C   C2249     1.0  0.58839  0.99063  0.78922  1.0000
  H   H3996     1.0  0.92906  0.31103  0.75190  1.0000
  H   H3997     1.0  0.63966  0.21256  0.96799  1.0000
  C   C2250     1.0  0.74044  0.03584  0.97529  1.0000
  H   H3998     1.0  0.57834  0.00321  0.76685  1.0000
  H   H3999     1.0  0.60116  0.99080  0.74705  1.0000
  H   H4000     1.0  0.73009  0.13198  0.97925  1.0000
  H   H4001     1.0  0.99128  0.12449  0.93847  1.0000
  C   C2251     1.0  0.98040  0.00024  0.78220  1.0000
  H   H4002     1.0  0.99177  0.18237  0.75154  1.0000
  H   H4003     1.0  0.70698  0.09604  0.97304  1.0000
  C   C2252     1.0  0.58633  0.99135  0.77168  1.0000
  H   H4004     1.0  0.77186  0.04497  0.97225  1.0000
  H   H4005     1.0  0.94108  0.31825  0.85412  1.0000
  C   C2253     1.0  0.60309  0.98971  0.75954  1.0000
  H   H4006     1.0  0.90351  0.32040  0.80428  1.0000
  H   H4007     1.0  0.64441  0.05016  0.97713  1.0000
  C   C2254     1.0  0.69507  0.05946  0.97537  1.0000
  H   H4008     1.0  0.71796  0.99461  0.85517  1.0000
  H   H4009     1.0  0.68292  0.08551  0.97468  1.0000
  H   H4010     1.0  0.67830  0.23041  0.96999  1.0000
  H   H4011     1.0  0.68021  0.16743  0.97838  1.0000
  S   S505      1.0  0.63691  0.98846  0.83096  1.0000
  C   C2255     1.0  0.67962  0.03977  0.97416  1.0000
  H   H4012     1.0  0.70152  0.01891  0.97545  1.0000
  H   H4013     1.0  0.98624  0.99524  0.79309  1.0000
  H   H4014     1.0  0.96821  0.99286  0.76769  1.0000
  H   H4015     1.0  0.73626  0.04691  0.98024  1.0000
  H   H4016     1.0  0.69123  0.21102  0.97810  1.0000
  H   H4017     1.0  0.71980  0.07556  0.97631  1.0000
  C   C2256     1.0  0.69347  0.07647  0.97939  1.0000
  H   H4018     1.0  0.99004  0.15316  0.92304  1.0000
  H   H4019     1.0  0.98888  0.13789  0.95224  1.0000
  C   C2257     1.0  0.68354  0.17716  0.98233  1.0000
  H   H4020     1.0  0.80356  0.08075  0.98232  1.0000
  S   S506      1.0  0.67762  0.98894  0.76033  1.0000
  S   S507      1.0  0.60211  0.04397  0.73291  1.0000
  Fe  Fe255     1.0  0.69339  0.57841  0.04467  1.0000
  S   S508      1.0  0.71262  0.55599  0.03860  1.0000
  S   S509      1.0  0.66728  0.58376  0.04106  1.0000
  Fe  Fe256     1.0  0.71618  0.59030  0.05837  1.0000
  S   S510      1.0  0.73736  0.56922  0.05340  1.0000
  S   S511      1.0  0.71757  0.60966  0.07060  1.0000
  Fe  Fe257     1.0  0.72986  0.57366  0.02931  1.0000
  S   S512      1.0  0.74832  0.57819  0.00552  1.0000
  Fe  Fe258     1.0  0.71813  0.55362  0.06338  1.0000
  S   S513      1.0  0.72352  0.53057  0.08288  1.0000
  S   S514      1.0  0.71027  0.59623  0.03351  1.0000
  S   S515      1.0  0.69738  0.57452  0.07020  1.0000
  H   H4021     1.0  0.52764  0.36067  0.16753  1.0000
  H   H4022     1.0  0.64511  0.39778  0.20116  1.0000
  H   H4023     1.0  0.77531  0.62856  0.06882  1.0000
  S   S516      1.0  0.57076  0.55692  0.21793  1.0000
  C   C2258     1.0  0.55911  0.51611  0.21397  1.0000
  C   C2259     1.0  0.81417  0.54877  0.01161  1.0000
  H   H4024     1.0  0.57624  0.53585  0.19006  1.0000
  S   S517      1.0  0.55577  0.38848  0.21393  1.0000
  H   H4025     1.0  0.67188  0.57715  0.15372  1.0000
  H   H4026     1.0  0.80801  0.54912  0.02463  1.0000
  Fe  Fe259     1.0  0.56226  0.41324  0.20211  1.0000
  S   S518      1.0  0.58480  0.41652  0.18211  1.0000
  S   S519      1.0  0.53674  0.42581  0.19809  1.0000
  Fe  Fe260     1.0  0.64386  0.50535  0.17826  1.0000
  S   S520      1.0  0.66683  0.48800  0.16817  1.0000
  S   S521      1.0  0.64513  0.52583  0.18907  1.0000
  Fe  Fe261     1.0  0.62067  0.48898  0.17003  1.0000
  S   S522      1.0  0.64180  0.47032  0.15947  1.0000
  S   S523      1.0  0.59398  0.48933  0.17123  1.0000
  Fe  Fe262     1.0  0.65196  0.46854  0.18142  1.0000
  S   S524      1.0  0.66080  0.44370  0.19708  1.0000
  Fe  Fe263     1.0  0.65418  0.49176  0.14730  1.0000
  S   S525      1.0  0.66226  0.49713  0.11956  1.0000
  S   S526      1.0  0.62981  0.48570  0.19294  1.0000
  S   S527      1.0  0.63230  0.51063  0.15654  1.0000
  C   C2260     1.0  0.83920  0.55198  0.01996  1.0000
  H   H4027     1.0  0.56278  0.52692  0.21566  1.0000
  H   H4028     1.0  0.81991  0.53547  0.01166  1.0000
  C   C2261     1.0  0.55422  0.35796  0.16019  1.0000
  Fe  Fe264     1.0  0.53282  0.43211  0.22277  1.0000
  C   C2262     1.0  0.82903  0.64566  0.03982  1.0000
  H   H4029     1.0  0.66844  0.55395  0.00981  1.0000
  C   C2263     1.0  0.82843  0.55823  0.00708  1.0000
  S   S528      1.0  0.97580  0.62473  0.17545  1.0000
  C   C2264     1.0  0.79937  0.64640  0.04932  1.0000
  H   H4030     1.0  0.65616  0.47116  0.21221  1.0000
  C   C2265     1.0  0.65694  0.44501  0.21781  1.0000
  H   H4031     1.0  0.56605  0.33474  0.10395  1.0000
  H   H4032     1.0  0.65773  0.41897  0.22728  1.0000
  H   H4033     1.0  0.52947  0.59051  0.22538  1.0000
  H   H4034     1.0  0.83172  0.55410  0.03223  1.0000
  C   C2266     1.0  0.93810  0.63479  0.13637  1.0000
  H   H4035     1.0  0.66586  0.57015  0.11374  1.0000
  C   C2267     1.0  0.94904  0.59181  0.12513  1.0000
  H   H4036     1.0  0.93776  0.64508  0.07670  1.0000
  H   H4037     1.0  0.78715  0.65280  0.05569  1.0000
  C   C2268     1.0  0.51807  0.34393  0.20157  1.0000
  C   C2269     1.0  0.52069  0.35885  0.20333  1.0000
  H   H4038     1.0  0.65343  0.40740  0.17088  1.0000
  C   C2270     1.0  0.71290  0.57596  0.10496  1.0000
  C   C2271     1.0  0.94333  0.57609  0.13561  1.0000
  H   H4039     1.0  0.53073  0.35867  0.20880  1.0000
  C   C2272     1.0  0.58656  0.43714  0.17803  1.0000
  C   C2273     1.0  0.60098  0.44183  0.16785  1.0000
  C   C2274     1.0  0.60324  0.45785  0.16579  1.0000
  C   C2275     1.0  0.59088  0.46944  0.17338  1.0000
  C   C2276     1.0  0.57604  0.46503  0.18285  1.0000
  C   C2277     1.0  0.57397  0.44882  0.18538  1.0000
  H   H4040     1.0  0.61058  0.43295  0.16186  1.0000
  H   H4041     1.0  0.61449  0.46123  0.15818  1.0000
  H   H4042     1.0  0.56634  0.47394  0.18864  1.0000
  H   H4043     1.0  0.56266  0.44539  0.19307  1.0000
  C   C2278     1.0  0.59169  0.54881  0.21034  1.0000
  C   C2279     1.0  0.60185  0.53846  0.22094  1.0000
  C   C2280     1.0  0.61845  0.53164  0.21444  1.0000
  C   C2281     1.0  0.62472  0.53495  0.19736  1.0000
  C   C2282     1.0  0.61451  0.54531  0.18681  1.0000
  C   C2283     1.0  0.59814  0.55254  0.19334  1.0000
  H   H4044     1.0  0.64495  0.56362  0.10289  1.0000
  H   H4045     1.0  0.62630  0.52351  0.22259  1.0000
  H   H4046     1.0  0.61923  0.54767  0.17361  1.0000
  H   H4047     1.0  0.59030  0.56063  0.18516  1.0000
  C   C2284     1.0  0.70657  0.52115  0.09293  1.0000
  C   C2285     1.0  0.69247  0.52515  0.08624  1.0000
  C   C2286     1.0  0.67900  0.51758  0.09450  1.0000
  C   C2287     1.0  0.67931  0.50646  0.10974  1.0000
  C   C2288     1.0  0.69338  0.50248  0.11647  1.0000
  C   C2289     1.0  0.70708  0.50966  0.10795  1.0000
  H   H4048     1.0  0.69203  0.53395  0.07463  1.0000
  H   H4049     1.0  0.66822  0.52054  0.08914  1.0000
  H   H4050     1.0  0.69386  0.49354  0.12799  1.0000
  H   H4051     1.0  0.71809  0.50637  0.11301  1.0000
  C   C2290     1.0  0.73175  0.62219  0.05938  1.0000
  H   H4052     1.0  0.96274  0.58916  0.12331  1.0000
  H   H4053     1.0  0.73885  0.64810  0.00493  1.0000
  H   H4054     1.0  0.59525  0.61166  0.16773  1.0000
  C   C2291     1.0  0.75157  0.63164  0.03464  1.0000
  C   C2292     1.0  0.74104  0.62063  0.04352  1.0000
  C   C2293     1.0  0.68929  0.63891  0.04553  1.0000
  H   H4055     1.0  0.66283  0.64243  0.05675  1.0000
  H   H4056     1.0  0.75865  0.63059  0.02236  1.0000
  H   H4057     1.0  0.73998  0.61110  0.03807  1.0000
  C   C2294     1.0  0.66086  0.60362  0.02941  1.0000
  C   C2295     1.0  0.67241  0.61212  0.01801  1.0000
  C   C2296     1.0  0.66708  0.62732  0.00773  1.0000
  H   H4058     1.0  0.95234  0.62923  0.06701  1.0000
  C   C2297     1.0  0.63857  0.62614  0.02112  1.0000
  C   C2298     1.0  0.64391  0.61066  0.03093  1.0000
  H   H4059     1.0  0.68544  0.60663  0.01650  1.0000
  H   H4060     1.0  0.98537  0.59384  0.19740  1.0000
  H   H4061     1.0  0.63490  0.60415  0.03974  1.0000
  C   C2299     1.0  0.67535  0.54445  0.12616  1.0000
  H   H4062     1.0  0.70550  0.52936  0.13043  1.0000
  H   H4063     1.0  0.55076  0.34176  0.09138  1.0000
  C   C2300     1.0  0.53526  0.53665  0.20536  1.0000
  H   H4064     1.0  0.94551  0.59427  0.11310  1.0000
  H   H4065     1.0  0.58668  0.55007  0.16155  1.0000
  H   H4066     1.0  0.65750  0.57618  0.14247  1.0000
  H   H4067     1.0  0.65382  0.56498  0.18016  1.0000
  H   H4068     1.0  0.84941  0.55880  0.01630  1.0000
  C   C2301     1.0  0.96461  0.62080  0.12202  1.0000
  H   H4069     1.0  0.85767  0.64448  0.01481  1.0000
  H   H4070     1.0  0.64310  0.42755  0.16133  1.0000
  H   H4071     1.0  0.57227  0.49128  0.20934  1.0000
  H   H4072     1.0  0.91308  0.62924  0.14606  1.0000
  C   C2302     1.0  0.60761  0.42005  0.21898  1.0000
  C   C2303     1.0  0.50503  0.34383  0.19455  1.0000
  H   H4073     1.0  0.74459  0.65491  0.06308  1.0000
  C   C2304     1.0  0.85982  0.64258  0.02742  1.0000
  H   H4074     1.0  0.52329  0.61114  0.22966  1.0000
  H   H4075     1.0  0.68407  0.51328  0.14695  1.0000
  C   C2305     1.0  0.57517  0.50286  0.21008  1.0000
  H   H4076     1.0  0.62549  0.38205  0.20958  1.0000
  H   H4077     1.0  0.58339  0.50739  0.19829  1.0000
  C   C2306     1.0  0.99128  0.61063  0.13281  1.0000
  C   C2307     1.0  0.69134  0.51773  0.15303  1.0000
  H   H4078     1.0  0.84476  0.53857  0.02089  1.0000
  H   H4079     1.0  0.94139  0.62966  0.14868  1.0000
  H   H4080     1.0  0.68485  0.54438  0.03137  1.0000
  H   H4081     1.0  0.84779  0.64961  0.05044  1.0000
  H   H4082     1.0  0.62319  0.43871  0.21270  1.0000
  H   H4083     1.0  0.63536  0.60685  0.99864  1.0000
  C   C2308     1.0  0.63138  0.41898  0.18681  1.0000
  H   H4084     1.0  0.59817  0.59067  0.17951  1.0000
  H   H4085     1.0  0.65133  0.54192  0.11165  1.0000
  C   C2309     1.0  0.80170  0.62794  0.05845  1.0000
  H   H4086     1.0  0.70133  0.55721  0.10386  1.0000
  H   H4087     1.0  0.53748  0.33334  0.12046  1.0000
  Fe  Fe265     1.0  0.52968  0.40146  0.21169  1.0000
  C   C2310     1.0  0.70609  0.50367  0.15669  1.0000
  H   H4088     1.0  0.96812  0.60394  0.14593  1.0000
  H   H4089     1.0  0.96885  0.62510  0.14434  1.0000
  C   C2311     1.0  0.51009  0.37391  0.19835  1.0000
  H   H4090     1.0  0.52839  0.48471  0.19417  1.0000
  C   C2312     1.0  0.55547  0.37300  0.16570  1.0000
  C   C2313     1.0  0.65013  0.63434  0.00929  1.0000
  H   H4091     1.0  0.53324  0.33037  0.17045  1.0000
  C   C2314     1.0  0.61511  0.39209  0.21364  1.0000
  S   S529      1.0  0.51787  0.45741  0.22682  1.0000
  H   H4092     1.0  0.79790  0.64697  0.03673  1.0000
  C   C2315     1.0  0.54013  0.50736  0.20299  1.0000
  H   H4093     1.0  0.69842  0.56532  0.13759  1.0000
  H   H4094     1.0  0.66931  0.53382  0.13264  1.0000
  H   H4095     1.0  0.60003  0.60000  0.21144  1.0000
  H   H4096     1.0  0.92711  0.60821  0.13476  1.0000
  C   C2316     1.0  0.59784  0.45025  0.22080  1.0000
  C   C2317     1.0  0.94328  0.63161  0.07851  1.0000
  S   S530      1.0  0.51177  0.39302  0.20154  1.0000
  H   H4097     1.0  0.52615  0.33234  0.20578  1.0000
  H   H4098     1.0  0.71695  0.55023  0.11605  1.0000
  H   H4099     1.0  0.51541  0.34306  0.13960  1.0000
  H   H4100     1.0  0.57271  0.54284  0.15413  1.0000
  H   H4101     1.0  0.68348  0.52016  0.16504  1.0000
  H   H4102     1.0  0.96805  0.63283  0.11537  1.0000
  H   H4103     1.0  0.58841  0.50977  0.22463  1.0000
  N   N125      1.0  0.68403  0.54832  0.13732  1.0000
  H   H4104     1.0  0.83668  0.55642  0.99503  1.0000
  C   C2318     1.0  0.64682  0.41995  0.17293  1.0000
  C   C2319     1.0  0.66573  0.58521  0.99126  1.0000
  H   H4105     1.0  0.58719  0.61994  0.22776  1.0000
  C   C2320     1.0  0.74267  0.55543  0.99137  1.0000
  H   H4106     1.0  0.68447  0.54022  0.11545  1.0000
  N   N126      1.0  0.54809  0.52147  0.20161  1.0000
  C   C2321     1.0  0.78322  0.53765  0.02489  1.0000
  C   C2322     1.0  0.76726  0.53128  0.02872  1.0000
  C   C2323     1.0  0.99122  0.61791  0.18714  1.0000
  H   H4107     1.0  0.59256  0.37568  0.21117  1.0000
  H   H4108     1.0  0.62475  0.43184  0.18767  1.0000
  H   H4109     1.0  0.59737  0.41684  0.22954  1.0000
  H   H4110     1.0  0.64335  0.58429  0.16918  1.0000
  H   H4111     1.0  0.95751  0.61255  0.09415  1.0000
  C   C2324     1.0  0.71028  0.59027  0.98526  1.0000
  H   H4112     1.0  0.55376  0.32845  0.15823  1.0000
  H   H4113     1.0  0.63790  0.37282  0.23101  1.0000
  H   H4114     1.0  0.67081  0.62546  0.04610  1.0000
  C   C2325     1.0  0.78601  0.62141  0.06124  1.0000
  C   C2326     1.0  0.94000  0.63002  0.10910  1.0000
  H   H4115     1.0  0.77436  0.57291  0.02252  1.0000
  H   H4116     1.0  0.72612  0.63567  0.07863  1.0000
  C   C2327     1.0  0.78884  0.54439  0.00608  1.0000
  C   C2328     1.0  0.84486  0.65188  0.03813  1.0000
  H   H4117     1.0  0.51647  0.55987  0.22380  1.0000
  H   H4118     1.0  0.79304  0.52717  0.02923  1.0000
  H   H4119     1.0  0.78095  0.54700  0.03231  1.0000
  H   H4120     1.0  0.62338  0.41301  0.18318  1.0000
  H   H4121     1.0  0.75688  0.54158  0.02532  1.0000
  H   H4122     1.0  0.76893  0.52152  0.02183  1.0000
  C   C2329     1.0  0.77953  0.59700  0.01410  1.0000
  H   H4123     1.0  0.58640  0.44749  0.22983  1.0000
  C   C2330     1.0  0.68214  0.55058  0.00585  1.0000
  H   H4124     1.0  0.79022  0.60319  0.00933  1.0000
  N   N127      1.0  0.62157  0.40510  0.21739  1.0000
  C   C2331     1.0  0.50927  0.36923  0.13972  1.0000
  H   H4125     1.0  0.63920  0.56508  0.16843  1.0000
  H   H4126     1.0  0.71845  0.57934  0.11352  1.0000
  H   H4127     1.0  0.65067  0.56054  0.12989  1.0000
  N   N128      1.0  0.61855  0.47780  0.11223  1.0000
  C   C2332     1.0  0.63667  0.47517  0.11235  1.0000
  C   C2333     1.0  0.60864  0.49020  0.12270  1.0000
  C   C2334     1.0  0.61329  0.46152  0.12032  1.0000
  C   C2335     1.0  0.61511  0.48332  0.09501  1.0000
  C   C2336     1.0  0.62671  0.49378  0.08167  1.0000
  C   C2337     1.0  0.64834  0.46035  0.10515  1.0000
  C   C2338     1.0  0.59437  0.46211  0.12417  1.0000
  C   C2339     1.0  0.61214  0.50785  0.11671  1.0000
  C   C2340     1.0  0.60193  0.51879  0.12886  1.0000
  C   C2341     1.0  0.61989  0.50110  0.06597  1.0000
  C   C2342     1.0  0.66655  0.46134  0.10177  1.0000
  C   C2343     1.0  0.59081  0.44481  0.12785  1.0000
  H   H4128     1.0  0.63830  0.47315  0.12520  1.0000
  H   H4129     1.0  0.64157  0.48641  0.10574  1.0000
  H   H4130     1.0  0.59512  0.49193  0.12359  1.0000
  H   H4131     1.0  0.61056  0.48546  0.13559  1.0000
  H   H4132     1.0  0.61758  0.45606  0.13212  1.0000
  H   H4133     1.0  0.61944  0.45230  0.11242  1.0000
  H   H4134     1.0  0.61587  0.47246  0.08990  1.0000
  H   H4135     1.0  0.60207  0.49040  0.09546  1.0000
  H   H4136     1.0  0.63919  0.48594  0.07820  1.0000
  H   H4137     1.0  0.62850  0.50410  0.08591  1.0000
  H   H4138     1.0  0.64683  0.44857  0.11416  1.0000
  H   H4139     1.0  0.64548  0.45979  0.09353  1.0000
  H   H4140     1.0  0.58870  0.46977  0.11367  1.0000
  H   H4141     1.0  0.58810  0.46742  0.13528  1.0000
  H   H4142     1.0  0.62540  0.50774  0.11546  1.0000
  H   H4143     1.0  0.60840  0.51383  0.10477  1.0000
  H   H4144     1.0  0.60499  0.51343  0.14117  1.0000
  H   H4145     1.0  0.60481  0.53131  0.12447  1.0000
  H   H4146     1.0  0.58843  0.51999  0.13006  1.0000
  H   H4147     1.0  0.61843  0.49114  0.06085  1.0000
  H   H4148     1.0  0.60770  0.50973  0.06856  1.0000
  H   H4149     1.0  0.62863  0.50812  0.05654  1.0000
  H   H4150     1.0  0.94687  0.57274  0.14778  1.0000
  Fe  Fe266     1.0  0.97564  0.65028  0.15954  1.0000
  H   H4151     1.0  0.66890  0.47276  0.09253  1.0000
  H   H4152     1.0  0.59578  0.43930  0.11677  1.0000
  H   H4153     1.0  0.59645  0.43656  0.13817  1.0000
  H   H4154     1.0  0.57719  0.44559  0.13151  1.0000
  H   H4155     1.0  0.60192  0.42410  0.20794  1.0000
  H   H4156     1.0  0.56613  0.51433  0.18037  1.0000
  H   H4157     1.0  0.58914  0.52826  0.16330  1.0000
  H   H4158     1.0  0.59537  0.45415  0.20816  1.0000
  H   H4159     1.0  0.54819  0.36303  0.12531  1.0000
  C   C2344     1.0  0.59736  0.37056  0.22269  1.0000
  C   C2345     1.0  0.57987  0.54007  0.16390  1.0000
  S   S531      1.0  0.77628  0.64891  0.98599  1.0000
  C   C2346     1.0  0.55519  0.34464  0.10106  1.0000
  H   H4160     1.0  0.71651  0.65095  0.03774  1.0000
  H   H4161     1.0  0.71398  0.50015  0.14509  1.0000
  C   C2347     1.0  0.70622  0.56024  0.11308  1.0000
  H   H4162     1.0  0.50697  0.37688  0.14899  1.0000
  H   H4163     1.0  0.53464  0.37324  0.14817  1.0000
  N   N129      1.0  0.57477  0.60185  0.22594  1.0000
  C   C2348     1.0  0.94067  0.60662  0.13360  1.0000
  H   H4164     1.0  0.56454  0.35588  0.14943  1.0000
  C   C2349     1.0  0.91884  0.64004  0.13977  1.0000
  H   H4165     1.0  0.92965  0.57781  0.13758  1.0000
  C   C2350     1.0  0.69737  0.53334  0.14176  1.0000
  H   H4166     1.0  0.54973  0.49652  0.19962  1.0000
  H   H4167     1.0  0.78304  0.62224  0.04922  1.0000
  H   H4168     1.0  0.79414  0.57444  0.02502  1.0000
  H   H4169     1.0  0.60894  0.39746  0.20299  1.0000
  H   H4170     1.0  0.53406  0.50289  0.21598  1.0000
  H   H4171     1.0  0.81176  0.62011  0.05096  1.0000
  H   H4172     1.0  0.54946  0.53059  0.17538  1.0000
  C   C2351     1.0  0.55788  0.52569  0.18421  1.0000
  H   H4173     1.0  0.55240  0.61323  0.21637  1.0000
  C   C2352     1.0  0.52731  0.51089  0.19208  1.0000
  H   H4174     1.0  0.79342  0.53314  0.00068  1.0000
  H   H4175     1.0  0.70155  0.49264  0.16483  1.0000
  C   C2353     1.0  0.68722  0.65144  0.02907  1.0000
  H   H4176     1.0  0.60123  0.46065  0.22353  1.0000
  C   C2354     1.0  0.63895  0.60522  0.98569  1.0000
  H   H4177     1.0  0.70235  0.53465  0.01737  1.0000
  N   N130      1.0  0.53548  0.34804  0.14719  1.0000
  H   H4178     1.0  0.63359  0.59516  0.98477  1.0000
  H   H4179     1.0  0.97129  0.61221  0.11367  1.0000
  C   C2355     1.0  0.65577  0.43081  0.23041  1.0000
  H   H4180     1.0  0.69962  0.62822  0.04349  1.0000
  H   H4181     1.0  0.66246  0.58763  0.00396  1.0000
  C   C2356     1.0  0.54671  0.34998  0.13018  1.0000
  H   H4182     1.0  0.71369  0.50741  0.16309  1.0000
  C   C2357     1.0  0.95207  0.62593  0.09297  1.0000
  C   C2358     1.0  0.51898  0.49626  0.19580  1.0000
  H   H4183     1.0  0.51049  0.49865  0.18731  1.0000
  C   C2359     1.0  0.74368  0.64534  0.05759  1.0000
  H   H4184     1.0  0.67463  0.45047  0.09689  1.0000
  C   C2360     1.0  0.72999  0.64658  0.99844  1.0000
  H   H4185     1.0  0.78797  0.60823  0.06780  1.0000
  H   H4186     1.0  0.73565  0.55054  0.00335  1.0000
  C   C2361     1.0  0.53716  0.36050  0.15582  1.0000
  H   H4187     1.0  0.77100  0.60171  0.00538  1.0000
  C   C2362     1.0  0.51739  0.35107  0.14671  1.0000
  C   C2363     1.0  0.99343  0.60183  0.19685  1.0000
  H   H4188     1.0  0.65902  0.57557  0.99187  1.0000
  H   H4189     1.0  0.61024  0.60452  0.18069  1.0000
  H   H4190     1.0  0.96242  0.63255  0.08972  1.0000
  H   H4191     1.0  0.83168  0.63262  0.04664  1.0000
  H   H4192     1.0  0.67607  0.63362  0.99866  1.0000
  C   C2364     1.0  0.49718  0.37383  0.19114  1.0000
  C   C2365     1.0  0.67199  0.55175  0.15313  1.0000
  H   H4193     1.0  0.62545  0.63158  0.02240  1.0000
  H   H4194     1.0  0.51512  0.52489  0.22236  1.0000
  H   H4195     1.0  0.64295  0.41651  0.20702  1.0000
  C   C2366     1.0  0.67359  0.63221  0.05401  1.0000
  H   H4196     1.0  0.68352  0.57417  0.12522  1.0000
  H   H4197     1.0  0.50993  0.34740  0.15935  1.0000
  H   H4198     1.0  0.92803  0.62668  0.11005  1.0000
  C   C2367     1.0  0.54051  0.33101  0.15752  1.0000
  S   S532      1.0  0.64315  0.65332  0.99662  1.0000
  C   C2368     1.0  0.73854  0.63240  0.98948  1.0000
  H   H4199     1.0  0.74049  0.62035  0.99841  1.0000
  H   H4200     1.0  0.77276  0.60022  0.02614  1.0000
  H   H4201     1.0  0.55587  0.34717  0.17061  1.0000
  H   H4202     1.0  0.71806  0.63228  0.02069  1.0000
  C   C2369     1.0  0.60225  0.38399  0.22778  1.0000
  C   C2370     1.0  0.65552  0.55382  0.10665  1.0000
  H   H4203     1.0  0.59692  0.48964  0.22003  1.0000
  C   C2371     1.0  0.63594  0.40928  0.20353  1.0000
  C   C2372     1.0  0.78547  0.57823  0.01654  1.0000
  H   H4204     1.0  0.68718  0.57169  0.01137  1.0000
  H   H4205     1.0  0.67851  0.54791  0.16358  1.0000
  H   H4206     1.0  0.58970  0.58522  0.20997  1.0000
  H   H4207     1.0  0.70283  0.58641  0.10112  1.0000
  H   H4208     1.0  0.94244  0.60284  0.14654  1.0000
  H   H4209     1.0  0.68326  0.52733  0.02389  1.0000
  C   C2373     1.0  0.56835  0.53887  0.18096  1.0000
  H   H4210     1.0  0.72266  0.57392  0.09377  1.0000
  C   C2374     1.0  0.65494  0.46022  0.22186  1.0000
  H   H4211     1.0  0.53351  0.51290  0.17882  1.0000
  H   H4212     1.0  0.68203  0.64559  0.02210  1.0000
  H   H4213     1.0  0.93712  0.64379  0.10668  1.0000
  C   C2375     1.0  0.54125  0.34540  0.11645  1.0000
  H   H4214     1.0  0.66994  0.46139  0.11333  1.0000
  C   C2376     1.0  0.68860  0.53853  0.02050  1.0000
  H   H4215     1.0  0.66562  0.55274  0.09550  1.0000
  H   H4216     1.0  0.76384  0.52600  0.04215  1.0000
  N   N131      1.0  0.94602  0.62273  0.12510  1.0000
  H   H4217     1.0  0.59077  0.39332  0.23087  1.0000
  H   H4218     1.0  0.60819  0.36020  0.22071  1.0000
  H   H4219     1.0  0.56013  0.55123  0.18161  1.0000
  C   C2377     1.0  0.71390  0.64285  0.01093  1.0000
  C   C2378     1.0  0.58437  0.60932  0.19393  1.0000
  H   H4220     1.0  0.69190  0.64483  0.05425  1.0000
  H   H4221     1.0  0.70558  0.53650  0.14800  1.0000
  H   H4222     1.0  0.93331  0.62476  0.08074  1.0000
  C   C2379     1.0  0.59787  0.60366  0.17963  1.0000
  C   C2380     1.0  0.97232  0.61499  0.13752  1.0000
  C   C2381     1.0  0.66154  0.55846  0.11962  1.0000
  H   H4223     1.0  0.70353  0.56144  0.99774  1.0000
  H   H4224     1.0  0.94307  0.64625  0.13112  1.0000
  C   C2382     1.0  0.61218  0.43518  0.22189  1.0000
  H   H4225     1.0  0.55905  0.35670  0.09615  1.0000
  H   H4226     1.0  0.66245  0.54405  0.15673  1.0000
  C   C2383     1.0  0.69254  0.56261  0.12882  1.0000
  H   H4227     1.0  0.51744  0.37468  0.12832  1.0000
  H   H4228     1.0  0.54145  0.54632  0.20585  1.0000
  H   H4229     1.0  0.65539  0.42583  0.17588  1.0000
  H   H4230     1.0  0.57232  0.60865  0.19193  1.0000
  C   C2384     1.0  0.64900  0.57113  0.16876  1.0000
  H   H4231     1.0  0.52842  0.54240  0.19522  1.0000
  C   C2385     1.0  0.73325  0.63444  0.06640  1.0000
  H   H4232     1.0  0.51737  0.52190  0.19422  1.0000
  C   C2386     1.0  0.66295  0.57000  0.15342  1.0000
  H   H4233     1.0  0.51157  0.49446  0.20866  1.0000
  H   H4234     1.0  0.82120  0.64386  0.07109  1.0000
  C   C2387     1.0  0.50996  0.55013  0.22427  1.0000
  H   H4235     1.0  0.50250  0.55449  0.21459  1.0000
  H   H4236     1.0  0.94933  0.56568  0.12920  1.0000
  H   H4237     1.0  0.58425  0.62244  0.19320  1.0000
  H   H4238     1.0  0.70692  0.63788  0.00486  1.0000
  C   C2388     1.0  0.91247  0.65247  0.15102  1.0000
  C   C2389     1.0  0.57448  0.61883  0.22797  1.0000
  H   H4239     1.0  0.54534  0.37551  0.17652  1.0000
  C   C2390     1.0  0.68988  0.56608  0.00042  1.0000
  S   S533      1.0  0.55904  0.42134  0.22568  1.0000
  C   C2391     1.0  0.58782  0.59839  0.21074  1.0000
  H   H4240     1.0  0.77761  0.55123  0.00111  1.0000
  C   C2392     1.0  0.75269  0.64413  0.04165  1.0000
  H   H4241     1.0  0.67547  0.62341  0.06579  1.0000
  C   C2393     1.0  0.79370  0.57296  0.99986  1.0000
  H   H4242     1.0  0.87101  0.64731  0.02634  1.0000
  H   H4243     1.0  0.86221  0.62912  0.03298  1.0000
  H   H4244     1.0  0.56753  0.37064  0.16933  1.0000
  N   N132      1.0  0.80178  0.55491  0.00058  1.0000
  H   H4245     1.0  0.55468  0.38415  0.15553  1.0000
  S   S534      1.0  0.80792  0.64227  0.00346  1.0000
  H   H4246     1.0  0.70905  0.61350  0.99155  1.0000
  H   H4247     1.0  0.82814  0.64522  0.02726  1.0000
  H   H4248     1.0  0.57073  0.62843  0.21730  1.0000
  H   H4249     1.0  0.81902  0.54030  0.98366  1.0000
  C   C2394     1.0  0.74980  0.56893  0.98923  1.0000
  C   C2395     1.0  0.52237  0.53399  0.22188  1.0000
  C   C2396     1.0  0.58517  0.49854  0.22343  1.0000
  H   H4250     1.0  0.82352  0.57169  0.00640  1.0000
  H   H4251     1.0  0.80469  0.62622  0.07063  1.0000
  C   C2397     1.0  0.81120  0.55302  0.98335  1.0000
  H   H4252     1.0  0.55212  0.51104  0.22639  1.0000
  S   S535      1.0  0.50205  0.32449  0.19326  1.0000
  H   H4253     1.0  0.71096  0.58424  0.99828  1.0000
  H   H4254     1.0  0.91613  0.64698  0.16310  1.0000
  H   H4255     1.0  0.78389  0.57686  0.99256  1.0000
  H   H4256     1.0  0.53047  0.35486  0.11271  1.0000
  H   H4257     1.0  0.55994  0.59204  0.21555  1.0000
  S   S536      1.0  0.99329  0.65299  0.13502  1.0000
  H   H4258     1.0  0.65312  0.38545  0.22538  1.0000
  H   H4259     1.0  0.68536  0.54393  0.99564  1.0000
  H   H4260     1.0  0.91432  0.64596  0.12819  1.0000
  C   C2398     1.0  0.55819  0.60108  0.22337  1.0000
  N   N133      1.0  0.68429  0.57910  0.98614  1.0000
  H   H4261     1.0  0.55948  0.34265  0.13090  1.0000
  H   H4262     1.0  0.80280  0.58079  0.99296  1.0000
  H   H4263     1.0  0.68511  0.60245  0.99041  1.0000
  H   H4264     1.0  0.58744  0.36565  0.23263  1.0000
  H   H4265     1.0  0.52866  0.52952  0.23243  1.0000
  Fe  Fe267     1.0  0.53841  0.55770  0.27445  1.0000
  H   H4266     1.0  0.62937  0.36505  0.46177  1.0000
  S   S537      1.0  0.52442  0.58163  0.28262  1.0000
  Fe  Fe268     1.0  0.53713  0.52495  0.26639  1.0000
  H   H4267     1.0  0.61516  0.40703  0.38394  1.0000
  S   S538      1.0  0.51930  0.50954  0.26651  1.0000
  Fe  Fe269     1.0  0.56587  0.52740  0.27879  1.0000
  S   S539      1.0  0.58402  0.51568  0.29519  1.0000
  C   C2399     1.0  0.59977  0.57376  0.25922  1.0000
  S   S540      1.0  0.53853  0.53183  0.28947  1.0000
  H   H4268     1.0  0.76472  0.37433  0.46925  1.0000
  C   C2400     1.0  0.65205  0.43195  0.24704  1.0000
  S   S541      1.0  0.55678  0.38062  0.26057  1.0000
  H   H4269     1.0  0.53446  0.36921  0.24590  1.0000
  Fe  Fe270     1.0  0.63530  0.42960  0.29069  1.0000
  S   S542      1.0  0.61023  0.42551  0.29203  1.0000
  S   S543      1.0  0.64689  0.44890  0.27152  1.0000
  Fe  Fe271     1.0  0.63954  0.40587  0.32324  1.0000
  S   S544      1.0  0.61467  0.39943  0.32769  1.0000
  S   S545      1.0  0.65850  0.39485  0.33940  1.0000
  Fe  Fe272     1.0  0.62110  0.39886  0.30071  1.0000
  S   S546      1.0  0.61673  0.37836  0.29189  1.0000
  Fe  Fe273     1.0  0.60564  0.42659  0.31863  1.0000
  S   S547      1.0  0.58207  0.44175  0.33056  1.0000
  S   S548      1.0  0.64688  0.40274  0.29696  1.0000
  S   S549      1.0  0.62983  0.43310  0.31656  1.0000
  Fe  Fe274     1.0  0.68677  0.42195  0.40423  1.0000
  S   S550      1.0  0.70080  0.39597  0.40458  1.0000
  S   S551      1.0  0.67133  0.43541  0.38491  1.0000
  Fe  Fe275     1.0  0.69517  0.42182  0.43702  1.0000
  S   S552      1.0  0.70939  0.39551  0.43995  1.0000
  S   S553      1.0  0.68870  0.43816  0.45555  1.0000
  Fe  Fe276     1.0  0.72009  0.40287  0.41289  1.0000
  S   S554      1.0  0.74652  0.39431  0.40025  1.0000
  Fe  Fe277     1.0  0.68892  0.39092  0.43127  1.0000
  S   S555      1.0  0.67958  0.36748  0.43985  1.0000
  S   S556      1.0  0.70719  0.42973  0.41025  1.0000
  S   S557      1.0  0.67352  0.41651  0.43076  1.0000
  H   H4270     1.0  0.58480  0.52684  0.33656  1.0000
  H   H4271     1.0  0.56991  0.58922  0.25178  1.0000
  H   H4272     1.0  0.74277  0.35332  0.39724  1.0000
  H   H4273     1.0  0.82025  0.37865  0.45269  1.0000
  H   H4274     1.0  0.50623  0.57940  0.34951  1.0000
  H   H4275     1.0  0.68566  0.41915  0.25570  1.0000
  S   S558      1.0  0.56462  0.51869  0.25682  1.0000
  S   S559      1.0  0.56457  0.62926  0.29275  1.0000
  H   H4276     1.0  0.83984  0.36829  0.38743  1.0000
  H   H4277     1.0  0.84882  0.36592  0.40482  1.0000
  H   H4278     1.0  0.68924  0.46608  0.46648  1.0000
  C   C2401     1.0  0.72633  0.34537  0.42836  1.0000
  C   C2402     1.0  0.53277  0.56124  0.32837  1.0000
  H   H4279     1.0  0.74083  0.33683  0.38954  1.0000
  N   N134      1.0  0.73225  0.33420  0.41608  1.0000
  C   C2403     1.0  0.56356  0.41550  0.30264  1.0000
  H   H4280     1.0  0.52641  0.57695  0.35230  1.0000
  H   H4281     1.0  0.98848  0.34371  0.25109  1.0000
  C   C2404     1.0  0.58242  0.51595  0.34662  1.0000
  H   H4282     1.0  0.55131  0.44949  0.26279  1.0000
  C   C2405     1.0  0.66547  0.36726  0.45873  1.0000
  H   H4283     1.0  0.63615  0.39595  0.37862  1.0000
  C   C2406     1.0  0.65595  0.38203  0.46318  1.0000
  C   C2407     1.0  0.73449  0.34473  0.39876  1.0000
  H   H4284     1.0  0.65688  0.39372  0.45476  1.0000
  C   C2408     1.0  0.76032  0.38001  0.41179  1.0000
  C   C2409     1.0  0.77696  0.37573  0.40393  1.0000
  C   C2410     1.0  0.78841  0.36441  0.41262  1.0000
  C   C2411     1.0  0.78329  0.35710  0.42920  1.0000
  C   C2412     1.0  0.76661  0.36124  0.43714  1.0000
  C   C2413     1.0  0.75514  0.37276  0.42842  1.0000
  H   H4285     1.0  0.78103  0.38127  0.39106  1.0000
  H   H4286     1.0  0.80122  0.36118  0.40638  1.0000
  H   H4287     1.0  0.76262  0.35580  0.45001  1.0000
  H   H4288     1.0  0.74236  0.37607  0.43456  1.0000
  C   C2414     1.0  0.65018  0.44721  0.25101  1.0000
  H   H4289     1.0  0.55589  0.63727  0.38601  1.0000
  C   C2415     1.0  0.75873  0.40899  0.46154  1.0000
  H   H4290     1.0  0.63481  0.44106  0.40006  1.0000
  H   H4291     1.0  0.56233  0.61418  0.32789  1.0000
  H   H4292     1.0  0.65824  0.38509  0.41483  1.0000
  H   H4293     1.0  0.51829  0.42557  0.26979  1.0000
  C   C2416     1.0  0.66214  0.40661  0.35152  1.0000
  C   C2417     1.0  0.67580  0.40049  0.35909  1.0000
  C   C2418     1.0  0.67885  0.40929  0.36918  1.0000
  C   C2419     1.0  0.66812  0.42421  0.37198  1.0000
  C   C2420     1.0  0.65451  0.43041  0.36430  1.0000
  C   C2421     1.0  0.65154  0.42167  0.35407  1.0000
  H   H4294     1.0  0.68411  0.38890  0.35710  1.0000
  H   H4295     1.0  0.68958  0.40459  0.37466  1.0000
  H   H4296     1.0  0.64618  0.44191  0.36646  1.0000
  H   H4297     1.0  0.64100  0.42645  0.34829  1.0000
  H   H4298     1.0  0.59246  0.44303  0.36216  1.0000
  C   C2422     1.0  0.62336  0.39448  0.38498  1.0000
  C   C2423     1.0  0.50184  0.37107  0.24582  1.0000
  C   C2424     1.0  0.57961  0.58848  0.24034  1.0000
  C   C2425     1.0  0.59953  0.38037  0.28334  1.0000
  C   C2426     1.0  0.59288  0.39502  0.27305  1.0000
  C   C2427     1.0  0.57992  0.39535  0.26557  1.0000
  C   C2428     1.0  0.57340  0.38117  0.26876  1.0000
  C   C2429     1.0  0.57998  0.36677  0.27918  1.0000
  C   C2430     1.0  0.59311  0.36629  0.28617  1.0000
  H   H4299     1.0  0.59796  0.40588  0.27058  1.0000
  H   H4300     1.0  0.60677  0.58691  0.23452  1.0000
  H   H4301     1.0  0.57504  0.35579  0.28173  1.0000
  H   H4302     1.0  0.59825  0.35492  0.29394  1.0000
  C   C2431     1.0  0.53582  0.59486  0.28506  1.0000
  C   C2432     1.0  0.52789  0.61118  0.28637  1.0000
  C   C2433     1.0  0.53648  0.62180  0.28894  1.0000
  C   C2434     1.0  0.55313  0.61618  0.29015  1.0000
  C   C2435     1.0  0.56107  0.59989  0.28878  1.0000
  C   C2436     1.0  0.55245  0.58925  0.28633  1.0000
  H   H4303     1.0  0.51504  0.61564  0.28538  1.0000
  H   H4304     1.0  0.53033  0.63443  0.28966  1.0000
  H   H4305     1.0  0.57393  0.59544  0.28974  1.0000
  H   H4306     1.0  0.55857  0.57659  0.28585  1.0000
  C   C2437     1.0  0.58212  0.49532  0.30415  1.0000
  C   C2438     1.0  0.59376  0.48250  0.29781  1.0000
  C   C2439     1.0  0.59363  0.46608  0.30594  1.0000
  C   C2440     1.0  0.58172  0.46239  0.32032  1.0000
  C   C2441     1.0  0.56987  0.47523  0.32659  1.0000
  C   C2442     1.0  0.57007  0.49174  0.31847  1.0000
  H   H4307     1.0  0.60306  0.48529  0.28674  1.0000
  H   H4308     1.0  0.60292  0.45633  0.30108  1.0000
  H   H4309     1.0  0.56064  0.47242  0.33772  1.0000
  H   H4310     1.0  0.56108  0.50171  0.32340  1.0000
  C   C2443     1.0  0.65738  0.36977  0.39873  1.0000
  C   C2444     1.0  0.52986  0.60947  0.33848  1.0000
  C   C2445     1.0  0.50515  0.47996  0.24613  1.0000
  H   H4311     1.0  0.85166  0.33878  0.42469  1.0000
  C   C2446     1.0  0.98641  0.34403  0.32648  1.0000
  H   H4312     1.0  0.54903  0.58230  0.24421  1.0000
  C   C2447     1.0  0.71957  0.32418  0.41795  1.0000
  H   H4313     1.0  0.63313  0.41403  0.43181  1.0000
  H   H4314     1.0  0.57384  0.51009  0.34361  1.0000
  H   H4315     1.0  0.61810  0.44081  0.41822  1.0000
  H   H4316     1.0  0.70508  0.44699  0.24324  1.0000
  H   H4317     1.0  0.72256  0.36126  0.45399  1.0000
  H   H4318     1.0  0.97384  0.33922  0.28084  1.0000
  H   H4319     1.0  0.65103  0.42102  0.25674  1.0000
  C   C2448     1.0  0.61772  0.38487  0.37573  1.0000
  H   H4320     1.0  0.59558  0.49309  0.35897  1.0000
  H   H4321     1.0  0.94246  0.38833  0.29583  1.0000
  H   H4322     1.0  0.55786  0.41020  0.29568  1.0000
  H   H4323     1.0  0.61874  0.47241  0.35909  1.0000
  H   H4324     1.0  0.57222  0.46197  0.25556  1.0000
  H   H4325     1.0  0.60904  0.38847  0.40980  1.0000
  H   H4326     1.0  0.53346  0.43525  0.25408  1.0000
  C   C2449     1.0  0.64507  0.38165  0.47863  1.0000
  H   H4327     1.0  0.57023  0.47476  0.26972  1.0000
  H   H4328     1.0  0.57108  0.59823  0.34345  1.0000
  C   C2450     1.0  0.62845  0.38374  0.43041  1.0000
  H   H4329     1.0  0.61416  0.41359  0.41413  1.0000
  H   H4330     1.0  0.63145  0.45930  0.34580  1.0000
  H   H4331     1.0  0.54361  0.55787  0.33424  1.0000
  C   C2451     1.0  0.51985  0.47051  0.23863  1.0000
  H   H4332     1.0  0.65601  0.36607  0.25130  1.0000
  H   H4333     1.0  0.55547  0.61564  0.34938  1.0000
  N   N135      1.0  0.62332  0.48446  0.33313  1.0000
  C   C2452     1.0  0.62923  0.47900  0.31689  1.0000
  C   C2453     1.0  0.62036  0.46959  0.34679  1.0000
  C   C2454     1.0  0.60767  0.49765  0.33242  1.0000
  C   C2455     1.0  0.63613  0.49155  0.33643  1.0000
  C   C2456     1.0  0.65403  0.48081  0.33447  1.0000
  C   C2457     1.0  0.63355  0.49268  0.30144  1.0000
  C   C2458     1.0  0.59867  0.50352  0.34871  1.0000
  C   C2459     1.0  0.60554  0.46224  0.34726  1.0000
  C   C2460     1.0  0.66545  0.48820  0.33997  1.0000
  C   C2461     1.0  0.97166  0.36417  0.29569  1.0000
  H   H4334     1.0  0.61957  0.47408  0.31455  1.0000
  H   H4335     1.0  0.64007  0.46840  0.31731  1.0000
  H   H4336     1.0  0.59872  0.49355  0.32799  1.0000
  H   H4337     1.0  0.61031  0.50894  0.32308  1.0000
  H   H4338     1.0  0.63670  0.50402  0.32838  1.0000
  H   H4339     1.0  0.63241  0.49369  0.34924  1.0000
  H   H4340     1.0  0.65939  0.48006  0.32137  1.0000
  H   H4341     1.0  0.65429  0.46807  0.34198  1.0000
  H   H4342     1.0  0.62215  0.50197  0.29902  1.0000
  H   H4343     1.0  0.64248  0.49914  0.30290  1.0000
  H   H4344     1.0  0.60655  0.50971  0.35232  1.0000
  H   H4345     1.0  0.59372  0.47158  0.34785  1.0000
  H   H4346     1.0  0.60786  0.45714  0.33616  1.0000
  H   H4347     1.0  0.66598  0.50090  0.33258  1.0000
  H   H4348     1.0  0.66106  0.48858  0.35327  1.0000
  H   H4349     1.0  0.67820  0.48039  0.33822  1.0000
  H   H4350     1.0  0.55644  0.64397  0.25684  1.0000
  H   H4351     1.0  0.52772  0.62072  0.34348  1.0000
  H   H4352     1.0  0.58955  0.57453  0.27031  1.0000
  H   H4353     1.0  0.57631  0.52030  0.35826  1.0000
  H   H4354     1.0  0.63851  0.44192  0.41935  1.0000
  H   H4355     1.0  0.62557  0.37231  0.40431  1.0000
  H   H4356     1.0  0.79556  0.39059  0.47327  1.0000
  H   H4357     1.0  0.61504  0.38843  0.43543  1.0000
  H   H4358     1.0  0.60412  0.32179  0.46945  1.0000
  C   C2462     1.0  0.62783  0.40959  0.40977  1.0000
  H   H4359     1.0  0.56015  0.42897  0.27120  1.0000
  H   H4360     1.0  0.53775  0.49236  0.31238  1.0000
  H   H4361     1.0  0.96851  0.37487  0.31744  1.0000
  H   H4362     1.0  0.56394  0.61470  0.25483  1.0000
  H   H4363     1.0  0.62718  0.35868  0.42908  1.0000
  H   H4364     1.0  0.58129  0.43671  0.27706  1.0000
  H   H4365     1.0  0.73078  0.35716  0.42318  1.0000
  C   C2463     1.0  0.64124  0.48548  0.28603  1.0000
  H   H4366     1.0  0.79452  0.36719  0.46369  1.0000
  H   H4367     1.0  0.81191  0.39108  0.43491  1.0000
  H   H4368     1.0  0.65191  0.35946  0.40710  1.0000
  C   C2464     1.0  0.65119  0.38599  0.40535  1.0000
  C   C2465     1.0  0.57656  0.46269  0.26630  1.0000
  H   H4369     1.0  0.57682  0.41486  0.29662  1.0000
  H   H4370     1.0  0.60211  0.45094  0.25652  1.0000
  H   H4371     1.0  0.53989  0.41531  0.26704  1.0000
  H   H4372     1.0  0.53287  0.61402  0.32484  1.0000
  S   S560      1.0  0.55508  0.65105  0.32947  1.0000
  H   H4373     1.0  0.62909  0.34548  0.45815  1.0000
  H   H4374     1.0  0.99160  0.32359  0.28592  1.0000
  C   C2466     1.0  0.53331  0.43614  0.27915  1.0000
  C   C2467     1.0  0.52487  0.57964  0.32694  1.0000
  C   C2468     1.0  0.60300  0.44816  0.36234  1.0000
  C   C2469     1.0  0.65177  0.46127  0.23841  1.0000
  H   H4375     1.0  0.67992  0.36016  0.40830  1.0000
  H   H4376     1.0  0.73058  0.36276  0.36744  1.0000
  H   H4377     1.0  0.56959  0.39159  0.31878  1.0000
  H   H4378     1.0  0.54987  0.40421  0.32644  1.0000
  H   H4379     1.0  0.61127  0.36234  0.45670  1.0000
  H   H4380     1.0  0.54548  0.46275  0.31476  1.0000
  C   C2470     1.0  0.84615  0.34288  0.40073  1.0000
  H   H4381     1.0  0.52366  0.44777  0.27904  1.0000
  H   H4382     1.0  0.78882  0.32659  0.41609  1.0000
  H   H4383     1.0  0.54124  0.43358  0.30989  1.0000
  H   H4384     1.0  0.55969  0.43727  0.31210  1.0000
  H   H4385     1.0  0.53409  0.35142  0.23868  1.0000
  C   C2471     1.0  0.57325  0.44807  0.28106  1.0000
  C   C2472     1.0  0.76369  0.33127  0.41270  1.0000
  C   C2473     1.0  0.62238  0.38585  0.40347  1.0000
  C   C2474     1.0  0.59517  0.46249  0.26080  1.0000
  C   C2475     1.0  0.51782  0.58425  0.34409  1.0000
  C   C2476     1.0  0.84022  0.36142  0.40030  1.0000
  H   H4386     1.0  0.55109  0.58865  0.33467  1.0000
  N   N136      1.0  0.51430  0.60249  0.34387  1.0000
  C   C2477     1.0  0.54378  0.46207  0.28992  1.0000
  C   C2478     1.0  0.51410  0.59772  0.37507  1.0000
  H   H4387     1.0  0.60008  0.45273  0.37390  1.0000
  H   H4388     1.0  0.54334  0.47110  0.27801  1.0000
  H   H4389     1.0  0.65320  0.47666  0.28725  1.0000
  C   C2479     1.0  0.55440  0.43359  0.30350  1.0000
  N   N137      1.0  0.63276  0.39095  0.41211  1.0000
  H   H4390     1.0  0.83797  0.33929  0.39488  1.0000
  C   C2480     1.0  0.55155  0.64600  0.37516  1.0000
  H   H4391     1.0  0.68041  0.35339  0.39008  1.0000
  H   H4392     1.0  0.58064  0.57614  0.23782  1.0000
  H   H4393     1.0  0.97065  0.38930  0.29812  1.0000
  H   H4394     1.0  0.54412  0.59038  0.35573  1.0000
  H   H4395     1.0  0.52461  0.60378  0.37312  1.0000
  C   C2481     1.0  0.53609  0.48739  0.30244  1.0000
  C   C2482     1.0  0.55086  0.44006  0.27451  1.0000
  S   S561      1.0  0.79822  0.34330  0.43966  1.0000
  H   H4396     1.0  0.61712  0.39706  0.24401  1.0000
  C   C2483     1.0  0.99135  0.34055  0.30889  1.0000
  H   H4397     1.0  0.67110  0.34067  0.46604  1.0000
  H   H4398     1.0  0.94214  0.39457  0.31431  1.0000
  H   H4399     1.0  0.52284  0.48676  0.30474  1.0000
  S   S562      1.0  0.56588  0.55353  0.26532  1.0000
  H   H4400     1.0  0.56441  0.65022  0.23500  1.0000
  H   H4401     1.0  0.74473  0.33840  0.44388  1.0000
  C   C2484     1.0  0.55951  0.60705  0.34076  1.0000
  H   H4402     1.0  0.51927  0.59351  0.24591  1.0000
  H   H4403     1.0  0.60015  0.46340  0.27107  1.0000
  H   H4404     1.0  0.53159  0.65192  0.40388  1.0000
  H   H4405     1.0  0.71166  0.34774  0.39045  1.0000
  H   H4406     1.0  0.61423  0.43803  0.36220  1.0000
  H   H4407     1.0  0.74660  0.41439  0.46889  1.0000
  H   H4408     1.0  0.54949  0.62704  0.24208  1.0000
  H   H4409     1.0  0.65020  0.41400  0.41408  1.0000
  H   H4410     1.0  0.94025  0.37385  0.31557  1.0000
  H   H4411     1.0  0.76456  0.41975  0.45504  1.0000
  C   C2485     1.0  0.66384  0.35213  0.46949  1.0000
  H   H4412     1.0  0.83229  0.33491  0.42541  1.0000
  H   H4413     1.0  0.72886  0.37727  0.37996  1.0000
  H   H4414     1.0  0.64359  0.49558  0.27508  1.0000
  C   C2486     1.0  0.81175  0.37956  0.44462  1.0000
  C   C2487     1.0  0.52053  0.49447  0.25538  1.0000
  H   H4415     1.0  0.51471  0.58251  0.32018  1.0000
  H   H4416     1.0  0.63546  0.38781  0.43717  1.0000
  H   H4417     1.0  0.99431  0.35920  0.26807  1.0000
  H   H4418     1.0  0.59746  0.47316  0.25051  1.0000
  C   C2488     1.0  0.54745  0.47038  0.30203  1.0000
  H   H4419     1.0  0.56250  0.64730  0.36483  1.0000
  H   H4420     1.0  0.70739  0.33247  0.41636  1.0000
  N   N138      1.0  0.69855  0.40817  0.28542  1.0000
  C   C2489     1.0  0.70470  0.41884  0.26894  1.0000
  C   C2490     1.0  0.71248  0.40038  0.29464  1.0000
  C   C2491     1.0  0.69292  0.39439  0.28202  1.0000
  C   C2492     1.0  0.68389  0.41773  0.29576  1.0000
  C   C2493     1.0  0.68686  0.43271  0.30038  1.0000
  C   C2494     1.0  0.69162  0.42787  0.25824  1.0000
  C   C2495     1.0  0.68893  0.38010  0.29703  1.0000
  C   C2496     1.0  0.72565  0.41063  0.29246  1.0000
  C   C2497     1.0  0.73667  0.40274  0.30505  1.0000
  C   C2498     1.0  0.67063  0.44258  0.30881  1.0000
  C   C2499     1.0  0.69947  0.43748  0.24156  1.0000
  C   C2500     1.0  0.68341  0.36708  0.29188  1.0000
  H   H4421     1.0  0.71516  0.41121  0.26149  1.0000
  H   H4422     1.0  0.70992  0.42871  0.27041  1.0000
  H   H4423     1.0  0.70724  0.39658  0.30810  1.0000
  H   H4424     1.0  0.71989  0.38877  0.29061  1.0000
  H   H4425     1.0  0.70252  0.38863  0.27237  1.0000
  H   H4426     1.0  0.68150  0.39934  0.27693  1.0000
  H   H4427     1.0  0.67314  0.42205  0.28961  1.0000
  H   H4428     1.0  0.67943  0.40959  0.30768  1.0000
  H   H4429     1.0  0.69230  0.44127  0.28936  1.0000
  H   H4430     1.0  0.69512  0.42833  0.30932  1.0000
  H   H4431     1.0  0.50963  0.59524  0.40157  1.0000
  H   H4432     1.0  0.68193  0.43695  0.26453  1.0000
  H   H4433     1.0  0.67881  0.38473  0.30687  1.0000
  H   H4434     1.0  0.69991  0.37368  0.30250  1.0000
  H   H4435     1.0  0.73382  0.41108  0.27994  1.0000
  H   H4436     1.0  0.72007  0.42351  0.29379  1.0000
  H   H4437     1.0  0.74301  0.38987  0.30388  1.0000
  H   H4438     1.0  0.74628  0.41001  0.30289  1.0000
  H   H4439     1.0  0.72916  0.40264  0.31780  1.0000
  H   H4440     1.0  0.66184  0.44753  0.30038  1.0000
  H   H4441     1.0  0.66486  0.43465  0.32022  1.0000
  H   H4442     1.0  0.67313  0.45311  0.31221  1.0000
  H   H4443     1.0  0.99143  0.38638  0.27483  1.0000
  C   C2501     1.0  0.84549  0.33284  0.41872  1.0000
  H   H4444     1.0  0.97280  0.34870  0.32979  1.0000
  H   H4445     1.0  0.68029  0.35723  0.30286  1.0000
  H   H4446     1.0  0.67218  0.37267  0.28657  1.0000
  H   H4447     1.0  0.69349  0.36133  0.28264  1.0000
  H   H4448     1.0  0.76856  0.33314  0.39914  1.0000
  H   H4449     1.0  0.60149  0.56181  0.25564  1.0000
  H   H4450     1.0  0.79053  0.40515  0.45539  1.0000
  H   H4451     1.0  0.64601  0.35994  0.43399  1.0000
  S   S563      1.0  0.51182  0.64873  0.35924  1.0000
  C   C2502     1.0  0.75493  0.40273  0.44801  1.0000
  N   N139      1.0  0.55552  0.44598  0.28725  1.0000
  H   H4452     1.0  0.85894  0.34084  0.39315  1.0000
  C   C2503     1.0  0.79412  0.37930  0.45477  1.0000
  C   C2504     1.0  0.63162  0.43651  0.41364  1.0000
  C   C2505     1.0  0.74349  0.41639  0.43822  1.0000
  H   H4453     1.0  0.68235  0.37421  0.38838  1.0000
  H   H4454     1.0  0.53937  0.49604  0.29053  1.0000
  C   C2506     1.0  0.96523  0.37844  0.30522  1.0000
  Fe  Fe278     1.0  0.56148  0.54564  0.24448  1.0000
  C   C2507     1.0  0.53117  0.42754  0.26673  1.0000
  C   C2508     1.0  0.63236  0.36464  0.43587  1.0000
  C   C2509     1.0  0.63656  0.41763  0.41817  1.0000
  S   S564      1.0  0.52336  0.40897  0.23624  1.0000
  S   S565      1.0  0.53386  0.55145  0.25261  1.0000
  C   C2510     1.0  0.70999  0.42652  0.47782  1.0000
  H   H4455     1.0  0.74856  0.39223  0.45341  1.0000
  H   H4456     1.0  0.76644  0.39904  0.43904  1.0000
  C   C2511     1.0  0.54607  0.59760  0.34290  1.0000
  H   H4457     1.0  0.49945  0.63892  0.30521  1.0000
  H   H4458     1.0  0.65046  0.47306  0.24144  1.0000
  H   H4459     1.0  0.61138  0.57403  0.26246  1.0000
  C   C2512     1.0  0.50549  0.49160  0.25460  1.0000
  H   H4460     1.0  0.78629  0.37988  0.44630  1.0000
  C   C2513     1.0  0.50267  0.60064  0.39152  1.0000
  H   H4461     1.0  0.57821  0.44938  0.29121  1.0000
  H   H4462     1.0  0.65549  0.39581  0.39489  1.0000
  H   H4463     1.0  0.73128  0.42026  0.44631  1.0000
  H   H4464     1.0  0.74920  0.42732  0.43237  1.0000
  H   H4465     1.0  0.74134  0.41176  0.42829  1.0000
  H   H4466     1.0  0.50974  0.34623  0.26095  1.0000
  H   H4467     1.0  0.71086  0.37603  0.37374  1.0000
  H   H4468     1.0  0.53430  0.58680  0.31937  1.0000
  C   C2514     1.0  0.94636  0.38410  0.30786  1.0000
  C   C2515     1.0  0.56292  0.40441  0.31986  1.0000
  H   H4469     1.0  0.57494  0.40649  0.25745  1.0000
  H   H4470     1.0  0.65414  0.37179  0.38660  1.0000
  H   H4471     1.0  0.57824  0.63772  0.24852  1.0000
  H   H4472     1.0  0.61818  0.39174  0.36276  1.0000
  C   C2516     1.0  0.50307  0.61134  0.33188  1.0000
  C   C2517     1.0  0.62504  0.35910  0.45423  1.0000
  C   C2518     1.0  0.49543  0.62990  0.33189  1.0000
  H   H4473     1.0  0.50995  0.61061  0.31904  1.0000
  C   C2519     1.0  0.71849  0.35556  0.39329  1.0000
  C   C2520     1.0  0.69714  0.45562  0.47284  1.0000
  H   H4474     1.0  0.50682  0.36834  0.23332  1.0000
  C   C2521     1.0  0.99260  0.33234  0.26008  1.0000
  H   H4475     1.0  0.96344  0.35510  0.30119  1.0000
  C   C2522     1.0  0.72249  0.36867  0.37765  1.0000
  C   C2523     1.0  0.69990  0.44003  0.46927  1.0000
  H   H4476     1.0  0.78788  0.41800  0.47750  1.0000
  C   C2524     1.0  0.72116  0.34826  0.45816  1.0000
  H   H4477     1.0  0.63265  0.47903  0.28388  1.0000
  C   C2525     1.0  0.67619  0.36408  0.39622  1.0000
  C   C2526     1.0  0.78750  0.39366  0.46414  1.0000
  H   H4478     1.0  0.81636  0.36885  0.43850  1.0000
  H   H4479     1.0  0.71258  0.34935  0.43073  1.0000
  H   H4480     1.0  0.82757  0.36409  0.40810  1.0000
  H   H4481     1.0  0.62611  0.37251  0.37560  1.0000
  H   H4482     1.0  0.50119  0.61881  0.36075  1.0000
  H   H4483     1.0  0.56908  0.40884  0.32716  1.0000
  H   H4484     1.0  0.71029  0.36182  0.40317  1.0000
  H   H4485     1.0  0.70785  0.34786  0.46047  1.0000
  H   H4486     1.0  0.63071  0.41552  0.39643  1.0000
  C   C2527     1.0  0.64512  0.37660  0.25136  1.0000
  H   H4487     1.0  0.53086  0.46021  0.29497  1.0000
  H   H4488     1.0  0.60479  0.38338  0.38149  1.0000
  H   H4489     1.0  0.72544  0.34297  0.46993  1.0000
  H   H4490     1.0  0.56035  0.47219  0.29832  1.0000
  H   H4491     1.0  0.53093  0.42790  0.29149  1.0000
  C   C2528     1.0  0.53547  0.48512  0.24782  1.0000
  H   H4492     1.0  0.53715  0.55847  0.31582  1.0000
  H   H4493     1.0  0.52357  0.55361  0.33566  1.0000
  C   C2529     1.0  0.59598  0.58827  0.24497  1.0000
  H   H4494     1.0  0.54718  0.48715  0.24843  1.0000
  H   H4495     1.0  0.96916  0.36978  0.28309  1.0000
  C   C2530     1.0  0.63825  0.44041  0.47632  1.0000
  N   N140      1.0  0.76934  0.39665  0.47278  1.0000
  H   H4496     1.0  0.64784  0.38649  0.25565  1.0000
  H   H4497     1.0  0.64784  0.44727  0.46822  1.0000
  H   H4498     1.0  0.59501  0.59980  0.24899  1.0000
  C   C2531     1.0  0.56566  0.64002  0.24601  1.0000
  C   C2532     1.0  0.73152  0.33824  0.44529  1.0000
  H   H4499     1.0  0.53847  0.34883  0.25867  1.0000
  C   C2533     1.0  0.53513  0.47303  0.23952  1.0000
  H   H4500     1.0  0.98354  0.33195  0.30924  1.0000
  H   H4501     1.0  0.54297  0.64084  0.37132  1.0000
  H   H4502     1.0  0.63028  0.43931  0.46859  1.0000
  Fe  Fe279     1.0  0.55134  0.65129  0.30453  1.0000
  H   H4503     1.0  0.57796  0.49289  0.23543  1.0000
  C   C2534     1.0  0.56252  0.62428  0.24349  1.0000
  H   H4504     1.0  0.76767  0.43008  0.47471  1.0000
  C   C2535     1.0  0.50484  0.60538  0.36076  1.0000
  C   C2536     1.0  0.53099  0.35697  0.24968  1.0000
  C   C2537     1.0  0.54501  0.59564  0.23889  1.0000
  H   H4505     1.0  0.50140  0.54800  0.23654  1.0000
  H   H4506     1.0  0.54309  0.60256  0.24859  1.0000
  H   H4507     1.0  0.73019  0.32532  0.45045  1.0000
  H   H4508     1.0  0.73876  0.36365  0.48082  1.0000
  H   H4509     1.0  0.51043  0.36345  0.26896  1.0000
  H   H4510     1.0  0.63432  0.37213  0.26014  1.0000
  H   H4511     1.0  0.50464  0.63619  0.33296  1.0000
  H   H4512     1.0  0.98673  0.32249  0.25956  1.0000
  C   C2538     1.0  0.76372  0.38046  0.47940  1.0000
  H   H4513     1.0  0.98667  0.33084  0.35180  1.0000
  H   H4514     1.0  0.51164  0.65069  0.42686  1.0000
  Fe  Fe280     1.0  0.55014  0.39779  0.23735  1.0000
  C   C2539     1.0  0.98757  0.33551  0.27757  1.0000
  H   H4515     1.0  0.65363  0.41672  0.47446  1.0000
  H   H4516     1.0  0.70755  0.38059  0.47739  1.0000
  H   H4517     1.0  0.51875  0.58420  0.37626  1.0000
  H   H4518     1.0  0.71199  0.41436  0.47538  1.0000
  C   C2540     1.0  0.51250  0.35873  0.25762  1.0000
  C   C2541     1.0  0.99063  0.32815  0.33925  1.0000
  H   H4519     1.0  0.50457  0.38329  0.24459  1.0000
  N   N141      1.0  0.98962  0.35531  0.29472  1.0000
  H   H4520     1.0  0.49808  0.61412  0.39112  1.0000
  H   H4521     1.0  0.84856  0.32529  0.45138  1.0000
  H   H4522     1.0  0.60721  0.37803  0.23909  1.0000
  H   H4523     1.0  0.75999  0.34357  0.41596  1.0000
  H   H4524     1.0  0.69090  0.37129  0.47737  1.0000
  Fe  Fe281     1.0  0.78897  0.32369  0.46061  1.0000
  S   S566      1.0  0.76276  0.32424  0.47471  1.0000
  H   H4525     1.0  0.68973  0.44386  0.23429  1.0000
  C   C2542     1.0  0.64145  0.38293  0.23410  1.0000
  H   H4526     1.0  0.70910  0.42897  0.23443  1.0000
  H   H4527     1.0  0.99299  0.35299  0.32764  1.0000
  C   C2543     1.0  0.74877  0.32264  0.41763  1.0000
  H   H4528     1.0  0.63282  0.40840  0.23559  1.0000
  C   C2544     1.0  0.52825  0.59789  0.23460  1.0000
  H   H4529     1.0  0.61486  0.43247  0.23437  1.0000
  C   C2545     1.0  0.62762  0.39890  0.23329  1.0000
  H   H4530     1.0  0.49991  0.34462  0.23466  1.0000
  H   H4531     1.0  0.59692  0.53559  0.23410  1.0000
  H   H4532     1.0  0.54658  0.46606  0.23341  1.0000
  C   C2546     1.0  0.60187  0.32207  0.48270  1.0000
  H   H4533     1.0  0.68512  0.40520  0.48253  1.0000
  H   H4534     1.0  0.63767  0.39300  0.48212  1.0000
  H   H4535     1.0  0.88105  0.62779  0.68575  1.0000
  H   H4536     1.0  0.52272  0.54748  0.69946  1.0000
  Fe  Fe282     1.0  0.88269  0.57683  0.65472  1.0000
  S   S567      1.0  0.85531  0.58752  0.65987  1.0000
  S   S568      1.0  0.90259  0.59212  0.64506  1.0000
  Fe  Fe283     1.0  0.87759  0.54132  0.66338  1.0000
  S   S569      1.0  0.84993  0.54911  0.67010  1.0000
  S   S570      1.0  0.88800  0.51481  0.66102  1.0000
  Fe  Fe284     1.0  0.85269  0.56884  0.64729  1.0000
  S   S571      1.0  0.83603  0.57470  0.62917  1.0000
  Fe  Fe285     1.0  0.85477  0.56682  0.68227  1.0000
  S   S572      1.0  0.83779  0.57258  0.70582  1.0000
  S   S573      1.0  0.88023  0.56021  0.63965  1.0000
  S   S574      1.0  0.88238  0.55703  0.67800  1.0000
  Fe  Fe286     1.0  0.87841  0.41096  0.71791  1.0000
  C   C2547     1.0  0.76320  0.49893  0.60129  1.0000
  H   H4537     1.0  0.91710  0.43063  0.66039  1.0000
  H   H4538     1.0  0.93380  0.42894  0.68035  1.0000
  S   S575      1.0  0.86106  0.40695  0.70469  1.0000
  S   S576      1.0  0.90324  0.41782  0.70719  1.0000
  Fe  Fe287     1.0  0.81912  0.47142  0.64378  1.0000
  S   S577      1.0  0.80062  0.45522  0.65357  1.0000
  S   S578      1.0  0.84656  0.46295  0.64266  1.0000
  Fe  Fe288     1.0  0.79311  0.50219  0.63607  1.0000
  S   S579      1.0  0.77219  0.48842  0.64488  1.0000
  S   S580      1.0  0.79045  0.52936  0.62426  1.0000
  Fe  Fe289     1.0  0.78511  0.47576  0.66614  1.0000
  S   S581      1.0  0.77249  0.46884  0.69304  1.0000
  Fe  Fe290     1.0  0.78943  0.46882  0.63149  1.0000
  S   S582      1.0  0.78807  0.45423  0.61310  1.0000
  S   S583      1.0  0.80461  0.49086  0.65802  1.0000
  S   S584      1.0  0.80921  0.48389  0.62103  1.0000
  Fe  Fe291     1.0  0.75313  0.39889  0.54249  1.0000
  S   S585      1.0  0.75193  0.42580  0.54039  1.0000
  S   S586      1.0  0.77686  0.38295  0.53187  1.0000
  Fe  Fe292     1.0  0.71643  0.40136  0.55637  1.0000
  S   S587      1.0  0.71250  0.42847  0.55550  1.0000
  S   S588      1.0  0.69257  0.39209  0.56358  1.0000
  Fe  Fe293     1.0  0.72917  0.42937  0.53037  1.0000
  S   S589      1.0  0.72305  0.44860  0.50790  1.0000
  Fe  Fe294     1.0  0.73559  0.42214  0.56583  1.0000
  S   S590      1.0  0.73427  0.43368  0.58751  1.0000
  S   S591      1.0  0.73168  0.40284  0.53069  1.0000
  S   S592      1.0  0.73825  0.39469  0.56859  1.0000
  H   H4539     1.0  0.84855  0.51065  0.58414  1.0000
  C   C2548     1.0  0.68191  0.34766  0.64245  1.0000
  H   H4540     1.0  0.77492  0.50219  0.60125  1.0000
  H   H4541     1.0  0.76722  0.46833  0.57188  1.0000
  H   H4542     1.0  0.92931  0.46696  0.69231  1.0000
  H   H4543     1.0  0.73707  0.50126  0.58830  1.0000
  S   S593      1.0  0.63233  0.36614  0.50984  1.0000
  H   H4544     1.0  0.73163  0.49939  0.53973  1.0000
  C   C2549     1.0  0.76607  0.33709  0.52346  1.0000
  H   H4545     1.0  0.68875  0.48871  0.58621  1.0000
  H   H4546     1.0  0.64758  0.35773  0.61279  1.0000
  H   H4547     1.0  0.49855  0.52274  0.71207  1.0000
  C   C2550     1.0  0.69092  0.37386  0.55902  1.0000
  C   C2551     1.0  0.70433  0.36034  0.55800  1.0000
  C   C2552     1.0  0.70164  0.34483  0.55821  1.0000
  C   C2553     1.0  0.68572  0.34301  0.55860  1.0000
  C   C2554     1.0  0.67266  0.35690  0.55807  1.0000
  C   C2555     1.0  0.67521  0.37221  0.55858  1.0000
  H   H4548     1.0  0.71655  0.36158  0.55801  1.0000
  H   H4549     1.0  0.74279  0.34265  0.54052  1.0000
  H   H4550     1.0  0.66036  0.35559  0.55835  1.0000
  H   H4551     1.0  0.66480  0.38264  0.55932  1.0000
  C   C2556     1.0  0.77262  0.36541  0.52853  1.0000
  H   H4552     1.0  0.75862  0.42965  0.50441  1.0000
  C   C2557     1.0  0.65660  0.35555  0.60120  1.0000
  H   H4553     1.0  0.74890  0.35467  0.49805  1.0000
  H   H4554     1.0  0.93854  0.50590  0.66392  1.0000
  C   C2558     1.0  0.78432  0.35612  0.51781  1.0000
  C   C2559     1.0  0.74173  0.50557  0.53884  1.0000
  H   H4555     1.0  0.76197  0.48734  0.61071  1.0000
  C   C2560     1.0  0.73173  0.48082  0.57114  1.0000
  H   H4556     1.0  0.79598  0.35976  0.51162  1.0000
  C   C2561     1.0  0.76253  0.47723  0.72320  1.0000
  H   H4557     1.0  0.67501  0.33938  0.61406  1.0000
  C   C2562     1.0  0.80790  0.42585  0.71036  1.0000
  H   H4558     1.0  0.85300  0.55746  0.60090  1.0000
  C   C2563     1.0  0.77294  0.44775  0.60694  1.0000
  C   C2564     1.0  0.75611  0.45064  0.61461  1.0000
  C   C2565     1.0  0.74458  0.44586  0.60874  1.0000
  C   C2566     1.0  0.74966  0.43807  0.59520  1.0000
  C   C2567     1.0  0.76656  0.43480  0.58781  1.0000
  C   C2568     1.0  0.77809  0.43964  0.59362  1.0000
  H   H4559     1.0  0.75192  0.45675  0.62492  1.0000
  H   H4560     1.0  0.73155  0.44842  0.61462  1.0000
  H   H4561     1.0  0.77072  0.42880  0.57742  1.0000
  H   H4562     1.0  0.79104  0.43739  0.58750  1.0000
  C   C2569     1.0  0.77386  0.47880  0.70798  1.0000
  C   C2570     1.0  0.78602  0.48794  0.70523  1.0000
  H   H4563     1.0  0.84597  0.46650  0.69519  1.0000
  H   H4564     1.0  0.84449  0.49102  0.59704  1.0000
  C   C2571     1.0  0.69671  0.34647  0.62739  1.0000
  C   C2572     1.0  0.72738  0.35379  0.60021  1.0000
  H   H4565     1.0  0.79495  0.48913  0.69365  1.0000
  C   C2573     1.0  0.94056  0.43570  0.71319  1.0000
  C   C2574     1.0  0.93148  0.44251  0.67950  1.0000
  C   C2575     1.0  0.85714  0.42275  0.68763  1.0000
  C   C2576     1.0  0.86582  0.43556  0.68200  1.0000
  C   C2577     1.0  0.86269  0.44789  0.66803  1.0000
  C   C2578     1.0  0.85049  0.44767  0.66011  1.0000
  C   C2579     1.0  0.84159  0.43507  0.66601  1.0000
  C   C2580     1.0  0.84509  0.42248  0.67958  1.0000
  H   H4566     1.0  0.87497  0.43590  0.68835  1.0000
  H   H4567     1.0  0.86950  0.45772  0.66357  1.0000
  H   H4568     1.0  0.83224  0.43484  0.65992  1.0000
  H   H4569     1.0  0.83839  0.41257  0.68392  1.0000
  C   C2581     1.0  0.82340  0.56153  0.62888  1.0000
  C   C2582     1.0  0.82050  0.54771  0.64153  1.0000
  C   C2583     1.0  0.81045  0.53758  0.64036  1.0000
  C   C2584     1.0  0.80331  0.54129  0.62656  1.0000
  C   C2585     1.0  0.80600  0.55528  0.61421  1.0000
  C   C2586     1.0  0.81598  0.56527  0.61534  1.0000
  H   H4570     1.0  0.82586  0.54492  0.65221  1.0000
  H   H4571     1.0  0.80807  0.52706  0.65020  1.0000
  H   H4572     1.0  0.80036  0.55841  0.60364  1.0000
  H   H4573     1.0  0.81798  0.57599  0.60561  1.0000
  H   H4574     1.0  0.81280  0.43440  0.69898  1.0000
  C   C2587     1.0  0.93690  0.49565  0.67489  1.0000
  H   H4575     1.0  0.70344  0.46927  0.58941  1.0000
  H   H4576     1.0  0.69813  0.33463  0.62367  1.0000
  H   H4577     1.0  0.96462  0.43686  0.69694  1.0000
  C   C2588     1.0  0.71697  0.42875  0.49003  1.0000
  H   H4578     1.0  0.89472  0.63678  0.63618  1.0000
  C   C2589     1.0  0.74426  0.50533  0.55602  1.0000
  H   H4579     1.0  0.70018  0.47945  0.56887  1.0000
  H   H4580     1.0  0.86278  0.54257  0.71121  1.0000
  C   C2590     1.0  0.88813  0.49999  0.67954  1.0000
  C   C2591     1.0  0.88799  0.48363  0.67979  1.0000
  C   C2592     1.0  0.89034  0.47113  0.69380  1.0000
  C   C2593     1.0  0.89361  0.47485  0.70725  1.0000
  C   C2594     1.0  0.89305  0.49128  0.70731  1.0000
  C   C2595     1.0  0.88994  0.50392  0.69358  1.0000
  H   H4581     1.0  0.88643  0.48053  0.66903  1.0000
  H   H4582     1.0  0.89033  0.45852  0.69396  1.0000
  H   H4583     1.0  0.57322  0.32757  0.58604  1.0000
  H   H4584     1.0  0.88999  0.51654  0.69348  1.0000
  C   C2596     1.0  0.90546  0.63067  0.67170  1.0000
  C   C2597     1.0  0.91891  0.62491  0.65975  1.0000
  C   C2598     1.0  0.91806  0.61275  0.65203  1.0000
  C   C2599     1.0  0.90386  0.60601  0.65636  1.0000
  C   C2600     1.0  0.89064  0.61128  0.66877  1.0000
  C   C2601     1.0  0.89143  0.62359  0.67636  1.0000
  H   H4585     1.0  0.92998  0.62985  0.65646  1.0000
  H   H4586     1.0  0.92842  0.60860  0.64260  1.0000
  H   H4587     1.0  0.87965  0.60612  0.67228  1.0000
  H   H4588     1.0  0.70234  0.47014  0.48688  1.0000
  C   C2602     1.0  0.86818  0.62836  0.63179  1.0000
  C   C2603     1.0  0.64648  0.42316  0.48457  1.0000
  H   H4589     1.0  0.89942  0.63218  0.61651  1.0000
  H   H4590     1.0  0.82889  0.44547  0.70708  1.0000
  H   H4591     1.0  0.65022  0.43254  0.50361  1.0000
  H   H4592     1.0  0.70831  0.34440  0.59599  1.0000
  H   H4593     1.0  0.91766  0.64798  0.63198  1.0000
  H   H4594     1.0  0.85487  0.63020  0.63165  1.0000
  H   H4595     1.0  0.87543  0.61851  0.62496  1.0000
  H   H4596     1.0  0.86954  0.62414  0.64482  1.0000
  C   C2604     1.0  0.94221  0.46435  0.68484  1.0000
  H   H4597     1.0  0.75268  0.50906  0.60481  1.0000
  H   H4598     1.0  0.77491  0.48689  0.58113  1.0000
  H   H4599     1.0  0.93758  0.47879  0.66028  1.0000
  H   H4600     1.0  0.87164  0.64866  0.61125  1.0000
  C   C2605     1.0  0.96674  0.42852  0.66190  1.0000
  H   H4601     1.0  0.74656  0.48004  0.59378  1.0000
  C   C2606     1.0  0.76127  0.46592  0.55040  1.0000
  H   H4602     1.0  0.75533  0.51072  0.55361  1.0000
  H   H4603     1.0  0.73043  0.47779  0.55990  1.0000
  H   H4604     1.0  0.73802  0.35771  0.57379  1.0000
  H   H4605     1.0  0.89540  0.49421  0.71781  1.0000
  C   C2607     1.0  0.77856  0.45714  0.54273  1.0000
  C   C2608     1.0  0.73723  0.52331  0.52915  1.0000
  H   H4606     1.0  0.75345  0.49947  0.53153  1.0000
  H   H4607     1.0  0.75439  0.45620  0.55802  1.0000
  H   H4608     1.0  0.75481  0.47283  0.54029  1.0000
  H   H4609     1.0  0.78537  0.44959  0.55249  1.0000
  H   H4610     1.0  0.77744  0.44878  0.53543  1.0000
  H   H4611     1.0  0.73588  0.52314  0.51674  1.0000
  H   H4612     1.0  0.74712  0.53009  0.52755  1.0000
  N   N142      1.0  0.82961  0.41114  0.62687  1.0000
  C   C2609     1.0  0.83339  0.40387  0.61182  1.0000
  C   C2610     1.0  0.84226  0.40195  0.63721  1.0000
  C   C2611     1.0  0.81218  0.40973  0.63626  1.0000
  C   C2612     1.0  0.83039  0.42921  0.62212  1.0000
  C   C2613     1.0  0.84713  0.43335  0.61144  1.0000
  C   C2614     1.0  0.82333  0.41375  0.59842  1.0000
  C   C2615     1.0  0.80769  0.41155  0.65447  1.0000
  C   C2616     1.0  0.84307  0.38310  0.64336  1.0000
  H   H4613     1.0  0.52501  0.33118  0.55709  1.0000
  C   C2617     1.0  0.84513  0.45178  0.60356  1.0000
  C   C2618     1.0  0.82683  0.40455  0.58454  1.0000
  C   C2619     1.0  0.78889  0.41495  0.66102  1.0000
  H   H4614     1.0  0.83091  0.39115  0.61548  1.0000
  H   H4615     1.0  0.84684  0.40212  0.60593  1.0000
  H   H4616     1.0  0.85497  0.40319  0.63008  1.0000
  H   H4617     1.0  0.84035  0.40764  0.64796  1.0000
  H   H4618     1.0  0.80955  0.39769  0.63637  1.0000
  H   H4619     1.0  0.80296  0.41921  0.62979  1.0000
  H   H4620     1.0  0.82032  0.43661  0.61564  1.0000
  H   H4621     1.0  0.82784  0.43437  0.63327  1.0000
  H   H4622     1.0  0.85225  0.42661  0.60127  1.0000
  H   H4623     1.0  0.85640  0.43013  0.61929  1.0000
  H   H4624     1.0  0.80980  0.41575  0.60378  1.0000
  H   H4625     1.0  0.82662  0.42600  0.59279  1.0000
  H   H4626     1.0  0.81247  0.42167  0.65587  1.0000
  H   H4627     1.0  0.81322  0.40005  0.66246  1.0000
  H   H4628     1.0  0.83060  0.38024  0.64871  1.0000
  H   H4629     1.0  0.84891  0.37673  0.63291  1.0000
  C   C2620     1.0  0.65794  0.42425  0.49526  1.0000
  H   H4630     1.0  0.94331  0.49678  0.68402  1.0000
  H   H4631     1.0  0.81082  0.46142  0.70925  1.0000
  H   H4632     1.0  0.84023  0.45924  0.61318  1.0000
  H   H4633     1.0  0.85736  0.45453  0.59651  1.0000
  H   H4634     1.0  0.83648  0.45550  0.59500  1.0000
  H   H4635     1.0  0.84022  0.40257  0.57848  1.0000
  H   H4636     1.0  0.82312  0.39241  0.58939  1.0000
  H   H4637     1.0  0.81954  0.41199  0.57512  1.0000
  H   H4638     1.0  0.84058  0.45492  0.72570  1.0000
  H   H4639     1.0  0.78366  0.40469  0.66038  1.0000
  H   H4640     1.0  0.97249  0.41912  0.67157  1.0000
  N   N143      1.0  0.78800  0.55092  0.70524  1.0000
  C   C2621     1.0  0.79227  0.56263  0.68893  1.0000
  C   C2622     1.0  0.77478  0.54246  0.70476  1.0000
  C   C2623     1.0  0.71125  0.33155  0.51671  1.0000
  C   C2624     1.0  0.80305  0.53852  0.71013  1.0000
  C   C2625     1.0  0.81517  0.52927  0.69700  1.0000
  C   C2626     1.0  0.80496  0.57296  0.68781  1.0000
  C   C2627     1.0  0.83032  0.46304  0.71996  1.0000
  C   C2628     1.0  0.77568  0.53759  0.68837  1.0000
  C   C2629     1.0  0.76178  0.52877  0.69013  1.0000
  C   C2630     1.0  0.83068  0.51910  0.70341  1.0000
  C   C2631     1.0  0.80918  0.58333  0.67042  1.0000
  H   H4641     1.0  0.74846  0.36788  0.54471  1.0000
  H   H4642     1.0  0.78077  0.57146  0.68588  1.0000
  H   H4643     1.0  0.79736  0.55589  0.67870  1.0000
  H   H4644     1.0  0.77443  0.53116  0.71473  1.0000
  H   H4645     1.0  0.76225  0.55062  0.70742  1.0000
  H   H4646     1.0  0.80125  0.41250  0.69596  1.0000
  H   H4647     1.0  0.71836  0.34147  0.51300  1.0000
  H   H4648     1.0  0.82801  0.48314  0.69858  1.0000
  H   H4649     1.0  0.82736  0.50965  0.71471  1.0000
  H   H4650     1.0  0.81929  0.53785  0.68538  1.0000
  H   H4651     1.0  0.80942  0.52057  0.69423  1.0000
  H   H4652     1.0  0.80001  0.58167  0.69629  1.0000
  H   H4653     1.0  0.81660  0.56472  0.69082  1.0000
  H   H4654     1.0  0.92344  0.49698  0.68036  1.0000
  C   C2632     1.0  0.85350  0.37573  0.65650  1.0000
  H   H4655     1.0  0.77403  0.54875  0.67831  1.0000
  H   H4656     1.0  0.78762  0.52934  0.68435  1.0000
  H   H4657     1.0  0.76334  0.52450  0.67862  1.0000
  H   H4658     1.0  0.76201  0.51785  0.70054  1.0000
  H   H4659     1.0  0.74948  0.53732  0.69233  1.0000
  Fe  Fe295     1.0  0.89498  0.43404  0.72573  1.0000
  H   H4660     1.0  0.52458  0.33025  0.58332  1.0000
  N   N144      1.0  0.81163  0.44132  0.73072  1.0000
  H   H4661     1.0  0.79788  0.59188  0.66676  1.0000
  H   H4662     1.0  0.81810  0.59079  0.67000  1.0000
  H   H4663     1.0  0.81500  0.57518  0.66146  1.0000
  H   H4664     1.0  0.73834  0.33629  0.58389  1.0000
  H   H4665     1.0  0.91878  0.46460  0.66441  1.0000
  H   H4666     1.0  0.83710  0.52725  0.70629  1.0000
  N   N145      1.0  0.69578  0.36085  0.61278  1.0000
  H   H4667     1.0  0.97466  0.43787  0.63545  1.0000
  C   C2633     1.0  0.70929  0.35615  0.59842  1.0000
  C   C2634     1.0  0.69791  0.37577  0.61743  1.0000
  C   C2635     1.0  0.67927  0.36496  0.60786  1.0000
  H   H4668     1.0  0.93774  0.44813  0.71605  1.0000
  H   H4669     1.0  0.71185  0.33416  0.55837  1.0000
  C   C2636     1.0  0.69863  0.39151  0.60344  1.0000
  C   C2637     1.0  0.78073  0.56113  0.71835  1.0000
  H   H4670     1.0  0.81054  0.54466  0.71443  1.0000
  S   S594      1.0  0.90013  0.45899  0.72329  1.0000
  H   H4671     1.0  0.74544  0.38337  0.50238  1.0000
  C   C2638     1.0  0.70298  0.40505  0.60890  1.0000
  Fe  Fe296     1.0  0.91143  0.39792  0.72813  1.0000
  H   H4672     1.0  0.72779  0.36619  0.50138  1.0000
  C   C2639     1.0  0.74584  0.38147  0.49001  1.0000
  H   H4673     1.0  0.70769  0.36546  0.58691  1.0000
  H   H4674     1.0  0.70922  0.37269  0.62262  1.0000
  H   H4675     1.0  0.68744  0.37954  0.62750  1.0000
  H   H4676     1.0  0.66913  0.37023  0.61742  1.0000
  H   H4677     1.0  0.67919  0.37493  0.59652  1.0000
  H   H4678     1.0  0.79006  0.33485  0.50695  1.0000
  C   C2640     1.0  0.97988  0.42914  0.64582  1.0000
  H   H4679     1.0  0.49612  0.54200  0.69800  1.0000
  H   H4680     1.0  0.66885  0.39469  0.48589  1.0000
  H   H4681     1.0  0.68643  0.39663  0.59988  1.0000
  H   H4682     1.0  0.70810  0.38891  0.59235  1.0000
  H   H4683     1.0  0.72978  0.36553  0.60114  1.0000
  H   H4684     1.0  0.79009  0.44566  0.72049  1.0000
  H   H4685     1.0  0.96000  0.42594  0.72741  1.0000
  H   H4686     1.0  0.78497  0.42935  0.70223  1.0000
  H   H4687     1.0  0.68058  0.35875  0.64733  1.0000
  H   H4688     1.0  0.99078  0.43305  0.64703  1.0000
  H   H4689     1.0  0.53048  0.33190  0.52738  1.0000
  H   H4690     1.0  0.63650  0.41670  0.49225  1.0000
  H   H4691     1.0  0.70808  0.34494  0.63204  1.0000
  C   C2641     1.0  0.87408  0.64456  0.62388  1.0000
  C   C2642     1.0  0.52101  0.54013  0.71234  1.0000
  H   H4692     1.0  0.70300  0.41625  0.59875  1.0000
  H   H4693     1.0  0.69373  0.40845  0.61992  1.0000
  H   H4694     1.0  0.71556  0.40091  0.61172  1.0000
  H   H4695     1.0  0.71142  0.50297  0.56986  1.0000
  C   C2643     1.0  0.83798  0.47404  0.70419  1.0000
  H   H4696     1.0  0.85424  0.36217  0.66045  1.0000
  H   H4697     1.0  0.78578  0.46628  0.53435  1.0000
  C   C2644     1.0  0.83869  0.55538  0.72218  1.0000
  H   H4698     1.0  0.95471  0.42203  0.69475  1.0000
  H   H4699     1.0  0.97164  0.44899  0.66870  1.0000
  H   H4700     1.0  0.77217  0.37163  0.48722  1.0000
  C   C2645     1.0  0.77204  0.42649  0.49878  1.0000
  H   H4701     1.0  0.83954  0.51278  0.69388  1.0000
  C   C2646     1.0  0.82011  0.45266  0.71609  1.0000
  S   S595      1.0  0.93539  0.37927  0.72402  1.0000
  C   C2647     1.0  0.96074  0.44570  0.66662  1.0000
  H   H4702     1.0  0.78282  0.42672  0.65373  1.0000
  S   S596      1.0  0.63603  0.33367  0.55189  1.0000
  C   C2648     1.0  0.85247  0.54218  0.72173  1.0000
  H   H4703     1.0  0.95634  0.42427  0.66012  1.0000
  H   H4704     1.0  0.67370  0.33363  0.66706  1.0000
  H   H4705     1.0  0.95049  0.41044  0.72514  1.0000
  H   H4706     1.0  0.69589  0.33153  0.66069  1.0000
  H   H4707     1.0  0.72527  0.52999  0.53561  1.0000
  N   N146      1.0  0.94656  0.44710  0.68143  1.0000
  C   C2649     1.0  0.84152  0.50461  0.59607  1.0000
  C   C2650     1.0  0.67681  0.39787  0.49231  1.0000
  H   H4708     1.0  0.54682  0.32504  0.54860  1.0000
  H   H4709     1.0  0.70555  0.36056  0.49023  1.0000
  H   H4710     1.0  0.77212  0.48427  0.55459  1.0000
  C   C2651     1.0  0.73981  0.34830  0.58521  1.0000
  H   H4711     1.0  0.79573  0.50293  0.71527  1.0000
  C   C2652     1.0  0.75755  0.36069  0.53650  1.0000
  H   H4712     1.0  0.52762  0.54448  0.71927  1.0000
  C   C2653     1.0  0.92478  0.45158  0.66369  1.0000
  H   H4713     1.0  0.92093  0.44497  0.68999  1.0000
  H   H4714     1.0  0.72995  0.34420  0.61128  1.0000
  H   H4715     1.0  0.70060  0.33456  0.52688  1.0000
  C   C2654     1.0  0.67434  0.35054  0.60396  1.0000
  C   C2655     1.0  0.79513  0.41907  0.70621  1.0000
  H   H4716     1.0  0.92875  0.43250  0.71358  1.0000
  C   C2656     1.0  0.91162  0.44356  0.66191  1.0000
  H   H4717     1.0  0.83344  0.42182  0.72692  1.0000
  N   N147      1.0  0.74641  0.48872  0.56777  1.0000
  H   H4718     1.0  0.77060  0.57159  0.71453  1.0000
  H   H4719     1.0  0.90126  0.44347  0.67288  1.0000
  H   H4720     1.0  0.93463  0.45133  0.65234  1.0000
  C   C2657     1.0  0.70093  0.48147  0.58083  1.0000
  N   N148      1.0  0.66641  0.40809  0.50475  1.0000
  H   H4721     1.0  0.72444  0.41832  0.49683  1.0000
  C   C2658     1.0  0.67787  0.41111  0.51386  1.0000
  H   H4722     1.0  0.73685  0.39173  0.48415  1.0000
  C   C2659     1.0  0.65410  0.39843  0.51655  1.0000
  C   C2660     1.0  0.64133  0.40731  0.52957  1.0000
  S   S597      1.0  0.90565  0.64681  0.68080  1.0000
  C   C2661     1.0  0.68753  0.38101  0.49926  1.0000
  C   C2662     1.0  0.67355  0.42821  0.51870  1.0000
  C   C2663     1.0  0.68443  0.42875  0.52985  1.0000
  C   C2664     1.0  0.62954  0.39622  0.54057  1.0000
  H   H4723     1.0  0.76516  0.50833  0.57531  1.0000
  H   H4724     1.0  0.65505  0.36696  0.59142  1.0000
  C   C2665     1.0  0.94398  0.47902  0.66974  1.0000
  H   H4725     1.0  0.95645  0.62834  0.60580  1.0000
  H   H4726     1.0  0.67909  0.40125  0.52522  1.0000
  H   H4727     1.0  0.69072  0.41024  0.50625  1.0000
  H   H4728     1.0  0.84580  0.48087  0.70705  1.0000
  C   C2666     1.0  0.78653  0.49571  0.71752  1.0000
  H   H4729     1.0  0.64724  0.39422  0.50971  1.0000
  H   H4730     1.0  0.66067  0.38684  0.52366  1.0000
  H   H4731     1.0  0.63367  0.41885  0.52368  1.0000
  H   H4732     1.0  0.64776  0.41021  0.53768  1.0000
  H   H4733     1.0  0.73377  0.51434  0.56174  1.0000
  H   H4734     1.0  0.95731  0.47861  0.66388  1.0000
  H   H4735     1.0  0.67953  0.37235  0.50710  1.0000
  H   H4736     1.0  0.75311  0.47018  0.72547  1.0000
  H   H4737     1.0  0.67570  0.43804  0.50741  1.0000
  H   H4738     1.0  0.66045  0.43134  0.52527  1.0000
  H   H4739     1.0  0.68292  0.44171  0.53088  1.0000
  H   H4740     1.0  0.68064  0.42133  0.54237  1.0000
  H   H4741     1.0  0.69772  0.42396  0.52480  1.0000
  H   H4742     1.0  0.62256  0.39308  0.53308  1.0000
  H   H4743     1.0  0.63655  0.38458  0.54714  1.0000
  H   H4744     1.0  0.62049  0.40276  0.54990  1.0000
  C   C2667     1.0  0.71456  0.49087  0.57833  1.0000
  Fe  Fe297     1.0  0.64134  0.34090  0.52424  1.0000
  C   C2668     1.0  0.78095  0.34207  0.51511  1.0000
  C   C2669     1.0  0.65325  0.35180  0.48504  1.0000
  C   C2670     1.0  0.76367  0.49653  0.58420  1.0000
  H   H4745     1.0  0.73383  0.46871  0.57993  1.0000
  N   N149      1.0  0.87076  0.50815  0.62234  1.0000
  C   C2671     1.0  0.86684  0.52680  0.61979  1.0000
  C   C2672     1.0  0.86408  0.50033  0.64005  1.0000
  C   C2673     1.0  0.88944  0.50253  0.61900  1.0000
  C   C2674     1.0  0.86434  0.50233  0.61068  1.0000
  C   C2675     1.0  0.84563  0.50868  0.61052  1.0000
  C   C2676     1.0  0.87378  0.53628  0.60223  1.0000
  C   C2677     1.0  0.89627  0.48350  0.62248  1.0000
  C   C2678     1.0  0.84766  0.50975  0.64918  1.0000
  C   C2679     1.0  0.84143  0.49920  0.66590  1.0000
  C   C2680     1.0  0.86661  0.55485  0.59999  1.0000
  C   C2681     1.0  0.91512  0.47945  0.62056  1.0000
  H   H4746     1.0  0.87174  0.53050  0.62871  1.0000
  H   H4747     1.0  0.85328  0.53186  0.62273  1.0000
  H   H4748     1.0  0.86260  0.48765  0.64096  1.0000
  H   H4749     1.0  0.87310  0.49860  0.64780  1.0000
  H   H4750     1.0  0.89464  0.50787  0.62648  1.0000
  H   H4751     1.0  0.89504  0.50721  0.60588  1.0000
  H   H4752     1.0  0.87161  0.50537  0.59786  1.0000
  H   H4753     1.0  0.86638  0.48859  0.61370  1.0000
  H   H4754     1.0  0.84162  0.52226  0.60928  1.0000
  H   H4755     1.0  0.83811  0.50247  0.62197  1.0000
  H   H4756     1.0  0.88746  0.53452  0.60007  1.0000
  H   H4757     1.0  0.87071  0.53208  0.59255  1.0000
  H   H4758     1.0  0.89339  0.47791  0.61365  1.0000
  H   H4759     1.0  0.89094  0.47740  0.63518  1.0000
  H   H4760     1.0  0.84964  0.52114  0.65145  1.0000
  H   H4761     1.0  0.83790  0.51321  0.64205  1.0000
  H   H4762     1.0  0.85074  0.49603  0.67369  1.0000
  H   H4763     1.0  0.82957  0.50619  0.67213  1.0000
  H   H4764     1.0  0.83918  0.48760  0.66441  1.0000
  H   H4765     1.0  0.82806  0.50933  0.59627  1.0000
  H   H4766     1.0  0.87237  0.56134  0.58762  1.0000
  H   H4767     1.0  0.91851  0.48403  0.62985  1.0000
  H   H4768     1.0  0.91981  0.46585  0.62252  1.0000
  H   H4769     1.0  0.92121  0.48520  0.60798  1.0000
  H   H4770     1.0  0.90646  0.45063  0.65093  1.0000
  H   H4771     1.0  0.71427  0.49300  0.59055  1.0000
  H   H4772     1.0  0.77709  0.43785  0.49562  1.0000
  H   H4773     1.0  0.63040  0.44752  0.48574  1.0000
  S   S598      1.0  0.66880  0.33089  0.52058  1.0000
  H   H4774     1.0  0.70664  0.33123  0.50599  1.0000
  H   H4775     1.0  0.75267  0.34683  0.58663  1.0000
  C   C2682     1.0  0.75437  0.34641  0.53415  1.0000
  C   C2683     1.0  0.76227  0.47718  0.56137  1.0000
  H   H4776     1.0  0.95031  0.46532  0.69257  1.0000
  H   H4777     1.0  0.86912  0.55984  0.60947  1.0000
  H   H4778     1.0  0.67007  0.34828  0.63915  1.0000
  C   C2684     1.0  0.74761  0.49145  0.58402  1.0000
  H   H4779     1.0  0.78598  0.41613  0.67407  1.0000
  H   H4780     1.0  0.65384  0.34549  0.59722  1.0000
  H   H4781     1.0  0.95760  0.45479  0.65545  1.0000
  C   C2685     1.0  0.71428  0.44455  0.49333  1.0000
  C   C2686     1.0  0.50258  0.54235  0.72061  1.0000
  H   H4782     1.0  0.65226  0.34006  0.49336  1.0000
  H   H4783     1.0  0.86631  0.37791  0.65154  1.0000
  H   H4784     1.0  0.69563  0.38237  0.50669  1.0000
  H   H4785     1.0  0.95205  0.64892  0.60952  1.0000
  H   H4786     1.0  0.77432  0.39476  0.49666  1.0000
  C   C2687     1.0  0.93032  0.64033  0.60927  1.0000
  H   H4787     1.0  0.84780  0.38132  0.66751  1.0000
  C   C2688     1.0  0.77443  0.42011  0.48323  1.0000
  C   C2689     1.0  0.95248  0.43502  0.69612  1.0000
  C   C2690     1.0  0.68444  0.33251  0.65645  1.0000
  H   H4788     1.0  0.98416  0.41665  0.64287  1.0000
  C   C2691     1.0  0.70450  0.45792  0.48449  1.0000
  C   C2692     1.0  0.94816  0.42326  0.72699  1.0000
  H   H4789     1.0  0.79923  0.52877  0.72095  1.0000
  H   H4790     1.0  0.79026  0.56685  0.71992  1.0000
  H   H4791     1.0  0.82250  0.47129  0.72835  1.0000
  H   H4792     1.0  0.68267  0.34709  0.59253  1.0000
  S   S599      1.0  0.68196  0.32314  0.56150  1.0000
  C   C2693     1.0  0.74002  0.36547  0.49267  1.0000
  H   H4793     1.0  0.52665  0.52688  0.71225  1.0000
  H   H4794     1.0  0.77859  0.41704  0.50787  1.0000
  C   C2694     1.0  0.64412  0.36656  0.48976  1.0000
  C   C2695     1.0  0.91764  0.65312  0.61873  1.0000
  H   H4795     1.0  0.93162  0.64472  0.59574  1.0000
  C   C2696     1.0  0.76778  0.40401  0.48736  1.0000
  H   H4796     1.0  0.92650  0.62828  0.61298  1.0000
  C   C2697     1.0  0.89281  0.64214  0.62341  1.0000
  H   H4797     1.0  0.81811  0.41530  0.71356  1.0000
  H   H4798     1.0  0.78980  0.41021  0.71706  1.0000
  C   C2698     1.0  0.94752  0.63723  0.61297  1.0000
  H   H4799     1.0  0.49777  0.55566  0.72078  1.0000
  C   C2699     1.0  0.79993  0.43507  0.72472  1.0000
  C   C2700     1.0  0.69855  0.37292  0.48515  1.0000
  H   H4800     1.0  0.94716  0.63184  0.62629  1.0000
  H   H4801     1.0  0.66747  0.43106  0.48691  1.0000
  H   H4802     1.0  0.75459  0.40710  0.49386  1.0000
  C   C2701     1.0  0.77465  0.49479  0.73240  1.0000
  H   H4803     1.0  0.60217  0.33463  0.48363  1.0000
  Fe  Fe298     1.0  0.66325  0.32187  0.54800  1.0000
  H   H4804     1.0  0.55290  0.32288  0.57306  1.0000
  H   H4805     1.0  0.90520  0.65171  0.59192  1.0000
  H   H4806     1.0  0.86641  0.65380  0.63125  1.0000
  Fe  Fe299     1.0  0.77118  0.55803  0.92125  1.0000
  S   S600      1.0  0.77251  0.58469  0.91621  1.0000
  S   S601      1.0  0.75647  0.54565  0.94537  1.0000
  Fe  Fe300     1.0  0.79300  0.55338  0.88761  1.0000
  S   S602      1.0  0.79655  0.57960  0.88026  1.0000
  S   S603      1.0  0.80522  0.53509  0.87085  1.0000
  Fe  Fe301     1.0  0.79947  0.57617  0.90625  1.0000
  S   S604      1.0  0.81845  0.58718  0.91114  1.0000
  Fe  Fe302     1.0  0.76936  0.58598  0.89099  1.0000
  S   S605      1.0  0.75262  0.60925  0.88071  1.0000
  S   S606      1.0  0.79866  0.54917  0.91276  1.0000
  S   S607      1.0  0.76542  0.56003  0.89667  1.0000
  H   H4807     1.0  0.71366  0.61427  0.96969  1.0000
  C   C2702     1.0  0.87032  0.45775  0.76353  1.0000
  C   C2703     1.0  0.86263  0.55386  0.76355  1.0000
  H   H4808     1.0  0.92473  0.34137  0.77797  1.0000
  H   H4809     1.0  0.88575  0.34873  0.82250  1.0000
  H   H4810     1.0  0.96319  0.38265  0.82556  1.0000
  S   S608      1.0  0.68831  0.61388  0.93739  1.0000
  H   H4811     1.0  0.50052  0.63830  0.89681  1.0000
  C   C2704     1.0  0.87713  0.35435  0.77134  1.0000
  H   H4812     1.0  0.92312  0.36040  0.79180  1.0000
  H   H4813     1.0  0.80342  0.55686  0.94447  1.0000
  S   S609      1.0  0.58533  0.64151  0.90715  1.0000
  Fe  Fe303     1.0  0.88008  0.40820  0.75316  1.0000
  S   S610      1.0  0.86844  0.40091  0.78005  1.0000
  H   H4814     1.0  0.79900  0.54704  0.81118  1.0000
  Fe  Fe304     1.0  0.79923  0.47474  0.79380  1.0000
  S   S611      1.0  0.77371  0.49084  0.79374  1.0000
  S   S612      1.0  0.80225  0.44816  0.80763  1.0000
  Fe  Fe305     1.0  0.81620  0.50315  0.77543  1.0000
  S   S613      1.0  0.79217  0.52117  0.77382  1.0000
  S   S614      1.0  0.84054  0.51109  0.76534  1.0000
  Fe  Fe306     1.0  0.78390  0.50924  0.80038  1.0000
  S   S615      1.0  0.77023  0.52614  0.81825  1.0000
  Fe  Fe307     1.0  0.78475  0.50102  0.76724  1.0000
  H   H4815     1.0  0.63977  0.63047  0.89585  1.0000
  S   S616      1.0  0.80856  0.49234  0.80231  1.0000
  S   S617      1.0  0.80959  0.48375  0.76686  1.0000
  S   S618      1.0  0.86936  0.42908  0.73446  1.0000
  H   H4816     1.0  0.81950  0.57805  0.79779  1.0000
  C   C2705     1.0  0.65783  0.60126  0.98003  1.0000
  S   S619      1.0  0.90505  0.41459  0.74588  1.0000
  H   H4817     1.0  0.90910  0.36055  0.81138  1.0000
  C   C2706     1.0  0.80669  0.55028  0.79863  1.0000
  C   C2707     1.0  0.74482  0.54818  0.97788  1.0000
  S   S620      1.0  0.52899  0.63199  0.87020  1.0000
  H   H4818     1.0  0.85705  0.56427  0.75444  1.0000
  H   H4819     1.0  0.86113  0.33880  0.77051  1.0000
  S   S621      1.0  0.96056  0.34648  0.79023  1.0000
  C   C2708     1.0  0.52376  0.63432  0.85109  1.0000
  C   C2709     1.0  0.52990  0.62106  0.84310  1.0000
  C   C2710     1.0  0.52477  0.62137  0.82889  1.0000
  C   C2711     1.0  0.51298  0.63471  0.82270  1.0000
  H   H4820     1.0  0.87430  0.49020  0.75543  1.0000
  H   H4821     1.0  0.88915  0.44504  0.79662  1.0000
  H   H4822     1.0  0.53856  0.61033  0.84806  1.0000
  H   H4823     1.0  0.52965  0.61095  0.82292  1.0000
  N   N150      1.0  0.89866  0.34537  0.78982  1.0000
  H   H4824     1.0  0.83422  0.54381  0.77652  1.0000
  H   H4825     1.0  0.87577  0.36769  0.77073  1.0000
  H   H4826     1.0  0.88639  0.35101  0.76031  1.0000
  H   H4827     1.0  0.90417  0.44745  0.75950  1.0000
  C   C2712     1.0  0.95742  0.34641  0.75932  1.0000
  C   C2713     1.0  0.95510  0.35572  0.77110  1.0000
  C   C2714     1.0  0.94758  0.37255  0.76796  1.0000
  H   H4828     1.0  0.91147  0.35163  0.76419  1.0000
  H   H4829     1.0  0.77219  0.56270  0.80365  1.0000
  H   H4830     1.0  0.91927  0.38643  0.80083  1.0000
  H   H4831     1.0  0.94603  0.37985  0.77693  1.0000
  H   H4832     1.0  0.89728  0.37134  0.77856  1.0000
  C   C2715     1.0  0.84913  0.41327  0.78706  1.0000
  C   C2716     1.0  0.84127  0.40959  0.80370  1.0000
  C   C2717     1.0  0.82647  0.42000  0.80983  1.0000
  C   C2718     1.0  0.81967  0.43432  0.79940  1.0000
  C   C2719     1.0  0.82715  0.43765  0.78267  1.0000
  C   C2720     1.0  0.84183  0.42712  0.77650  1.0000
  H   H4833     1.0  0.84677  0.39885  0.81195  1.0000
  H   H4834     1.0  0.82059  0.41730  0.82278  1.0000
  H   H4835     1.0  0.82166  0.44844  0.77458  1.0000
  H   H4836     1.0  0.84767  0.43003  0.76370  1.0000
  H   H4837     1.0  0.55760  0.64395  0.83514  1.0000
  H   H4838     1.0  0.80860  0.61092  0.88267  1.0000
  C   C2721     1.0  0.98811  0.33672  0.86803  1.0000
  H   H4839     1.0  0.59081  0.62308  0.95816  1.0000
  C   C2722     1.0  0.68756  0.57222  0.97093  1.0000
  H   H4840     1.0  0.61341  0.63088  0.92251  1.0000
  H   H4841     1.0  0.95878  0.32633  0.86722  1.0000
  C   C2723     1.0  0.79453  0.53218  0.85724  1.0000
  C   C2724     1.0  0.80118  0.51876  0.84939  1.0000
  C   C2725     1.0  0.79373  0.51663  0.83761  1.0000
  C   C2726     1.0  0.77942  0.52785  0.83369  1.0000
  C   C2727     1.0  0.77257  0.54112  0.84177  1.0000
  C   C2728     1.0  0.78011  0.54333  0.85346  1.0000
  H   H4842     1.0  0.81220  0.51000  0.85242  1.0000
  H   H4843     1.0  0.79900  0.50625  0.83168  1.0000
  H   H4844     1.0  0.76150  0.54987  0.83883  1.0000
  H   H4845     1.0  0.77488  0.55374  0.85940  1.0000
  C   C2729     1.0  0.81483  0.59583  0.92856  1.0000
  C   C2730     1.0  0.80004  0.59618  0.94059  1.0000
  C   C2731     1.0  0.79837  0.60196  0.95493  1.0000
  C   C2732     1.0  0.81138  0.60760  0.95720  1.0000
  C   C2733     1.0  0.82585  0.60780  0.94488  1.0000
  C   C2734     1.0  0.82754  0.60200  0.93063  1.0000
  H   H4846     1.0  0.79018  0.59141  0.93916  1.0000
  H   H4847     1.0  0.78726  0.60150  0.96455  1.0000
  H   H4848     1.0  0.83608  0.61177  0.94665  1.0000
  H   H4849     1.0  0.83899  0.60179  0.92140  1.0000
  C   C2735     1.0  0.73447  0.61084  0.89602  1.0000
  C   C2736     1.0  0.72422  0.62628  0.89757  1.0000
  C   C2737     1.0  0.71022  0.62740  0.91054  1.0000
  C   C2738     1.0  0.70621  0.61307  0.92162  1.0000
  C   C2739     1.0  0.71636  0.59769  0.91987  1.0000
  C   C2740     1.0  0.73056  0.59659  0.90723  1.0000
  H   H4850     1.0  0.72731  0.63734  0.88900  1.0000
  H   H4851     1.0  0.60334  0.65009  0.85786  1.0000
  H   H4852     1.0  0.71343  0.58658  0.92838  1.0000
  H   H4853     1.0  0.73840  0.58464  0.90616  1.0000
  H   H4854     1.0  0.87212  0.34763  0.79781  1.0000
  C   C2741     1.0  0.80202  0.45127  0.74367  1.0000
  C   C2742     1.0  0.78118  0.62903  0.90115  1.0000
  C   C2743     1.0  0.75410  0.55441  0.96236  1.0000
  C   C2744     1.0  0.76139  0.56766  0.96051  1.0000
  C   C2745     1.0  0.84207  0.50492  0.81669  1.0000
  H   H4855     1.0  0.77819  0.56752  0.74938  1.0000
  H   H4856     1.0  0.84703  0.52105  0.79311  1.0000
  H   H4857     1.0  0.76909  0.57210  0.94891  1.0000
  H   H4858     1.0  0.76263  0.55572  0.76061  1.0000
  C   C2746     1.0  0.95779  0.37774  0.83865  1.0000
  H   H4859     1.0  0.81557  0.54090  0.75949  1.0000
  H   H4860     1.0  0.80983  0.40859  0.74900  1.0000
  H   H4861     1.0  0.93536  0.39270  0.75141  1.0000
  H   H4862     1.0  0.66549  0.59043  0.94074  1.0000
  H   H4863     1.0  0.99042  0.32352  0.84903  1.0000
  H   H4864     1.0  0.79360  0.56939  0.96850  1.0000
  H   H4865     1.0  0.83475  0.56603  0.80891  1.0000
  H   H4866     1.0  0.87880  0.33095  0.82216  1.0000
  H   H4867     1.0  0.89718  0.39060  0.80201  1.0000
  H   H4868     1.0  0.89123  0.50895  0.75518  1.0000
  H   H4869     1.0  0.93944  0.42406  0.73905  1.0000
  C   C2747     1.0  0.99399  0.33838  0.81391  1.0000
  C   C2748     1.0  0.83644  0.52011  0.80383  1.0000
  H   H4870     1.0  0.57854  0.62076  0.94526  1.0000
  H   H4871     1.0  0.85258  0.50646  0.82098  1.0000
  H   H4872     1.0  0.79315  0.42671  0.73484  1.0000
  C   C2749     1.0  0.57804  0.62587  0.95599  1.0000
  H   H4873     1.0  0.81283  0.55599  0.83302  1.0000
  H   H4874     1.0  0.61743  0.62010  0.89041  1.0000
  C   C2750     1.0  0.70579  0.56431  0.96408  1.0000
  C   C2751     1.0  0.95179  0.35385  0.74461  1.0000
  C   C2752     1.0  0.83957  0.52792  0.74856  1.0000
  C   C2753     1.0  0.94339  0.37045  0.74192  1.0000
  H   H4875     1.0  0.92868  0.32810  0.87068  1.0000
  H   H4876     1.0  0.83641  0.44198  0.82222  1.0000
  H   H4877     1.0  0.80086  0.58250  0.84166  1.0000
  H   H4878     1.0  0.79560  0.57714  0.79304  1.0000
  H   H4879     1.0  0.80690  0.59379  0.82086  1.0000
  C   C2754     1.0  0.98531  0.35302  0.82263  1.0000
  C   C2755     1.0  0.88235  0.34378  0.78755  1.0000
  C   C2756     1.0  0.97089  0.36420  0.84703  1.0000
  C   C2757     1.0  0.94141  0.37981  0.75357  1.0000
  H   H4880     1.0  0.99449  0.35342  0.78897  1.0000
  H   H4881     1.0  0.88511  0.43280  0.78501  1.0000
  S   S622      1.0  0.53874  0.65152  0.90189  1.0000
  C   C2758     1.0  0.74786  0.62500  0.92648  1.0000
  N   N151      1.0  0.66618  0.61969  0.89255  1.0000
  C   C2759     1.0  0.66688  0.60657  0.90818  1.0000
  C   C2760     1.0  0.67974  0.61354  0.87886  1.0000
  H   H4882     1.0  0.87073  0.44478  0.76315  1.0000
  C   C2761     1.0  0.64970  0.62313  0.88771  1.0000
  C   C2762     1.0  0.64360  0.60775  0.88751  1.0000
  C   C2763     1.0  0.65296  0.61004  0.92342  1.0000
  H   H4883     1.0  0.96535  0.36174  0.86043  1.0000
  C   C2764     1.0  0.69781  0.61191  0.88035  1.0000
  C   C2765     1.0  0.71041  0.60537  0.86599  1.0000
  Fe  Fe308     1.0  0.67741  0.63899  0.94296  1.0000
  C   C2766     1.0  0.65312  0.59471  0.93744  1.0000
  H   H4884     1.0  0.84932  0.47912  0.76464  1.0000
  H   H4885     1.0  0.67874  0.60479  0.91201  1.0000
  H   H4886     1.0  0.66708  0.59430  0.90602  1.0000
  H   H4887     1.0  0.67884  0.60109  0.87811  1.0000
  H   H4888     1.0  0.67817  0.62156  0.86662  1.0000
  H   H4889     1.0  0.91485  0.42010  0.77616  1.0000
  C   C2767     1.0  0.83427  0.55376  0.78247  1.0000
  H   H4890     1.0  0.71916  0.58240  0.97710  1.0000
  C   C2768     1.0  0.79381  0.63537  0.88553  1.0000
  H   H4891     1.0  0.64160  0.59960  0.89996  1.0000
  H   H4892     1.0  0.65273  0.60043  0.87889  1.0000
  H   H4893     1.0  0.65480  0.62015  0.92803  1.0000
  H   H4894     1.0  0.64048  0.61362  0.92056  1.0000
  H   H4895     1.0  0.97612  0.36096  0.81521  1.0000
  H   H4896     1.0  0.63179  0.64626  0.92755  1.0000
  H   H4897     1.0  0.70013  0.62403  0.88024  1.0000
  H   H4898     1.0  0.70047  0.60316  0.89186  1.0000
  H   H4899     1.0  0.70915  0.59289  0.86583  1.0000
  H   H4900     1.0  0.70875  0.61393  0.85405  1.0000
  H   H4901     1.0  0.72319  0.60435  0.86743  1.0000
  H   H4902     1.0  0.77635  0.44818  0.74900  1.0000
  H   H4903     1.0  0.92621  0.33318  0.74482  1.0000
  H   H4904     1.0  0.86210  0.48328  0.78461  1.0000
  C   C2769     1.0  0.66843  0.63544  0.89539  1.0000
  H   H4905     1.0  0.64363  0.59775  0.94847  1.0000
  H   H4906     1.0  0.65021  0.58456  0.93377  1.0000
  C   C2770     1.0  0.85750  0.45429  0.79293  1.0000
  H   H4907     1.0  0.79237  0.61874  0.87104  1.0000
  H   H4908     1.0  0.84411  0.40330  0.75680  1.0000
  H   H4909     1.0  0.81782  0.54040  0.95452  1.0000
  H   H4910     1.0  0.76461  0.58544  0.97212  1.0000
  H   H4911     1.0  0.82066  0.56151  0.94916  1.0000
  H   H4912     1.0  0.80773  0.53988  0.79278  1.0000
  C   C2771     1.0  0.88739  0.44522  0.78426  1.0000
  H   H4913     1.0  0.98454  0.33224  0.81312  1.0000
  C   C2772     1.0  0.81013  0.58206  0.82984  1.0000
  H   H4914     1.0  0.88481  0.36777  0.79858  1.0000
  C   C2773     1.0  0.87446  0.47538  0.78058  1.0000
  H   H4915     1.0  0.84170  0.53770  0.81457  1.0000
  C   C2774     1.0  0.86043  0.35195  0.77030  1.0000
  H   H4916     1.0  0.86217  0.46382  0.81236  1.0000
  C   C2775     1.0  0.85799  0.45317  0.81111  1.0000
  H   H4917     1.0  0.67958  0.63305  0.90066  1.0000
  H   H4918     1.0  0.52791  0.65153  0.97918  1.0000
  H   H4919     1.0  0.79697  0.56859  0.82217  1.0000
  H   H4920     1.0  0.92996  0.43291  0.76873  1.0000
  H   H4921     1.0  0.73681  0.63460  0.92366  1.0000
  H   H4922     1.0  0.71303  0.57409  0.95816  1.0000
  C   C2776     1.0  0.85602  0.47531  0.73995  1.0000
  H   H4923     1.0  0.77326  0.62324  0.89704  1.0000
  H   H4924     1.0  0.86653  0.44158  0.81568  1.0000
  C   C2777     1.0  0.91262  0.34158  0.77539  1.0000
  H   H4925     1.0  0.99471  0.36040  0.82118  1.0000
  H   H4926     1.0  0.78828  0.61853  0.90904  1.0000
  C   C2778     1.0  0.95153  0.39239  0.84720  1.0000
  H   H4927     1.0  0.89512  0.49788  0.77525  1.0000
  H   H4928     1.0  0.84617  0.49384  0.81115  1.0000
  H   H4929     1.0  0.76303  0.54661  0.73584  1.0000
  H   H4930     1.0  0.91156  0.39050  0.78230  1.0000
  C   C2779     1.0  0.91060  0.36604  0.79797  1.0000
  C   C2780     1.0  0.90954  0.38455  0.79564  1.0000
  C   C2781     1.0  0.89708  0.36299  0.79098  1.0000
  H   H4931     1.0  0.85055  0.35586  0.78073  1.0000
  C   C2782     1.0  0.81134  0.55358  0.95366  1.0000
  C   C2783     1.0  0.80985  0.56723  0.82344  1.0000
  C   C2784     1.0  0.75906  0.57503  0.97380  1.0000
  H   H4932     1.0  0.85868  0.54385  0.78959  1.0000
  C   C2785     1.0  0.50679  0.64819  0.83055  1.0000
  C   C2786     1.0  0.84091  0.45283  0.82253  1.0000
  H   H4933     1.0  0.80285  0.63185  0.91756  1.0000
  H   H4934     1.0  0.87552  0.55487  0.76260  1.0000
  H   H4935     1.0  0.73937  0.53773  0.97945  1.0000
  H   H4936     1.0  0.78899  0.63621  0.93642  1.0000
  H   H4937     1.0  0.68362  0.58213  0.96058  1.0000
  C   C2787     1.0  0.88605  0.50134  0.76717  1.0000
  C   C2788     1.0  0.78653  0.44551  0.75569  1.0000
  C   C2789     1.0  0.78012  0.45475  0.76982  1.0000
  C   C2790     1.0  0.83400  0.39910  0.75436  1.0000
  N   N152      1.0  0.77047  0.64184  0.91085  1.0000
  H   H4938     1.0  0.75629  0.64150  0.93596  1.0000
  H   H4939     1.0  0.88759  0.32688  0.84800  1.0000
  H   H4940     1.0  0.79711  0.46423  0.73765  1.0000
  H   H4941     1.0  0.81040  0.45217  0.75111  1.0000
  H   H4942     1.0  0.77092  0.62301  0.93324  1.0000
  H   H4943     1.0  0.72011  0.55048  0.94531  1.0000
  H   H4944     1.0  0.79149  0.54822  0.97412  1.0000
  H   H4945     1.0  0.84606  0.46355  0.79044  1.0000
  H   H4946     1.0  0.83307  0.43259  0.74175  1.0000
  H   H4947     1.0  0.96197  0.39799  0.84674  1.0000
  H   H4948     1.0  0.81440  0.41827  0.76304  1.0000
  H   H4949     1.0  0.96357  0.33350  0.76152  1.0000
  C   C2791     1.0  0.62708  0.61287  0.88200  1.0000
  H   H4950     1.0  0.67961  0.64631  0.86969  1.0000
  H   H4951     1.0  0.83899  0.39336  0.74341  1.0000
  S   S623      1.0  0.81118  0.61073  0.97668  1.0000
  H   H4952     1.0  0.78906  0.43212  0.76114  1.0000
  H   H4953     1.0  0.78950  0.45173  0.77749  1.0000
  H   H4954     1.0  0.77725  0.46833  0.76498  1.0000
  H   H4955     1.0  0.76861  0.45102  0.77781  1.0000
  H   H4956     1.0  0.54650  0.64062  0.95763  1.0000
  H   H4957     1.0  0.84380  0.48227  0.73715  1.0000
  H   H4958     1.0  0.82988  0.38957  0.76522  1.0000
  H   H4959     1.0  0.62847  0.62040  0.86920  1.0000
  H   H4960     1.0  0.87434  0.50898  0.77295  1.0000
  C   C2792     1.0  0.85403  0.46856  0.75855  1.0000
  H   H4961     1.0  0.83177  0.46427  0.81884  1.0000
  H   H4962     1.0  0.70062  0.56314  0.94096  1.0000
  H   H4963     1.0  0.94056  0.32205  0.75816  1.0000
  H   H4964     1.0  0.73851  0.62076  0.95294  1.0000
  C   C2793     1.0  0.95172  0.33635  0.85900  1.0000
  H   H4965     1.0  0.75203  0.61752  0.91692  1.0000
  C   C2794     1.0  0.90269  0.33325  0.80523  1.0000
  C   C2795     1.0  0.82539  0.55488  0.73582  1.0000
  H   H4966     1.0  0.82175  0.53345  0.82259  1.0000
  H   H4967     1.0  0.82256  0.58095  0.83220  1.0000
  C   C2796     1.0  0.85300  0.52853  0.73504  1.0000
  N   N153      1.0  0.87260  0.45850  0.78007  1.0000
  C   C2797     1.0  0.74242  0.61371  0.94298  1.0000
  H   H4968     1.0  0.80386  0.63870  0.88902  1.0000
  H   H4969     1.0  0.84439  0.46113  0.76262  1.0000
  C   C2798     1.0  0.70686  0.55496  0.95090  1.0000
  H   H4970     1.0  0.67980  0.56304  0.97305  1.0000
  H   H4971     1.0  0.65792  0.64020  0.90496  1.0000
  C   C2799     1.0  0.85253  0.55438  0.78108  1.0000
  H   H4972     1.0  0.62400  0.65339  0.85427  1.0000
  H   H4973     1.0  0.85547  0.44224  0.79235  1.0000
  H   H4974     1.0  0.85706  0.35967  0.75858  1.0000
  C   C2800     1.0  0.88269  0.48590  0.76422  1.0000
  H   H4975     1.0  0.77907  0.55280  0.78622  1.0000
  C   C2801     1.0  0.82245  0.56621  0.80676  1.0000
  C   C2802     1.0  0.77893  0.56390  0.79054  1.0000
  H   H4976     1.0  0.84168  0.45194  0.83541  1.0000
  H   H4977     1.0  0.90301  0.32407  0.76757  1.0000
  C   C2803     1.0  0.83089  0.53606  0.81083  1.0000
  N   N154      1.0  0.82360  0.55160  0.79964  1.0000
  S   S624      1.0  0.88732  0.38960  0.73727  1.0000
  H   H4978     1.0  0.82616  0.51786  0.79985  1.0000
  H   H4979     1.0  0.91907  0.43020  0.79004  1.0000
  H   H4980     1.0  0.82901  0.56547  0.77450  1.0000
  H   H4981     1.0  0.92953  0.33939  0.84963  1.0000
  C   C2804     1.0  0.80190  0.62214  0.87530  1.0000
  H   H4982     1.0  0.94688  0.37285  0.83921  1.0000
  H   H4983     1.0  0.88152  0.47420  0.79010  1.0000
  H   H4984     1.0  0.80249  0.56765  0.77539  1.0000
  C   C2805     1.0  0.81935  0.41358  0.75146  1.0000
  H   H4985     1.0  0.95510  0.34794  0.83281  1.0000
  H   H4986     1.0  0.83167  0.50282  0.82742  1.0000
  H   H4987     1.0  0.70104  0.54408  0.95647  1.0000
  H   H4988     1.0  0.85305  0.56604  0.78398  1.0000
  S   S625      1.0  0.65006  0.64508  0.95306  1.0000
  C   C2806     1.0  0.79660  0.56580  0.78874  1.0000
  C   C2807     1.0  0.93685  0.33018  0.85822  1.0000
  H   H4989     1.0  0.77211  0.57493  0.78305  1.0000
  H   H4990     1.0  0.75279  0.60315  0.94573  1.0000
  H   H4991     1.0  0.90829  0.45762  0.77337  1.0000
  C   C2808     1.0  0.61139  0.64418  0.91846  1.0000
  C   C2809     1.0  0.89725  0.32590  0.83653  1.0000
  H   H4992     1.0  0.81985  0.56168  0.97816  1.0000
  H   H4993     1.0  0.66082  0.60009  0.96703  1.0000
  C   C2810     1.0  0.90442  0.44663  0.77248  1.0000
  H   H4994     1.0  0.89453  0.47891  0.75806  1.0000
  H   H4995     1.0  0.57003  0.61976  0.96714  1.0000
  C   C2811     1.0  0.80051  0.55640  0.97036  1.0000
  C   C2812     1.0  0.91785  0.43151  0.77721  1.0000
  H   H4996     1.0  0.66227  0.61213  0.98040  1.0000
  H   H4997     1.0  0.81097  0.62692  0.86431  1.0000
  H   H4998     1.0  0.62279  0.60167  0.88229  1.0000
  H   H4999     1.0  0.65020  0.63113  0.87512  1.0000
  H   H5000     1.0  0.91528  0.33324  0.80657  1.0000
  C   C2813     1.0  0.92844  0.32273  0.75543  1.0000
  H   H5001     1.0  0.95361  0.34665  0.73548  1.0000
  H   H5002     1.0  0.99131  0.34817  0.86877  1.0000
  H   H5003     1.0  0.52167  0.64642  0.95317  1.0000
  H   H5004     1.0  0.63365  0.61692  0.97777  1.0000
  C   C2814     1.0  0.82574  0.54106  0.74890  1.0000
  H   H5005     1.0  0.75325  0.48493  0.74647  1.0000
  H   H5006     1.0  0.94669  0.34735  0.86459  1.0000
  C   C2815     1.0  0.96300  0.34036  0.84169  1.0000
  H   H5007     1.0  0.55536  0.64591  0.93643  1.0000
  C   C2816     1.0  0.88992  0.33560  0.82151  1.0000
  H   H5008     1.0  0.73189  0.60873  0.94252  1.0000
  C   C2817     1.0  0.66945  0.64991  0.88002  1.0000
  H   H5009     1.0  0.86311  0.54200  0.76037  1.0000
  S   S626      1.0  0.77224  0.50829  0.74553  1.0000
  H   H5010     1.0  0.88232  0.33062  0.78847  1.0000
  H   H5011     1.0  0.69238  0.60078  0.96968  1.0000
  H   H5012     1.0  0.71171  0.55534  0.97379  1.0000
  S   S627      1.0  0.50662  0.63368  0.80516  1.0000
  H   H5013     1.0  0.94238  0.40200  0.84084  1.0000
  C   C2818     1.0  0.76177  0.63302  0.92719  1.0000
  H   H5014     1.0  0.75778  0.57347  0.74449  1.0000
  H   H5015     1.0  0.78782  0.64638  0.87738  1.0000
  C   C2819     1.0  0.76772  0.56286  0.74828  1.0000
  H   H5016     1.0  0.70257  0.63932  0.91179  1.0000
  C   C2820     1.0  0.79455  0.64185  0.92360  1.0000
  H   H5017     1.0  0.88076  0.46128  0.75364  1.0000
  H   H5018     1.0  0.98161  0.36982  0.84577  1.0000
  H   H5019     1.0  0.94532  0.38841  0.86028  1.0000
  N   N155      1.0  0.97700  0.34843  0.84061  1.0000
  S   S628      1.0  0.68460  0.64746  0.96199  1.0000
  H   H5020     1.0  0.96797  0.32837  0.83767  1.0000
  H   H5021     1.0  0.97537  0.33642  0.87535  1.0000
  H   H5022     1.0  0.75140  0.64593  0.89714  1.0000
  H   H5023     1.0  0.81480  0.56515  0.73621  1.0000
  C   C2821     1.0  0.91451  0.32486  0.77060  1.0000
  H   H5024     1.0  0.78333  0.54117  0.74050  1.0000
  S   S629      1.0  0.56681  0.65139  0.86727  1.0000
  C   C2822     1.0  0.98987  0.33643  0.84967  1.0000
  C   C2823     1.0  0.57145  0.64457  0.95243  1.0000
  C   C2824     1.0  0.77370  0.55160  0.73587  1.0000
  C   C2825     1.0  0.56111  0.65405  0.82458  1.0000
  H   H5025     1.0  0.81487  0.64544  0.93181  1.0000
  C   C2826     1.0  0.55389  0.64916  0.94852  1.0000
  C   C2827     1.0  0.51226  0.64804  0.84471  1.0000
  H   H5026     1.0  0.58034  0.64994  0.94172  1.0000
  H   H5027     1.0  0.57160  0.64942  0.96306  1.0000
  H   H5028     1.0  0.72937  0.60382  0.98161  1.0000
  H   H5029     1.0  0.65758  0.65397  0.87576  1.0000
  H   H5030     1.0  0.90775  0.33092  0.83700  1.0000
  C   C2828     1.0  0.78074  0.65190  0.91410  1.0000
  C   C2829     1.0  0.75818  0.65322  0.90092  1.0000
  H   H5031     1.0  0.61069  0.65231  0.87468  1.0000
  C   C2830     1.0  0.62172  0.65287  0.92142  1.0000
  H   H5032     1.0  0.86092  0.46512  0.73319  1.0000
  C   C2831     1.0  0.82500  0.42754  0.73712  1.0000
  C   C2832     1.0  0.59829  0.65266  0.91047  1.0000
  H   H5033     1.0  0.56661  0.64874  0.81340  1.0000
  Fe  Fe309     1.0  0.53970  0.65071  0.87569  1.0000
  C   C2833     1.0  0.80530  0.65293  0.92471  1.0000
  H   H5034     1.0  0.86375  0.51841  0.73476  1.0000
  C   C2834     1.0  0.76273  0.48541  0.73522  1.0000
  H   H5035     1.0  0.86461  0.48397  0.73551  1.0000
  H   H5036     1.0  0.50169  0.53526  0.73354  1.0000
  Fe  Fe310     1.0  0.56515  0.65478  0.89271  1.0000
  H   H5037     1.0  0.73094  0.63197  0.98109  1.0000
  Fe  Fe311     1.0  0.80328  0.63668  0.98125  1.0000
  H   H5038     1.0  0.54819  0.64892  0.98238  1.0000
  H   H5039     1.0  0.75081  0.63440  0.98185  1.0000
  C   C2835     1.0  0.71592  0.60649  0.98177  1.0000
  C   C2836     1.0  0.69243  0.59365  0.98252  1.0000
  C   C2837     1.0  0.98336  0.80195  0.07021  1.0000
  H   H5040     1.0  0.85950  0.74574  0.11350  1.0000
  H   H5041     1.0  0.72419  0.67973  0.04275  1.0000
  Fe  Fe312     1.0  0.92499  0.79623  0.14004  1.0000
  S   S630      1.0  0.92316  0.79467  0.11503  1.0000
  S   S631      1.0  0.94270  0.77820  0.15508  1.0000
  Fe  Fe313     1.0  0.89923  0.82851  0.14041  1.0000
  S   S632      1.0  0.89491  0.82996  0.11534  1.0000
  S   S633      1.0  0.88691  0.84661  0.15721  1.0000
  Fe  Fe314     1.0  0.89569  0.80259  0.12384  1.0000
  S   S634      1.0  0.87683  0.79029  0.12067  1.0000
  Fe  Fe315     1.0  0.92263  0.82192  0.10845  1.0000
  S   S635      1.0  0.93911  0.83154  0.08461  1.0000
  S   S636      1.0  0.89750  0.80180  0.14961  1.0000
  S   S637      1.0  0.92682  0.82283  0.13271  1.0000
  Fe  Fe316     1.0  0.95821  0.68665  0.15286  1.0000
  S   S638      1.0  0.97466  0.69237  0.12788  1.0000
  S   S639      1.0  0.93541  0.70551  0.16065  1.0000
  H   H5042     1.0  0.90312  0.71926  0.10101  1.0000
  Fe  Fe317     1.0  0.89449  0.70700  0.06640  1.0000
  S   S640      1.0  0.90124  0.69852  0.04249  1.0000
  S   S641      1.0  0.89451  0.69064  0.09152  1.0000
  Fe  Fe318     1.0  0.88875  0.74338  0.05027  1.0000
  S   S642      1.0  0.89443  0.73803  0.02492  1.0000
  S   S643      1.0  0.88481  0.76959  0.05328  1.0000
  Fe  Fe319     1.0  0.87912  0.71837  0.03624  1.0000
  S   S644      1.0  0.85688  0.71656  0.02700  1.0000
  Fe  Fe320     1.0  0.91587  0.71883  0.03342  1.0000
  S   S645      1.0  0.94207  0.71656  0.01779  1.0000
  S   S646      1.0  0.87167  0.72566  0.06098  1.0000
  S   S647      1.0  0.91090  0.72529  0.05791  1.0000
  H   H5043     1.0  0.98672  0.81842  0.00410  1.0000
  S   S648      1.0  0.92443  0.92000  0.19960  1.0000
  C   C2838     1.0  0.86687  0.73402  0.10992  1.0000
  Fe  Fe321     1.0  0.88269  0.93791  0.18591  1.0000
  S   S649      1.0  0.90709  0.93766  0.16814  1.0000
  S   S650      1.0  0.85854  0.94810  0.17799  1.0000
  Fe  Fe322     1.0  0.91441  0.91181  0.18222  1.0000
  S   S651      1.0  0.92877  0.89259  0.16712  1.0000
  Fe  Fe323     1.0  0.91456  0.94606  0.18702  1.0000
  S   S652      1.0  0.92942  0.96609  0.17797  1.0000
  S   S653      1.0  0.88928  0.91142  0.19871  1.0000
  S   S654      1.0  0.88944  0.94840  0.20370  1.0000
  H   H5044     1.0  0.89168  0.75627  0.14145  1.0000
  H   H5045     1.0  0.91219  0.81613  0.20569  1.0000
  C   C2839     1.0  0.89791  0.73696  0.11723  1.0000
  H   H5046     1.0  0.97859  0.83429  0.09828  1.0000
  C   C2840     1.0  0.92809  0.97960  0.19075  1.0000
  H   H5047     1.0  0.83612  0.75832  0.00891  1.0000
  H   H5048     1.0  0.98428  0.84350  0.11185  1.0000
  H   H5049     1.0  0.92724  0.70231  0.98558  1.0000
  H   H5050     1.0  0.72749  0.65797  0.98893  1.0000
  H   H5051     1.0  0.94838  0.96322  0.12374  1.0000
  H   H5052     1.0  0.89075  0.73626  0.99029  1.0000
  H   H5053     1.0  0.86950  0.67109  0.99719  1.0000
  C   C2841     1.0  0.95580  0.72821  0.01908  1.0000
  C   C2842     1.0  0.96840  0.73184  0.00528  1.0000
  C   C2843     1.0  0.97930  0.74140  0.00542  1.0000
  C   C2844     1.0  0.97835  0.74689  0.01961  1.0000
  C   C2845     1.0  0.96618  0.74269  0.03374  1.0000
  C   C2846     1.0  0.95479  0.73358  0.03341  1.0000
  H   H5054     1.0  0.98833  0.74485  0.99432  1.0000
  C   C2847     1.0  0.97112  0.92754  0.16759  1.0000
  H   H5055     1.0  0.96503  0.74714  0.04464  1.0000
  H   H5056     1.0  0.94523  0.73077  0.04421  1.0000
  H   H5057     1.0  0.51756  0.67462  0.99429  1.0000
  C   C2848     1.0  0.91869  0.68241  0.10909  1.0000
  C   C2849     1.0  0.93518  0.67781  0.11089  1.0000
  H   H5058     1.0  0.90874  0.68519  0.11940  1.0000
  H   H5059     1.0  0.70039  0.68805  0.02802  1.0000
  C   C2850     1.0  0.89900  0.85902  0.15982  1.0000
  C   C2851     1.0  0.89383  0.86613  0.17371  1.0000
  C   C2852     1.0  0.90285  0.87646  0.17598  1.0000
  C   C2853     1.0  0.91715  0.87979  0.16437  1.0000
  C   C2854     1.0  0.92251  0.87247  0.15059  1.0000
  C   C2855     1.0  0.91339  0.86221  0.14825  1.0000
  H   H5060     1.0  0.88285  0.86351  0.18283  1.0000
  H   H5061     1.0  0.89885  0.88161  0.18689  1.0000
  H   H5062     1.0  0.93358  0.87494  0.14156  1.0000
  H   H5063     1.0  0.91734  0.85702  0.13735  1.0000
  C   C2856     1.0  0.88340  0.77289  0.07301  1.0000
  C   C2857     1.0  0.89665  0.77722  0.07630  1.0000
  C   C2858     1.0  0.89486  0.78251  0.09090  1.0000
  C   C2859     1.0  0.87972  0.78350  0.10233  1.0000
  C   C2860     1.0  0.86658  0.77875  0.09928  1.0000
  C   C2861     1.0  0.86838  0.77355  0.08463  1.0000
  H   H5064     1.0  0.90827  0.77647  0.06750  1.0000
  H   H5065     1.0  0.90511  0.78594  0.09327  1.0000
  H   H5066     1.0  0.85482  0.77952  0.10807  1.0000
  H   H5067     1.0  0.85795  0.77060  0.08206  1.0000
  C   C2862     1.0  0.95806  0.81733  0.08467  1.0000
  C   C2863     1.0  0.96151  0.80756  0.09966  1.0000
  C   C2864     1.0  0.97578  0.79508  0.10001  1.0000
  C   C2865     1.0  0.52952  0.66572  0.99546  1.0000
  Fe  Fe324     1.0  0.78169  0.65684  0.00632  1.0000
  C   C2866     1.0  0.96926  0.81490  0.06991  1.0000
  H   H5068     1.0  0.95311  0.80938  0.11109  1.0000
  H   H5069     1.0  0.97807  0.78750  0.11174  1.0000
  H   H5070     1.0  0.89099  0.80206  0.20526  1.0000
  H   H5071     1.0  0.96671  0.82256  0.05828  1.0000
  C   C2867     1.0  0.94064  0.75793  0.15709  1.0000
  C   C2868     1.0  0.92949  0.75518  0.14945  1.0000
  C   C2869     1.0  0.92829  0.73902  0.15037  1.0000
  C   C2870     1.0  0.93817  0.72548  0.15893  1.0000
  C   C2871     1.0  0.94926  0.72817  0.16677  1.0000
  C   C2872     1.0  0.95046  0.74443  0.16590  1.0000
  H   H5072     1.0  0.92179  0.76549  0.14276  1.0000
  H   H5073     1.0  0.91979  0.73706  0.14428  1.0000
  H   H5074     1.0  0.95668  0.71774  0.17368  1.0000
  H   H5075     1.0  0.95902  0.74653  0.17193  1.0000
  H   H5076     1.0  0.93521  0.94921  0.21667  1.0000
  C   C2873     1.0  0.83192  0.69671  0.00556  1.0000
  C   C2874     1.0  0.83614  0.70640  0.01406  1.0000
  C   C2875     1.0  0.85229  0.70329  0.01681  1.0000
  C   C2876     1.0  0.86427  0.69042  0.01073  1.0000
  H   H5077     1.0  0.71185  0.66742  0.05963  1.0000
  H   H5078     1.0  0.86660  0.74808  0.00537  1.0000
  H   H5079     1.0  0.82682  0.71648  0.01846  1.0000
  H   H5080     1.0  0.93317  0.83085  0.21688  1.0000
  H   H5081     1.0  0.84991  0.73492  0.09489  1.0000
  H   H5082     1.0  0.83612  0.96821  0.13323  1.0000
  H   H5083     1.0  0.94572  0.93288  0.16485  1.0000
  H   H5084     1.0  0.91951  0.97564  0.12158  1.0000
  H   H5085     1.0  0.70474  0.68950  0.05422  1.0000
  H   H5086     1.0  0.87679  0.68792  0.01256  1.0000
  H   H5087     1.0  0.88897  0.73911  0.15866  1.0000
  H   H5088     1.0  0.83267  0.97682  0.17308  1.0000
  H   H5089     1.0  0.87006  0.76342  0.98667  1.0000
  C   C2877     1.0  0.97584  0.74354  0.12832  1.0000
  C   C2878     1.0  0.92385  0.96199  0.12333  1.0000
  H   H5090     1.0  0.78785  0.68157  0.05654  1.0000
  H   H5091     1.0  0.98181  0.69656  0.02464  1.0000
  H   H5092     1.0  0.79937  0.70605  0.03790  1.0000
  C   C2879     1.0  0.97548  0.93793  0.12941  1.0000
  H   H5093     1.0  0.95254  0.98401  0.17883  1.0000
  H   H5094     1.0  0.67965  0.66299  0.99787  1.0000
  H   H5095     1.0  0.90318  0.68501  0.16270  1.0000
  C   C2880     1.0  0.71135  0.67830  0.04917  1.0000
  H   H5096     1.0  0.83140  0.67224  0.05861  1.0000
  H   H5097     1.0  0.97120  0.74121  0.10558  1.0000
  H   H5098     1.0  0.95800  0.76351  0.20380  1.0000
  H   H5099     1.0  0.90086  0.70049  0.17426  1.0000
  S   S655      1.0  0.96846  0.66590  0.10051  1.0000
  C   C2881     1.0  0.94543  0.93742  0.13400  1.0000
  C   C2882     1.0  0.86085  0.89469  0.14716  1.0000
  H   H5100     1.0  0.94760  0.90541  0.13359  1.0000
  C   C2883     1.0  0.87588  0.91428  0.15042  1.0000
  C   C2884     1.0  0.88749  0.91658  0.13313  1.0000
  H   H5101     1.0  0.93790  0.67741  0.12249  1.0000
  C   C2885     1.0  0.96865  0.88521  0.13468  1.0000
  C   C2886     1.0  0.86243  0.89458  0.12878  1.0000
  C   C2887     1.0  0.86801  0.87701  0.12572  1.0000
  C   C2888     1.0  0.90255  0.92275  0.13332  1.0000
  N   N156      1.0  0.88537  0.72914  0.13091  1.0000
  Fe  Fe325     1.0  0.97136  0.66850  0.12480  1.0000
  H   H5102     1.0  0.81039  0.68199  0.06545  1.0000
  C   C2889     1.0  0.84927  0.91059  0.16890  1.0000
  H   H5103     1.0  0.87162  0.88561  0.15150  1.0000
  H   H5104     1.0  0.84986  0.88919  0.15394  1.0000
  C   C2890     1.0  0.91507  0.68393  0.09383  1.0000
  H   H5105     1.0  0.97865  0.90720  0.14427  1.0000
  H   H5106     1.0  0.95824  0.90670  0.15612  1.0000
  H   H5107     1.0  0.88298  0.90376  0.15819  1.0000
  H   H5108     1.0  0.88119  0.92571  0.12374  1.0000
  H   H5109     1.0  0.89220  0.90450  0.12933  1.0000
  H   H5110     1.0  0.91927  0.72193  0.99161  1.0000
  C   C2891     1.0  0.96126  0.90380  0.13168  1.0000
  H   H5111     1.0  0.96534  0.69333  0.04260  1.0000
  H   H5112     1.0  0.81951  0.69937  0.00342  1.0000
  H   H5113     1.0  0.85014  0.90000  0.12540  1.0000
  H   H5114     1.0  0.87139  0.90182  0.12026  1.0000
  H   H5115     1.0  0.88098  0.87172  0.12729  1.0000
  H   H5116     1.0  0.85980  0.86890  0.13439  1.0000
  H   H5117     1.0  0.86760  0.87718  0.11290  1.0000
  H   H5118     1.0  0.90955  0.91398  0.14240  1.0000
  H   H5119     1.0  0.91094  0.92388  0.12092  1.0000
  H   H5120     1.0  0.89847  0.93508  0.13657  1.0000
  H   H5121     1.0  0.67501  0.69341  0.98709  1.0000
  H   H5122     1.0  0.93537  0.93135  0.14240  1.0000
  N   N157      1.0  0.85908  0.91121  0.15135  1.0000
  H   H5123     1.0  0.51388  0.80120  0.19298  1.0000
  H   H5124     1.0  0.91728  0.79750  0.18373  1.0000
  H   H5125     1.0  0.93836  0.80640  0.21121  1.0000
  H   H5126     1.0  0.89872  0.65610  0.15324  1.0000
  H   H5127     1.0  0.93305  0.78522  0.20115  1.0000
  C   C2892     1.0  0.90961  0.81010  0.18370  1.0000
  H   H5128     1.0  0.91860  0.71588  0.11286  1.0000
  C   C2893     1.0  0.88344  0.70682  0.15808  1.0000
  C   C2894     1.0  0.94164  0.98680  0.18832  1.0000
  C   C2895     1.0  0.93630  0.83660  0.18972  1.0000
  H   H5129     1.0  0.88437  0.96106  0.15237  1.0000
  C   C2896     1.0  0.69061  0.66869  0.99213  1.0000
  H   H5130     1.0  0.97831  0.81914  0.13962  1.0000
  H   H5131     1.0  0.96731  0.94847  0.17902  1.0000
  H   H5132     1.0  0.93112  0.84721  0.18049  1.0000
  H   H5133     1.0  0.95696  0.72682  0.07663  1.0000
  H   H5134     1.0  0.86103  0.75372  0.16984  1.0000
  H   H5135     1.0  0.84848  0.92205  0.17291  1.0000
  C   C2897     1.0  0.84381  0.68373  0.99963  1.0000
  C   C2898     1.0  0.90989  0.72547  0.10595  1.0000
  C   C2899     1.0  0.92027  0.73522  0.09120  1.0000
  H   H5136     1.0  0.89158  0.74812  0.10938  1.0000
  H   H5137     1.0  0.87655  0.73694  0.09870  1.0000
  H   H5138     1.0  0.91215  0.74460  0.08353  1.0000
  H   H5139     1.0  0.92777  0.74140  0.09534  1.0000
  H   H5140     1.0  0.92865  0.72663  0.08343  1.0000
  N   N158      1.0  0.94013  0.80113  0.04342  1.0000
  C   C2900     1.0  0.95230  0.78801  0.05237  1.0000
  C   C2901     1.0  0.94879  0.81434  0.03164  1.0000
  C   C2902     1.0  0.92686  0.80909  0.05626  1.0000
  C   C2903     1.0  0.93176  0.79387  0.03458  1.0000
  C   C2904     1.0  0.94309  0.78499  0.02088  1.0000
  C   C2905     1.0  0.94518  0.77413  0.06582  1.0000
  C   C2906     1.0  0.91469  0.82508  0.04978  1.0000
  C   C2907     1.0  0.96721  0.80868  0.02302  1.0000
  C   C2908     1.0  0.97345  0.82275  0.00969  1.0000
  C   C2909     1.0  0.93372  0.77524  0.01546  1.0000
  C   C2910     1.0  0.95861  0.76281  0.07474  1.0000
  C   C2911     1.0  0.90164  0.83125  0.06411  1.0000
  H   H5141     1.0  0.95834  0.79400  0.05841  1.0000
  H   H5142     1.0  0.96261  0.78169  0.04375  1.0000
  H   H5143     1.0  0.94160  0.82128  0.02196  1.0000
  H   H5144     1.0  0.94916  0.82366  0.03832  1.0000
  H   H5145     1.0  0.93268  0.81215  0.06488  1.0000
  H   H5146     1.0  0.91890  0.80038  0.06399  1.0000
  H   H5147     1.0  0.92448  0.78512  0.04353  1.0000
  H   H5148     1.0  0.92249  0.80362  0.02855  1.0000
  H   H5149     1.0  0.95386  0.77616  0.02507  1.0000
  H   H5150     1.0  0.94753  0.79421  0.00988  1.0000
  H   H5151     1.0  0.93506  0.77916  0.07543  1.0000
  H   H5152     1.0  0.94049  0.76651  0.06027  1.0000
  H   H5153     1.0  0.90795  0.82287  0.04153  1.0000
  H   H5154     1.0  0.92130  0.83519  0.04293  1.0000
  H   H5155     1.0  0.97525  0.80480  0.03218  1.0000
  H   H5156     1.0  0.96908  0.79813  0.01720  1.0000
  H   H5157     1.0  0.67718  0.66216  0.03213  1.0000
  H   H5158     1.0  0.96439  0.67956  0.02161  1.0000
  C   C2912     1.0  0.96333  0.71701  0.08558  1.0000
  H   H5159     1.0  0.92926  0.76555  0.02598  1.0000
  H   H5160     1.0  0.92291  0.78359  0.01062  1.0000
  H   H5161     1.0  0.94216  0.76901  0.00560  1.0000
  H   H5162     1.0  0.96889  0.75643  0.06614  1.0000
  H   H5163     1.0  0.96374  0.77011  0.08024  1.0000
  H   H5164     1.0  0.95313  0.75342  0.08479  1.0000
  H   H5165     1.0  0.90765  0.83415  0.07261  1.0000
  H   H5166     1.0  0.89305  0.84268  0.05928  1.0000
  H   H5167     1.0  0.89424  0.82177  0.07115  1.0000
  N   N159      1.0  0.93432  0.82054  0.18717  1.0000
  C   C2913     1.0  0.94082  0.82040  0.16905  1.0000
  C   C2914     1.0  0.94523  0.78880  0.19589  1.0000
  C   C2915     1.0  0.95955  0.82050  0.16225  1.0000
  C   C2916     1.0  0.98016  0.93585  0.11133  1.0000
  C   C2917     1.0  0.96480  0.81952  0.14404  1.0000
  H   H5168     1.0  0.93363  0.83124  0.16159  1.0000
  H   H5169     1.0  0.93879  0.80945  0.16602  1.0000
  H   H5170     1.0  0.94964  0.83681  0.18761  1.0000
  H   H5171     1.0  0.95678  0.80829  0.19620  1.0000
  H   H5172     1.0  0.94935  0.78773  0.18282  1.0000
  H   H5173     1.0  0.96238  0.83203  0.16316  1.0000
  H   H5174     1.0  0.96732  0.80973  0.16907  1.0000
  H   H5175     1.0  0.90971  0.81645  0.17063  1.0000
  H   H5176     1.0  0.93445  0.96010  0.14368  1.0000
  S   S656      1.0  0.76491  0.65875  0.03111  1.0000
  S   S657      1.0  0.95337  0.66378  0.14891  1.0000
  H   H5177     1.0  0.96228  0.80815  0.14227  1.0000
  H   H5178     1.0  0.95803  0.83054  0.13645  1.0000
  H   H5179     1.0  0.97033  0.77864  0.20017  1.0000
  C   C2918     1.0  0.89175  0.80860  0.19215  1.0000
  H   H5180     1.0  0.88192  0.71066  0.11987  1.0000
  C   C2919     1.0  0.85522  0.72623  0.10522  1.0000
  C   C2920     1.0  0.81972  0.67026  0.06748  1.0000
  H   H5181     1.0  0.86901  0.75325  0.13109  1.0000
  H   H5182     1.0  0.83892  0.94388  0.15570  1.0000
  H   H5183     1.0  0.98362  0.92934  0.16054  1.0000
  H   H5184     1.0  0.86209  0.71457  0.10113  1.0000
  H   H5185     1.0  0.87605  0.76623  0.16625  1.0000
  H   H5186     1.0  0.88340  0.82105  0.19148  1.0000
  H   H5187     1.0  0.97149  0.76194  0.10624  1.0000
  H   H5188     1.0  0.96937  0.72773  0.99418  1.0000
  S   S658      1.0  0.99006  0.76168  0.01797  1.0000
  H   H5189     1.0  0.88737  0.80141  0.18585  1.0000
  C   C2921     1.0  0.83771  0.95576  0.13077  1.0000
  H   H5190     1.0  0.84486  0.72358  0.11584  1.0000
  H   H5191     1.0  0.53832  0.67217  0.99728  1.0000
  H   H5192     1.0  0.70845  0.67802  0.99891  1.0000
  C   C2922     1.0  0.89406  0.69416  0.16941  1.0000
  Fe  Fe326     1.0  0.89850  0.92176  0.21498  1.0000
  H   H5193     1.0  0.87454  0.92506  0.15586  1.0000
  N   N160      1.0  0.70275  0.65703  0.01845  1.0000
  H   H5194     1.0  0.99177  0.79986  0.05882  1.0000
  S   S659      1.0  0.97898  0.67272  0.16588  1.0000
  H   H5195     1.0  0.90587  0.74169  0.12235  1.0000
  H   H5196     1.0  0.98523  0.66768  0.02179  1.0000
  C   C2923     1.0  0.80895  0.67220  0.03752  1.0000
  H   H5197     1.0  0.91342  0.95626  0.13122  1.0000
  C   C2924     1.0  0.99046  0.67996  0.04652  1.0000
  H   H5198     1.0  0.98647  0.78105  0.14541  1.0000
  H   H5199     1.0  0.68968  0.67416  0.04441  1.0000
  C   C2925     1.0  0.85861  0.96721  0.16419  1.0000
  S   S660      1.0  0.78867  0.68054  0.99077  1.0000
  H   H5200     1.0  0.79244  0.70272  0.02114  1.0000
  H   H5201     1.0  0.90169  0.70511  0.13566  1.0000
  C   C2926     1.0  0.85933  0.74344  0.98475  1.0000
  C   C2927     1.0  0.84665  0.94273  0.14329  1.0000
  C   C2928     1.0  0.98649  0.79192  0.08530  1.0000
  H   H5202     1.0  0.77757  0.70815  0.03910  1.0000
  H   H5203     1.0  0.98724  0.71917  0.07027  1.0000
  H   H5204     1.0  0.98552  0.72406  0.15531  1.0000
  C   C2929     1.0  0.91402  0.98338  0.20308  1.0000
  H   H5205     1.0  0.83622  0.90999  0.16974  1.0000
  H   H5206     1.0  0.98570  0.92270  0.11086  1.0000
  H   H5207     1.0  0.52716  0.65574  0.00654  1.0000
  H   H5208     1.0  0.96591  0.90922  0.11860  1.0000
  H   H5209     1.0  0.86555  0.92320  0.22637  1.0000
  H   H5210     1.0  0.96627  0.82671  0.99980  1.0000
  H   H5211     1.0  0.90845  0.83311  0.18905  1.0000
  C   C2930     1.0  0.84928  0.92503  0.14040  1.0000
  H   H5212     1.0  0.49718  0.80392  0.22651  1.0000
  H   H5213     1.0  0.96935  0.94023  0.10538  1.0000
  C   C2931     1.0  0.94398  0.80647  0.19796  1.0000
  C   C2932     1.0  0.87476  0.72218  0.12420  1.0000
  H   H5214     1.0  0.98697  0.93225  0.13426  1.0000
  C   C2933     1.0  0.91600  0.82033  0.19207  1.0000
  H   H5215     1.0  0.97267  0.75353  0.13521  1.0000
  H   H5216     1.0  0.97329  0.95133  0.12930  1.0000
  H   H5217     1.0  0.92568  0.86734  0.19900  1.0000
  H   H5218     1.0  0.95401  0.77626  0.21858  1.0000
  H   H5219     1.0  0.97038  0.73292  0.13604  1.0000
  H   H5220     1.0  0.92517  0.68163  0.06857  1.0000
  H   H5221     1.0  0.88098  0.71910  0.99775  1.0000
  C   C2934     1.0  0.84394  0.97929  0.16437  1.0000
  H   H5222     1.0  0.81152  0.98735  0.11556  1.0000
  H   H5223     1.0  0.90339  0.97808  0.20489  1.0000
  H   H5224     1.0  0.85281  0.73414  0.99396  1.0000
  C   C2935     1.0  0.94800  0.67355  0.09777  1.0000
  C   C2936     1.0  0.97377  0.67388  0.02939  1.0000
  H   H5225     1.0  0.97160  0.69025  0.07169  1.0000
  H   H5226     1.0  0.51676  0.82579  0.21171  1.0000
  C   C2937     1.0  0.79140  0.68274  0.04297  1.0000
  C   C2938     1.0  0.69781  0.67191  0.00535  1.0000
  H   H5227     1.0  0.96462  0.72256  0.09524  1.0000
  H   H5228     1.0  0.83680  0.92251  0.14184  1.0000
  H   H5229     1.0  0.91754  0.66379  0.14521  1.0000
  C   C2939     1.0  0.86146  0.75532  0.99441  1.0000
  H   H5230     1.0  0.78204  0.67853  0.03930  1.0000
  H   H5231     1.0  0.92525  0.85948  0.22064  1.0000
  H   H5232     1.0  0.96380  0.87914  0.14759  1.0000
  H   H5233     1.0  0.82525  0.95351  0.13183  1.0000
  C   C2940     1.0  0.97734  0.68734  0.03562  1.0000
  C   C2941     1.0  0.79021  0.70104  0.03475  1.0000
  H   H5234     1.0  0.95418  0.67146  0.07232  1.0000
  C   C2942     1.0  0.96723  0.93505  0.18277  1.0000
  H   H5235     1.0  0.98694  0.70074  0.08628  1.0000
  C   C2943     1.0  0.84483  0.76616  0.00076  1.0000
  H   H5236     1.0  0.74075  0.97802  0.17129  1.0000
  H   H5237     1.0  0.68818  0.68149  0.01113  1.0000
  H   H5238     1.0  0.98650  0.85308  0.09023  1.0000
  C   C2944     1.0  0.94436  0.67478  0.08253  1.0000
  H   H5239     1.0  0.84672  0.77411  0.00806  1.0000
  H   H5240     1.0  0.81004  0.67125  0.02457  1.0000
  H   H5241     1.0  0.87566  0.70023  0.15483  1.0000
  H   H5242     1.0  0.86241  0.77084  0.15221  1.0000
  C   C2945     1.0  0.96530  0.91199  0.14376  1.0000
  H   H5243     1.0  0.94694  0.93416  0.12201  1.0000
  C   C2946     1.0  0.93916  0.93922  0.22699  1.0000
  C   C2947     1.0  0.97872  0.69981  0.06433  1.0000
  C   C2948     1.0  0.87424  0.74229  0.13994  1.0000
  C   C2949     1.0  0.70208  0.67621  0.03726  1.0000
  H   H5244     1.0  0.86437  0.71827  0.13420  1.0000
  N   N161      1.0  0.96110  0.93071  0.14065  1.0000
  C   C2950     1.0  0.93873  0.95640  0.13159  1.0000
  C   C2951     1.0  0.84517  0.89707  0.19940  1.0000
  H   H5245     1.0  0.85869  0.94598  0.14200  1.0000
  C   C2952     1.0  0.81344  0.65564  0.06553  1.0000
  C   C2953     1.0  0.86009  0.68090  0.00198  1.0000
  C   C2954     1.0  0.88254  0.74910  0.14992  1.0000
  H   H5246     1.0  0.86322  0.73784  0.14837  1.0000
  H   H5247     1.0  0.99154  0.71307  0.03363  1.0000
  C   C2955     1.0  0.87315  0.97046  0.15290  1.0000
  H   H5248     1.0  0.98240  0.88284  0.13229  1.0000
  H   H5249     1.0  0.96511  0.87962  0.12626  1.0000
  H   H5250     1.0  0.95634  0.94930  0.15509  1.0000
  C   C2956     1.0  0.95774  0.93569  0.15701  1.0000
  H   H5251     1.0  0.98583  0.66998  0.05665  1.0000
  H   H5252     1.0  0.86871  0.89669  0.18283  1.0000
  H   H5253     1.0  0.85659  0.88397  0.17984  1.0000
  H   H5254     1.0  0.91026  0.70433  0.00314  1.0000
  C   C2957     1.0  0.86966  0.76066  0.16016  1.0000
  C   C2958     1.0  0.89447  0.71515  0.14224  1.0000
  C   C2959     1.0  0.52063  0.80616  0.19926  1.0000
  H   H5255     1.0  0.87518  0.71595  0.16529  1.0000
  H   H5256     1.0  0.88600  0.68748  0.18005  1.0000
  H   H5257     1.0  0.85035  0.88667  0.20875  1.0000
  C   C2960     1.0  0.85612  0.89614  0.18227  1.0000
  H   H5258     1.0  0.85514  0.92566  0.12717  1.0000
  H   H5259     1.0  0.90402  0.71917  0.14581  1.0000
  H   H5260     1.0  0.83234  0.89621  0.19986  1.0000
  H   H5261     1.0  0.95487  0.93348  0.19051  1.0000
  H   H5262     1.0  0.98955  0.75091  0.15122  1.0000
  C   C2961     1.0  0.92793  0.68039  0.08044  1.0000
  H   H5263     1.0  0.81820  0.67946  0.03653  1.0000
  C   C2962     1.0  0.99323  0.94576  0.10094  1.0000
  H   H5264     1.0  0.53158  0.81002  0.19015  1.0000
  H   H5265     1.0  0.84349  0.66521  0.03246  1.0000
  H   H5266     1.0  0.94467  0.85644  0.20588  1.0000
  Fe  Fe327     1.0  0.81488  0.66559  0.98669  1.0000
  H   H5267     1.0  0.95569  0.70754  0.09169  1.0000
  H   H5268     1.0  0.84508  0.95566  0.11801  1.0000
  H   H5269     1.0  0.92725  0.95867  0.11107  1.0000
  H   H5270     1.0  0.97048  0.70874  0.05643  1.0000
  C   C2963     1.0  0.98758  0.84103  0.09923  1.0000
  H   H5271     1.0  0.52512  0.79622  0.20935  1.0000
  H   H5272     1.0  0.96871  0.66456  0.03992  1.0000
  H   H5273     1.0  0.89515  0.95890  0.23234  1.0000
  C   C2964     1.0  0.87308  0.98587  0.14199  1.0000
  C   C2965     1.0  0.96761  0.75033  0.11354  1.0000
  H   H5274     1.0  0.97237  0.83348  0.01508  1.0000
  C   C2966     1.0  0.95768  0.77609  0.20522  1.0000
  C   C2967     1.0  0.98042  0.70918  0.07667  1.0000
  H   H5275     1.0  0.97671  0.92882  0.19033  1.0000
  H   H5276     1.0  0.95390  0.75308  0.11782  1.0000
  H   H5277     1.0  0.97163  0.91406  0.17204  1.0000
  H   H5278     1.0  0.83927  0.77426  0.99032  1.0000
  C   C2968     1.0  0.93116  0.85695  0.20814  1.0000
  H   H5279     1.0  0.84481  0.90887  0.20266  1.0000
  C   C2969     1.0  0.92807  0.84060  0.20705  1.0000
  H   H5280     1.0  0.91442  0.84179  0.20978  1.0000
  C   C2970     1.0  0.71194  0.66184  0.02847  1.0000
  H   H5281     1.0  0.70004  0.66040  0.98464  1.0000
  H   H5282     1.0  0.98856  0.70100  0.18011  1.0000
  H   H5283     1.0  0.95052  0.94116  0.22941  1.0000
  H   H5284     1.0  0.94217  0.92721  0.22319  1.0000
  H   H5285     1.0  0.72336  0.66587  0.02050  1.0000
  H   H5286     1.0  0.83259  0.65625  0.08726  1.0000
  H   H5287     1.0  0.86990  0.98061  0.23235  1.0000
  H   H5288     1.0  0.98830  0.95920  0.10051  1.0000
  H   H5289     1.0  0.82675  0.67826  0.08597  1.0000
  C   C2971     1.0  0.88709  0.72672  0.98628  1.0000
  C   C2972     1.0  0.91576  0.71075  0.99061  1.0000
  S   S661      1.0  0.83912  0.67096  0.98896  1.0000
  C   C2973     1.0  0.50936  0.82099  0.20611  1.0000
  H   H5290     1.0  0.72927  0.98470  0.15494  1.0000
  C   C2974     1.0  0.82269  0.66745  0.08483  1.0000
  H   H5291     1.0  0.50578  0.83080  0.19549  1.0000
  N   N162      1.0  0.81285  0.65518  0.04827  1.0000
  H   H5292     1.0  0.80086  0.65617  0.07377  1.0000
  H   H5293     1.0  0.81110  0.66601  0.09424  1.0000
  Fe  Fe328     1.0  0.99515  0.67640  0.14034  1.0000
  C   C2975     1.0  0.99484  0.73778  0.12277  1.0000
  N   N163      1.0  0.99463  0.69202  0.05388  1.0000
  H   H5294     1.0  0.49540  0.84858  0.21509  1.0000
  C   C2976     1.0  0.73135  0.98807  0.16570  1.0000
  Fe  Fe329     1.0  0.71473  0.91075  0.42187  1.0000
  S   S662      1.0  0.73010  0.88767  0.43410  1.0000
  S   S663      1.0  0.69167  0.92493  0.43586  1.0000
  Fe  Fe330     1.0  0.73661  0.90977  0.38771  1.0000
  S   S664      1.0  0.75394  0.88651  0.39718  1.0000
  S   S665      1.0  0.74114  0.91950  0.36013  1.0000
  Fe  Fe331     1.0  0.73092  0.87789  0.41218  1.0000
  S   S666      1.0  0.72972  0.85133  0.41563  1.0000
  Fe  Fe332     1.0  0.75170  0.89835  0.41808  1.0000
  S   S667      1.0  0.77305  0.89674  0.42934  1.0000
  S   S668      1.0  0.71357  0.90018  0.40118  1.0000
  S   S669      1.0  0.73629  0.92249  0.40742  1.0000
  H   H5295     1.0  0.78247  0.90836  0.46357  1.0000
  Fe  Fe333     1.0  0.65378  0.82167  0.44879  1.0000
  S   S670      1.0  0.66601  0.79581  0.44577  1.0000
  S   S671      1.0  0.65613  0.84332  0.42766  1.0000
  Fe  Fe334     1.0  0.64205  0.78919  0.46139  1.0000
  S   S672      1.0  0.63092  0.76982  0.45656  1.0000
  Fe  Fe335     1.0  0.67398  0.79343  0.46930  1.0000
  S   S673      1.0  0.62928  0.81543  0.46269  1.0000
  C   C2977     1.0  0.86916  0.96819  0.24025  1.0000
  S   S674      1.0  0.80225  0.82072  0.45212  1.0000
  H   H5296     1.0  0.92921  0.92811  0.25197  1.0000
  H   H5297     1.0  0.55496  0.79815  0.39485  1.0000
  C   C2978     1.0  0.84287  0.84848  0.48242  1.0000
  H   H5298     1.0  0.65649  0.78765  0.42033  1.0000
  H   H5299     1.0  0.75590  0.93262  0.46471  1.0000
  H   H5300     1.0  0.92622  0.98726  0.28200  1.0000
  C   C2979     1.0  0.75934  0.97785  0.25840  1.0000
  S   S675      1.0  0.81653  0.94016  0.26762  1.0000
  C   C2980     1.0  0.55329  0.80722  0.38314  1.0000
  Fe  Fe336     1.0  0.56236  0.75726  0.41192  1.0000
  S   S676      1.0  0.57452  0.75058  0.38721  1.0000
  S   S677      1.0  0.57200  0.77483  0.42142  1.0000
  Fe  Fe337     1.0  0.52998  0.74638  0.41242  1.0000
  S   S678      1.0  0.53989  0.73955  0.38779  1.0000
  C   C2981     1.0  0.75057  0.84543  0.45084  1.0000
  Fe  Fe338     1.0  0.56324  0.72807  0.39709  1.0000
  S   S679      1.0  0.57706  0.70322  0.39157  1.0000
  Fe  Fe339     1.0  0.55009  0.76252  0.38018  1.0000
  S   S680      1.0  0.54859  0.78020  0.35588  1.0000
  S   S681      1.0  0.55295  0.73348  0.42263  1.0000
  S   S682      1.0  0.53827  0.77048  0.40403  1.0000
  Fe  Fe340     1.0  0.52666  0.68462  0.30331  1.0000
  S   S683      1.0  0.52804  0.68694  0.32817  1.0000
  S   S684      1.0  0.50931  0.70238  0.28783  1.0000
  C   C2982     1.0  0.51929  0.85797  0.35469  1.0000
  H   H5301     1.0  0.67490  0.77476  0.36878  1.0000
  C   C2983     1.0  0.84185  0.80138  0.46878  1.0000
  C   C2984     1.0  0.86091  0.92447  0.23902  1.0000
  H   H5302     1.0  0.56197  0.82531  0.43078  1.0000
  C   C2985     1.0  0.50852  0.72363  0.28471  1.0000
  C   C2986     1.0  0.84389  0.93023  0.24465  1.0000
  H   H5303     1.0  0.72303  0.92209  0.46882  1.0000
  H   H5304     1.0  0.77975  0.93562  0.40356  1.0000
  C   C2987     1.0  0.50688  0.80029  0.33808  1.0000
  H   H5305     1.0  0.74946  0.86706  0.47307  1.0000
  H   H5306     1.0  0.62192  0.85711  0.48156  1.0000
  C   C2988     1.0  0.52787  0.78583  0.35405  1.0000
  C   C2989     1.0  0.51564  0.78012  0.36717  1.0000
  C   C2990     1.0  0.88604  0.95915  0.24423  1.0000
  H   H5307     1.0  0.60738  0.76493  0.39508  1.0000
  H   H5308     1.0  0.50350  0.80830  0.32694  1.0000
  C   C2991     1.0  0.52352  0.79590  0.33948  1.0000
  H   H5309     1.0  0.51888  0.77233  0.37845  1.0000
  H   H5310     1.0  0.84640  0.80498  0.45525  1.0000
  H   H5311     1.0  0.82950  0.80932  0.47226  1.0000
  H   H5312     1.0  0.53298  0.80033  0.32932  1.0000
  C   C2992     1.0  0.57560  0.69948  0.37289  1.0000
  C   C2993     1.0  0.59014  0.69320  0.36238  1.0000
  C   C2994     1.0  0.58950  0.69001  0.34747  1.0000
  C   C2995     1.0  0.57425  0.69226  0.34326  1.0000
  N   N164      1.0  0.54039  0.82247  0.38656  1.0000
  C   C2996     1.0  0.69427  0.78591  0.36936  1.0000
  C   C2997     1.0  0.53716  0.74024  0.32952  1.0000
  H   H5313     1.0  0.65046  0.85997  0.47833  1.0000
  H   H5314     1.0  0.51115  0.74593  0.36747  1.0000
  C   C2998     1.0  0.83930  0.78369  0.47267  1.0000
  S   S685      1.0  0.57436  0.68965  0.32360  1.0000
  C   C2999     1.0  0.87178  0.92035  0.24974  1.0000
  H   H5315     1.0  0.60202  0.69112  0.36559  1.0000
  C   C3000     1.0  0.50684  0.75055  0.26604  1.0000
  C   C3001     1.0  0.83777  0.93248  0.26085  1.0000
  C   C3002     1.0  0.84865  0.92864  0.27154  1.0000
  C   C3003     1.0  0.86560  0.92224  0.26607  1.0000
  H   H5316     1.0  0.50988  0.69702  0.42347  1.0000
  H   H5317     1.0  0.56204  0.77572  0.29386  1.0000
  H   H5318     1.0  0.84393  0.93039  0.28407  1.0000
  H   H5319     1.0  0.87396  0.91908  0.27434  1.0000
  C   C3004     1.0  0.61422  0.77151  0.44708  1.0000
  C   C3005     1.0  0.60464  0.78679  0.44090  1.0000
  C   C3006     1.0  0.59180  0.78749  0.43317  1.0000
  C   C3007     1.0  0.58841  0.77299  0.43134  1.0000
  C   C3008     1.0  0.59804  0.75771  0.43748  1.0000
  C   C3009     1.0  0.61079  0.75700  0.44536  1.0000
  H   H5320     1.0  0.60711  0.79806  0.44209  1.0000
  H   H5321     1.0  0.58448  0.79938  0.42849  1.0000
  C   C3010     1.0  0.65825  0.75662  0.41764  1.0000
  C   C3011     1.0  0.51476  0.81052  0.38911  1.0000
  H   H5322     1.0  0.52720  0.73885  0.32428  1.0000
  C   C3012     1.0  0.75007  0.93694  0.35211  1.0000
  C   C3013     1.0  0.75017  0.94711  0.36227  1.0000
  C   C3014     1.0  0.75886  0.95997  0.35594  1.0000
  C   C3015     1.0  0.76751  0.96263  0.33948  1.0000
  C   C3016     1.0  0.76683  0.95292  0.32912  1.0000
  C   C3017     1.0  0.75803  0.94014  0.33543  1.0000
  H   H5323     1.0  0.74373  0.94494  0.37504  1.0000
  C   C3018     1.0  0.67024  0.75456  0.42912  1.0000
  H   H5324     1.0  0.77333  0.95503  0.31635  1.0000
  H   H5325     1.0  0.75777  0.93241  0.32749  1.0000
  C   C3019     1.0  0.78287  0.87591  0.43473  1.0000
  C   C3020     1.0  0.78808  0.86998  0.44969  1.0000
  C   C3021     1.0  0.79429  0.85304  0.45494  1.0000
  C   C3022     1.0  0.79610  0.84208  0.44485  1.0000
  C   C3023     1.0  0.79193  0.84817  0.42937  1.0000
  C   C3024     1.0  0.78499  0.86502  0.42447  1.0000
  C   C3025     1.0  0.51697  0.73926  0.35727  1.0000
  H   H5326     1.0  0.82022  0.87393  0.36249  1.0000
  H   H5327     1.0  0.79333  0.83979  0.42149  1.0000
  H   H5328     1.0  0.78120  0.86955  0.41281  1.0000
  C   C3026     1.0  0.70958  0.84887  0.41755  1.0000
  C   C3027     1.0  0.69800  0.86136  0.40999  1.0000
  C   C3028     1.0  0.68169  0.85939  0.41247  1.0000
  C   C3029     1.0  0.67688  0.84511  0.42285  1.0000
  C   C3030     1.0  0.68862  0.83245  0.42999  1.0000
  C   C3031     1.0  0.70496  0.83425  0.42716  1.0000
  H   H5329     1.0  0.70162  0.87245  0.40207  1.0000
  H   H5330     1.0  0.67274  0.86908  0.40664  1.0000
  H   H5331     1.0  0.68515  0.82127  0.43782  1.0000
  H   H5332     1.0  0.71382  0.82457  0.43299  1.0000
  H   H5333     1.0  0.52734  0.85805  0.37618  1.0000
  H   H5334     1.0  0.57571  0.81349  0.46060  1.0000
  C   C3032     1.0  0.69071  0.92323  0.45688  1.0000
  C   C3033     1.0  0.68416  0.93740  0.46348  1.0000
  H   H5335     1.0  0.50700  0.75797  0.25368  1.0000
  H   H5336     1.0  0.70085  0.89702  0.46222  1.0000
  H   H5337     1.0  0.68028  0.94920  0.45555  1.0000
  H   H5338     1.0  0.57752  0.75238  0.34804  1.0000
  N   N165      1.0  0.85792  0.81965  0.47549  1.0000
  H   H5339     1.0  0.52146  0.70874  0.40562  1.0000
  C   C3034     1.0  0.55293  0.82180  0.41102  1.0000
  H   H5340     1.0  0.89021  0.79889  0.47629  1.0000
  H   H5341     1.0  0.62908  0.75642  0.41083  1.0000
  S   S686      1.0  0.82045  0.96128  0.30151  1.0000
  H   H5342     1.0  0.54901  0.70698  0.37665  1.0000
  H   H5343     1.0  0.55686  0.76247  0.32967  1.0000
  H   H5344     1.0  0.51628  0.82734  0.40312  1.0000
  C   C3035     1.0  0.86385  0.82676  0.45746  1.0000
  C   C3036     1.0  0.87959  0.81640  0.44828  1.0000
  H   H5345     1.0  0.55395  0.76691  0.28174  1.0000
  H   H5346     1.0  0.53054  0.86142  0.34579  1.0000
  Fe  Fe341     1.0  0.55539  0.67800  0.31985  1.0000
  C   C3037     1.0  0.85430  0.80270  0.47829  1.0000
  C   C3038     1.0  0.88270  0.82361  0.42971  1.0000
  H   H5347     1.0  0.54134  0.68459  0.39874  1.0000
  H   H5348     1.0  0.53730  0.79892  0.29459  1.0000
  H   H5349     1.0  0.53422  0.82617  0.36286  1.0000
  H   H5350     1.0  0.76741  0.94119  0.38825  1.0000
  H   H5351     1.0  0.56556  0.71129  0.28844  1.0000
  C   C3039     1.0  0.55793  0.72284  0.28243  1.0000
  C   C3040     1.0  0.50455  0.74842  0.29513  1.0000
  H   H5352     1.0  0.65364  0.75951  0.38719  1.0000
  H   H5353     1.0  0.85374  0.82932  0.45067  1.0000
  H   H5354     1.0  0.87641  0.82982  0.48016  1.0000
  H   H5355     1.0  0.87856  0.80342  0.45011  1.0000
  H   H5356     1.0  0.88054  0.97146  0.26453  1.0000
  H   H5357     1.0  0.54965  0.71940  0.27655  1.0000
  H   H5358     1.0  0.50734  0.84065  0.23595  1.0000
  H   H5359     1.0  0.63415  0.88082  0.44934  1.0000
  H   H5360     1.0  0.64600  0.78115  0.38257  1.0000
  S   S687      1.0  0.89321  0.91375  0.24252  1.0000
  C   C3041     1.0  0.55955  0.69802  0.35400  1.0000
  H   H5361     1.0  0.52430  0.72702  0.36232  1.0000
  H   H5362     1.0  0.54004  0.74426  0.28857  1.0000
  H   H5363     1.0  0.84565  0.93347  0.35244  1.0000
  H   H5364     1.0  0.89426  0.81620  0.42343  1.0000
  H   H5365     1.0  0.87225  0.82325  0.42456  1.0000
  H   H5366     1.0  0.88415  0.83660  0.42707  1.0000
  H   H5367     1.0  0.81790  0.92141  0.32737  1.0000
  H   H5368     1.0  0.75145  0.97922  0.29065  1.0000
  C   C3042     1.0  0.73192  0.98474  0.32160  1.0000
  H   H5369     1.0  0.83010  0.78319  0.46597  1.0000
  H   H5370     1.0  0.89060  0.81664  0.45258  1.0000
  H   H5371     1.0  0.68262  0.76087  0.39440  1.0000
  C   C3043     1.0  0.62323  0.86245  0.46811  1.0000
  C   C3044     1.0  0.78026  0.93675  0.39028  1.0000
  H   H5372     1.0  0.63915  0.80422  0.39126  1.0000
  N   N166      1.0  0.66269  0.87970  0.46346  1.0000
  C   C3045     1.0  0.65972  0.89492  0.45002  1.0000
  H   H5373     1.0  0.75587  0.91535  0.45741  1.0000
  C   C3046     1.0  0.68051  0.87068  0.45874  1.0000
  H   H5374     1.0  0.51181  0.70745  0.35331  1.0000
  C   C3047     1.0  0.50470  0.75813  0.27915  1.0000
  C   C3048     1.0  0.66461  0.89185  0.43224  1.0000
  H   H5375     1.0  0.62674  0.75620  0.38278  1.0000
  H   H5376     1.0  0.54783  0.79726  0.27373  1.0000
  H   H5377     1.0  0.70024  0.83749  0.45879  1.0000
  Fe  Fe342     1.0  0.52756  0.65988  0.33562  1.0000
  C   C3049     1.0  0.65833  0.90727  0.41995  1.0000
  H   H5378     1.0  0.50947  0.72774  0.25874  1.0000
  H   H5379     1.0  0.66687  0.90396  0.45016  1.0000
  H   H5380     1.0  0.64658  0.90162  0.45215  1.0000
  H   H5381     1.0  0.54315  0.72741  0.33478  1.0000
  C   C3050     1.0  0.67678  0.78257  0.37624  1.0000
  H   H5382     1.0  0.68898  0.87953  0.45444  1.0000
  H   H5383     1.0  0.68219  0.86505  0.44798  1.0000
  H   H5384     1.0  0.65715  0.85913  0.45724  1.0000
  H   H5385     1.0  0.53542  0.77356  0.31613  1.0000
  S   S688      1.0  0.66350  0.81995  0.47104  1.0000
  S   S689      1.0  0.50270  0.77968  0.27494  1.0000
  H   H5386     1.0  0.67834  0.88871  0.42819  1.0000
  H   H5387     1.0  0.65952  0.88152  0.43161  1.0000
  C   C3051     1.0  0.51464  0.69158  0.38533  1.0000
  H   H5388     1.0  0.77703  0.75065  0.47631  1.0000
  C   C3052     1.0  0.91657  0.98430  0.26221  1.0000
  H   H5389     1.0  0.57748  0.72677  0.32910  1.0000
  C   C3053     1.0  0.57086  0.73723  0.33522  1.0000
  C   C3054     1.0  0.89142  0.96790  0.25476  1.0000
  N   N167      1.0  0.65712  0.77213  0.40413  1.0000
  H   H5390     1.0  0.85967  0.96934  0.25179  1.0000
  H   H5391     1.0  0.61066  0.86811  0.46555  1.0000
  H   H5392     1.0  0.52016  0.76138  0.33920  1.0000
  H   H5393     1.0  0.66245  0.90476  0.40731  1.0000
  H   H5394     1.0  0.64456  0.91071  0.42293  1.0000
  H   H5395     1.0  0.66348  0.91778  0.42012  1.0000
  H   H5396     1.0  0.82775  0.89944  0.35084  1.0000
  H   H5397     1.0  0.52787  0.71019  0.43118  1.0000
  Fe  Fe343     1.0  0.79591  0.97874  0.30701  1.0000
  N   N168      1.0  0.76203  0.80197  0.43951  1.0000
  C   C3055     1.0  0.77579  0.79634  0.42573  1.0000
  C   C3056     1.0  0.74557  0.80186  0.43633  1.0000
  C   C3057     1.0  0.76204  0.81974  0.43882  1.0000
  C   C3058     1.0  0.76418  0.79177  0.45640  1.0000
  C   C3059     1.0  0.77241  0.77312  0.45766  1.0000
  C   C3060     1.0  0.79323  0.79852  0.42564  1.0000
  C   C3061     1.0  0.74783  0.82856  0.45103  1.0000
  C   C3062     1.0  0.74265  0.78501  0.43587  1.0000
  C   C3063     1.0  0.72680  0.78735  0.42978  1.0000
  C   C3064     1.0  0.62008  0.76684  0.38870  1.0000
  C   C3065     1.0  0.80697  0.78821  0.41478  1.0000
  H   H5398     1.0  0.73660  0.92825  0.43914  1.0000
  H   H5399     1.0  0.77286  0.80330  0.41355  1.0000
  H   H5400     1.0  0.77683  0.78320  0.42580  1.0000
  H   H5401     1.0  0.73520  0.80622  0.44618  1.0000
  H   H5402     1.0  0.74357  0.81074  0.42454  1.0000
  H   H5403     1.0  0.76162  0.82739  0.42615  1.0000
  H   H5404     1.0  0.77372  0.82055  0.44151  1.0000
  H   H5405     1.0  0.77180  0.79689  0.46163  1.0000
  H   H5406     1.0  0.75195  0.79266  0.46516  1.0000
  H   H5407     1.0  0.78596  0.77157  0.45251  1.0000
  H   H5408     1.0  0.76734  0.76712  0.45085  1.0000
  H   H5409     1.0  0.79408  0.81168  0.42061  1.0000
  H   H5410     1.0  0.79571  0.79498  0.43825  1.0000
  H   H5411     1.0  0.81694  0.85977  0.48128  1.0000
  H   H5412     1.0  0.73577  0.83076  0.44751  1.0000
  H   H5413     1.0  0.75293  0.77838  0.42752  1.0000
  H   H5414     1.0  0.74101  0.77716  0.44853  1.0000
  H   H5415     1.0  0.71595  0.79408  0.43762  1.0000
  H   H5416     1.0  0.55621  0.83826  0.38684  1.0000
  N   N169      1.0  0.51864  0.67751  0.39947  1.0000
  H   H5417     1.0  0.51454  0.84983  0.34981  1.0000
  H   H5418     1.0  0.81917  0.79055  0.41459  1.0000
  H   H5419     1.0  0.80723  0.77481  0.41975  1.0000
  H   H5420     1.0  0.80505  0.79164  0.40193  1.0000
  C   C3066     1.0  0.50690  0.73108  0.29783  1.0000
  H   H5421     1.0  0.83551  0.93333  0.23633  1.0000
  H   H5422     1.0  0.75240  0.85302  0.43808  1.0000
  H   H5423     1.0  0.53892  0.72538  0.30402  1.0000
  H   H5424     1.0  0.69653  0.79429  0.37597  1.0000
  Fe  Fe344     1.0  0.82965  0.98418  0.28708  1.0000
  H   H5425     1.0  0.50703  0.72351  0.31007  1.0000
  H   H5426     1.0  0.65786  0.80766  0.39463  1.0000
  H   H5427     1.0  0.56735  0.83912  0.41125  1.0000
  H   H5428     1.0  0.52805  0.80709  0.40816  1.0000
  H   H5429     1.0  0.77653  0.92088  0.36604  1.0000
  H   H5430     1.0  0.76155  0.84400  0.45598  1.0000
  Fe  Fe345     1.0  0.81312  0.96222  0.27815  1.0000
  H   H5431     1.0  0.56475  0.72524  0.31096  1.0000
  C   C3067     1.0  0.70320  0.84545  0.46532  1.0000
  H   H5432     1.0  0.52267  0.80033  0.38319  1.0000
  C   C3068     1.0  0.80669  0.87433  0.36583  1.0000
  H   H5433     1.0  0.73801  0.97337  0.31674  1.0000
  C   C3069     1.0  0.67457  0.77344  0.39466  1.0000
  H   H5434     1.0  0.52884  0.79001  0.28277  1.0000
  H   H5435     1.0  0.86574  0.79341  0.47502  1.0000
  H   H5436     1.0  0.73957  0.85205  0.45851  1.0000
  C   C3070     1.0  0.58281  0.79360  0.37156  1.0000
  C   C3071     1.0  0.84269  0.92127  0.35386  1.0000
  C   C3072     1.0  0.58358  0.74215  0.34141  1.0000
  H   H5437     1.0  0.64589  0.75601  0.42597  1.0000
  H   H5438     1.0  0.50483  0.79381  0.41152  1.0000
  H   H5439     1.0  0.53432  0.67121  0.41721  1.0000
  H   H5440     1.0  0.62286  0.81449  0.41631  1.0000
  H   H5441     1.0  0.54902  0.80066  0.37615  1.0000
  C   C3073     1.0  0.55740  0.83291  0.41960  1.0000
  H   H5442     1.0  0.70929  0.83732  0.47537  1.0000
  H   H5443     1.0  0.72440  0.77509  0.43044  1.0000
  H   H5444     1.0  0.89377  0.97982  0.24668  1.0000
  H   H5445     1.0  0.88497  0.94644  0.25077  1.0000
  C   C3074     1.0  0.78304  0.90400  0.47681  1.0000
  H   H5446     1.0  0.50813  0.81467  0.26824  1.0000
  C   C3075     1.0  0.90915  0.96899  0.27223  1.0000
  H   H5447     1.0  0.54351  0.81537  0.42005  1.0000
  C   C3076     1.0  0.79666  0.89066  0.37125  1.0000
  C   C3077     1.0  0.56026  0.70202  0.36863  1.0000
  H   H5448     1.0  0.50701  0.73758  0.35228  1.0000
  H   H5449     1.0  0.71194  0.85291  0.45656  1.0000
  C   C3078     1.0  0.57066  0.81006  0.37306  1.0000
  H   H5450     1.0  0.76663  0.98100  0.24560  1.0000
  C   C3079     1.0  0.78786  0.91989  0.38577  1.0000
  C   C3080     1.0  0.92164  0.95508  0.24901  1.0000
  H   H5451     1.0  0.53608  0.84222  0.39930  1.0000
  N   N170      1.0  0.90615  0.95841  0.26225  1.0000
  C   C3081     1.0  0.90284  0.94245  0.27394  1.0000
  C   C3082     1.0  0.67028  0.73838  0.44204  1.0000
  H   H5452     1.0  0.68032  0.77934  0.40113  1.0000
  H   H5453     1.0  0.60090  0.68571  0.33917  1.0000
  H   H5454     1.0  0.78332  0.89116  0.37213  1.0000
  C   C3083     1.0  0.88672  0.94401  0.28760  1.0000
  C   C3084     1.0  0.92521  0.93905  0.24243  1.0000
  C   C3085     1.0  0.54300  0.66293  0.37922  1.0000
  H   H5455     1.0  0.75915  0.96764  0.36392  1.0000
  C   C3086     1.0  0.65155  0.86792  0.46570  1.0000
  C   C3087     1.0  0.88634  0.92787  0.30055  1.0000
  S   S690      1.0  0.77922  0.97803  0.33225  1.0000
  H   H5456     1.0  0.91360  0.93624  0.27991  1.0000
  H   H5457     1.0  0.90185  0.93344  0.26732  1.0000
  H   H5458     1.0  0.61811  0.74509  0.45005  1.0000
  C   C3088     1.0  0.73169  0.93816  0.44629  1.0000
  H   H5459     1.0  0.91773  0.96143  0.28048  1.0000
  N   N171      1.0  0.54957  0.74858  0.31616  1.0000
  Fe  Fe346     1.0  0.79220  0.81506  0.47948  1.0000
  H   H5460     1.0  0.79176  0.93278  0.35989  1.0000
  H   H5461     1.0  0.68320  0.75438  0.42210  1.0000
  H   H5462     1.0  0.52618  0.69503  0.37709  1.0000
  H   H5463     1.0  0.88541  0.95383  0.29423  1.0000
  H   H5464     1.0  0.87567  0.94693  0.28207  1.0000
  C   C3089     1.0  0.52814  0.74939  0.34380  1.0000
  C   C3090     1.0  0.55847  0.73730  0.30432  1.0000
  H   H5465     1.0  0.58923  0.73138  0.35014  1.0000
  C   C3091     1.0  0.50865  0.82721  0.26047  1.0000
  H   H5466     1.0  0.78612  0.90753  0.34370  1.0000
  C   C3092     1.0  0.50569  0.82830  0.24347  1.0000
  C   C3093     1.0  0.50428  0.68854  0.37462  1.0000
  H   H5467     1.0  0.62176  0.77860  0.40695  1.0000
  H   H5468     1.0  0.79010  0.85922  0.38343  1.0000
  H   H5469     1.0  0.66207  0.74542  0.41219  1.0000
  H   H5470     1.0  0.87413  0.92893  0.30936  1.0000
  H   H5471     1.0  0.88817  0.91731  0.29468  1.0000
  H   H5472     1.0  0.89624  0.92535  0.30753  1.0000
  H   H5473     1.0  0.57251  0.75626  0.31312  1.0000
  H   H5474     1.0  0.59215  0.78805  0.47450  1.0000
  H   H5475     1.0  0.59315  0.81783  0.46524  1.0000
  C   C3094     1.0  0.64585  0.80394  0.40071  1.0000
  C   C3095     1.0  0.54744  0.73300  0.29516  1.0000
  C   C3096     1.0  0.62911  0.76801  0.40126  1.0000
  C   C3097     1.0  0.74933  0.92233  0.46736  1.0000
  H   H5476     1.0  0.72801  0.79444  0.41681  1.0000
  C   C3098     1.0  0.52487  0.81710  0.39748  1.0000
  H   H5477     1.0  0.57598  0.81681  0.37895  1.0000
  H   H5478     1.0  0.79754  0.84848  0.46687  1.0000
  H   H5479     1.0  0.79769  0.93426  0.33318  1.0000
  H   H5480     1.0  0.54633  0.84241  0.42349  1.0000
  H   H5481     1.0  0.56431  0.81237  0.40783  1.0000
  H   H5482     1.0  0.58425  0.78604  0.38397  1.0000
  H   H5483     1.0  0.71312  0.80761  0.47267  1.0000
  H   H5484     1.0  0.57835  0.78656  0.36516  1.0000
  C   C3099     1.0  0.52324  0.84924  0.37159  1.0000
  H   H5485     1.0  0.54842  0.83778  0.36274  1.0000
  H   H5486     1.0  0.54775  0.69988  0.35075  1.0000
  C   C3100     1.0  0.54634  0.83201  0.39536  1.0000
  H   H5487     1.0  0.69030  0.86223  0.48127  1.0000
  H   H5488     1.0  0.84849  0.91692  0.34215  1.0000
  H   H5489     1.0  0.64152  0.81724  0.42033  1.0000
  H   H5490     1.0  0.70374  0.77416  0.37061  1.0000
  H   H5491     1.0  0.56996  0.81716  0.36034  1.0000
  H   H5492     1.0  0.56169  0.73280  0.34624  1.0000
  H   H5493     1.0  0.59514  0.79588  0.36429  1.0000
  H   H5494     1.0  0.50290  0.75423  0.30531  1.0000
  C   C3101     1.0  0.53708  0.83338  0.37035  1.0000
  H   H5495     1.0  0.66639  0.76470  0.43591  1.0000
  H   H5496     1.0  0.84806  0.91240  0.36408  1.0000
  H   H5497     1.0  0.59561  0.74643  0.43623  1.0000
  H   H5498     1.0  0.80276  0.87302  0.35505  1.0000
  C   C3102     1.0  0.64708  0.77032  0.39299  1.0000
  H   H5499     1.0  0.50755  0.70287  0.38999  1.0000
  H   H5500     1.0  0.80960  0.90234  0.47145  1.0000
  H   H5501     1.0  0.61901  0.77842  0.37907  1.0000
  C   C3103     1.0  0.52985  0.68194  0.40770  1.0000
  H   H5502     1.0  0.62903  0.85239  0.46120  1.0000
  H   H5503     1.0  0.80813  0.85936  0.39051  1.0000
  H   H5504     1.0  0.79799  0.88928  0.38409  1.0000
  H   H5505     1.0  0.70900  0.97587  0.33319  1.0000
  C   C3104     1.0  0.49903  0.78469  0.36585  1.0000
  H   H5506     1.0  0.59359  0.74606  0.33096  1.0000
  S   S691      1.0  0.78769  0.97752  0.28493  1.0000
  H   H5507     1.0  0.63694  0.78474  0.42063  1.0000
  C   C3105     1.0  0.63544  0.81702  0.41054  1.0000
  H   H5508     1.0  0.63412  0.82945  0.40221  1.0000
  S   S692      1.0  0.50360  0.74584  0.42692  1.0000
  C   C3106     1.0  0.64890  0.78668  0.41222  1.0000
  S   S693      1.0  0.55423  0.67762  0.29412  1.0000
  H   H5509     1.0  0.53958  0.67127  0.36779  1.0000
  H   H5510     1.0  0.69567  0.79198  0.35607  1.0000
  H   H5511     1.0  0.65763  0.73815  0.44985  1.0000
  H   H5512     1.0  0.78722  0.92233  0.31488  1.0000
  H   H5513     1.0  0.76759  0.96816  0.26577  1.0000
  H   H5514     1.0  0.73949  0.94758  0.44143  1.0000
  H   H5515     1.0  0.92167  0.96582  0.23829  1.0000
  C   C3107     1.0  0.63374  0.87559  0.46268  1.0000
  H   H5516     1.0  0.80828  0.91136  0.30847  1.0000
  S   S694      1.0  0.82433  0.98378  0.26310  1.0000
  H   H5517     1.0  0.80696  0.89643  0.33851  1.0000
  C   C3108     1.0  0.77001  0.76364  0.47561  1.0000
  H   H5518     1.0  0.77969  0.91132  0.39348  1.0000
  H   H5519     1.0  0.51124  0.67825  0.36841  1.0000
  C   C3109     1.0  0.54034  0.76482  0.30761  1.0000
  H   H5520     1.0  0.81027  0.84775  0.37521  1.0000
  C   C3110     1.0  0.80050  0.92233  0.31338  1.0000
  H   H5521     1.0  0.74697  0.82116  0.46381  1.0000
  C   C3111     1.0  0.78920  0.92063  0.36723  1.0000
  H   H5522     1.0  0.78677  0.87837  0.45748  1.0000
  H   H5523     1.0  0.81865  0.92827  0.36888  1.0000
  C   C3112     1.0  0.81916  0.90610  0.36036  1.0000
  N   N172      1.0  0.80139  0.90648  0.36043  1.0000
  H   H5524     1.0  0.81912  0.93241  0.34739  1.0000
  C   C3113     1.0  0.80432  0.92231  0.32973  1.0000
  H   H5525     1.0  0.82244  0.89876  0.37228  1.0000
  H   H5526     1.0  0.80325  0.93360  0.30416  1.0000
  H   H5527     1.0  0.78782  0.94596  0.38283  1.0000
  C   C3114     1.0  0.80357  0.85928  0.37962  1.0000
  C   C3115     1.0  0.79928  0.90748  0.34330  1.0000
  C   C3116     1.0  0.82388  0.92307  0.35762  1.0000
  C   C3117     1.0  0.55053  0.77396  0.29166  1.0000
  H   H5528     1.0  0.56622  0.73011  0.27268  1.0000
  H   H5529     1.0  0.54600  0.69988  0.41848  1.0000
  C   C3118     1.0  0.53341  0.69888  0.42604  1.0000
  H   H5530     1.0  0.53701  0.75180  0.34966  1.0000
  H   H5531     1.0  0.85114  0.77509  0.46876  1.0000
  C   C3119     1.0  0.54048  0.79108  0.28534  1.0000
  H   H5532     1.0  0.53443  0.68802  0.43648  1.0000
  C   C3120     1.0  0.52238  0.69737  0.41550  1.0000
  C   C3121     1.0  0.56235  0.75202  0.32321  1.0000
  H   H5533     1.0  0.67460  0.72760  0.43603  1.0000
  H   H5534     1.0  0.51155  0.84652  0.38003  1.0000
  H   H5535     1.0  0.66786  0.79454  0.37427  1.0000
  H   H5536     1.0  0.79732  0.92199  0.47560  1.0000
  H   H5537     1.0  0.56865  0.74247  0.29502  1.0000
  H   H5538     1.0  0.52915  0.76320  0.30451  1.0000
  C   C3122     1.0  0.50831  0.73344  0.26889  1.0000
  H   H5539     1.0  0.86676  0.83903  0.45585  1.0000
  H   H5540     1.0  0.67876  0.73730  0.45019  1.0000
  H   H5541     1.0  0.93290  0.95394  0.25371  1.0000
  H   H5542     1.0  0.89739  0.97381  0.28048  1.0000
  H   H5543     1.0  0.80010  0.91523  0.38925  1.0000
  S   S695      1.0  0.85495  0.98630  0.28762  1.0000
  H   H5544     1.0  0.78503  0.89028  0.48005  1.0000
  H   H5545     1.0  0.73278  0.98389  0.28381  1.0000
  H   H5546     1.0  0.50959  0.86942  0.35580  1.0000
  H   H5547     1.0  0.51878  0.65681  0.38947  1.0000
  H   H5548     1.0  0.92929  0.98056  0.25496  1.0000
  S   S696      1.0  0.70024  0.77972  0.47123  1.0000
  C   C3123     1.0  0.52745  0.66175  0.39352  1.0000
  C   C3124     1.0  0.50025  0.70378  0.36122  1.0000
  C   C3125     1.0  0.50030  0.80399  0.40163  1.0000
  C   C3126     1.0  0.50418  0.66314  0.42837  1.0000
  H   H5549     1.0  0.91428  0.93718  0.23929  1.0000
  H   H5550     1.0  0.62724  0.88563  0.46934  1.0000
  H   H5551     1.0  0.55233  0.66757  0.38244  1.0000
  C   C3127     1.0  0.69567  0.90799  0.46725  1.0000
  C   C3128     1.0  0.66075  0.88505  0.47933  1.0000
  H   H5552     1.0  0.84749  0.85562  0.46997  1.0000
  H   H5553     1.0  0.72722  0.86917  0.47928  1.0000
  H   H5554     1.0  0.76162  0.88939  0.47371  1.0000
  C   C3129     1.0  0.58116  0.81389  0.47077  1.0000
  H   H5555     1.0  0.83279  0.83297  0.47372  1.0000
  H   H5556     1.0  0.50945  0.82034  0.37945  1.0000
  C   C3130     1.0  0.73822  0.87132  0.48219  1.0000
  H   H5557     1.0  0.49921  0.83659  0.26667  1.0000
  H   H5558     1.0  0.57256  0.82316  0.47770  1.0000
  S   S697      1.0  0.52374  0.65827  0.31144  1.0000
  C   C3131     1.0  0.50257  0.67473  0.41136  1.0000
  H   H5559     1.0  0.72398  0.97019  0.34597  1.0000
  H   H5560     1.0  0.49829  0.67414  0.33419  1.0000
  C   C3132     1.0  0.68729  0.85669  0.47247  1.0000
  H   H5561     1.0  0.74881  0.97283  0.25804  1.0000
  C   C3133     1.0  0.84180  0.83094  0.48163  1.0000
  C   C3134     1.0  0.68309  0.93652  0.48019  1.0000
  H   H5562     1.0  0.73352  0.89628  0.46902  1.0000
  H   H5563     1.0  0.51536  0.81850  0.23816  1.0000
  H   H5564     1.0  0.52113  0.82951  0.25919  1.0000
  H   H5565     1.0  0.71885  0.94414  0.44462  1.0000
  C   C3135     1.0  0.58382  0.79675  0.48212  1.0000
  C   C3136     1.0  0.79822  0.90840  0.47925  1.0000
  H   H5566     1.0  0.67007  0.89252  0.47768  1.0000
  H   H5567     1.0  0.63865  0.90551  0.47711  1.0000
  C   C3137     1.0  0.73151  0.93075  0.46454  1.0000
  C   C3138     1.0  0.71837  0.98029  0.33666  1.0000
  H   H5568     1.0  0.67813  0.84891  0.47936  1.0000
  H   H5569     1.0  0.49961  0.73590  0.39816  1.0000
  H   H5570     1.0  0.51011  0.66822  0.43530  1.0000
  C   C3139     1.0  0.71679  0.79713  0.48217  1.0000
  C   C3140     1.0  0.73589  0.88973  0.48141  1.0000
  H   H5571     1.0  0.75668  0.76352  0.48084  1.0000
  H   H5572     1.0  0.72598  0.94091  0.47133  1.0000
  H   H5573     1.0  0.49548  0.66928  0.40588  1.0000
  H   H5574     1.0  0.86522  0.96105  0.23354  1.0000
  Fe  Fe347     1.0  0.92377  0.78492  0.55114  1.0000
  S   S698      1.0  0.92433  0.78654  0.57653  1.0000
  S   S699      1.0  0.94248  0.76774  0.53609  1.0000
  Fe  Fe348     1.0  0.89101  0.81019  0.54987  1.0000
  S   S700      1.0  0.88912  0.81442  0.57499  1.0000
  S   S701      1.0  0.87015  0.82382  0.53648  1.0000
  Fe  Fe349     1.0  0.91641  0.81386  0.56733  1.0000
  S   S702      1.0  0.92731  0.83265  0.57239  1.0000
  Fe  Fe350     1.0  0.89707  0.78697  0.58198  1.0000
  S   S703      1.0  0.88416  0.77340  0.60591  1.0000
  S   S704      1.0  0.91773  0.81237  0.54128  1.0000
  S   S705      1.0  0.89714  0.78264  0.55749  1.0000
  Fe  Fe351     1.0  0.96163  0.81805  0.65030  1.0000
  S   S706      1.0  0.96479  0.80868  0.67666  1.0000
  S   S707      1.0  0.93715  0.83124  0.64320  1.0000
  C   C3141     1.0  0.98419  0.76605  0.60231  1.0000
  S   S708      1.0  0.98406  0.82957  0.64202  1.0000
  H   H5575     1.0  0.98383  0.65888  0.70662  1.0000
  H   H5576     1.0  0.92208  0.67384  0.58907  1.0000
  Fe  Fe352     1.0  0.95810  0.66949  0.65243  1.0000
  H   H5577     1.0  0.88238  0.69391  0.64452  1.0000
  Fe  Fe353     1.0  0.93002  0.68933  0.63581  1.0000
  S   S709      1.0  0.91222  0.69125  0.65995  1.0000
  S   S710      1.0  0.92340  0.69950  0.61095  1.0000
  Fe  Fe354     1.0  0.93326  0.69668  0.66726  1.0000
  S   S711      1.0  0.92815  0.71887  0.67896  1.0000
  H   H5578     1.0  0.66116  0.86443  0.66234  1.0000
  S   S712      1.0  0.95021  0.69663  0.64236  1.0000
  H   H5579     1.0  0.65953  0.97153  0.61992  1.0000
  Fe  Fe355     1.0  0.66339  0.94768  0.65352  1.0000
  S   S713      1.0  0.63735  0.96205  0.65399  1.0000
  S   S714      1.0  0.67829  0.93725  0.63111  1.0000
  Fe  Fe356     1.0  0.66321  0.95376  0.68750  1.0000
  H   H5580     1.0  0.97791  0.80771  0.70608  1.0000
  S   S715      1.0  0.67941  0.95030  0.70570  1.0000
  Fe  Fe357     1.0  0.63245  0.94873  0.68037  1.0000
  S   S716      1.0  0.60925  0.93888  0.69002  1.0000
  C   C3142     1.0  0.71623  0.76893  0.49678  1.0000
  N   N173      1.0  0.67259  0.88458  0.64712  1.0000
  S   S717      1.0  0.65812  0.93289  0.67950  1.0000
  S   S718      1.0  0.67131  0.96683  0.66121  1.0000
  Fe  Fe358     1.0  0.67475  0.90400  0.53193  1.0000
  S   S719      1.0  0.67503  0.87764  0.53259  1.0000
  S   S720      1.0  0.68797  0.92109  0.51101  1.0000
  Fe  Fe359     1.0  0.65406  0.90364  0.56689  1.0000
  S   S721      1.0  0.65237  0.87721  0.57059  1.0000
  S   S722      1.0  0.64070  0.91791  0.58711  1.0000
  Fe  Fe360     1.0  0.67923  0.87314  0.55822  1.0000
  S   S723      1.0  0.69748  0.85076  0.56750  1.0000
  Fe  Fe361     1.0  0.64814  0.88381  0.54477  1.0000
  S   S724      1.0  0.62708  0.87561  0.54027  1.0000
  S   S725      1.0  0.68143  0.89896  0.55658  1.0000
  S   S726      1.0  0.64733  0.91082  0.54202  1.0000
  Fe  Fe362     1.0  0.98862  0.81820  0.66774  1.0000
  S   S727      1.0  0.62355  0.81884  0.50785  1.0000
  C   C3143     1.0  0.94339  0.77615  0.71477  1.0000
  Fe  Fe363     1.0  0.80192  0.79823  0.51225  1.0000
  S   S728      1.0  0.80199  0.82360  0.49655  1.0000
  S   S729      1.0  0.82455  0.78390  0.52273  1.0000
  Fe  Fe364     1.0  0.76764  0.79837  0.50699  1.0000
  H   H5581     1.0  0.58273  0.76472  0.52868  1.0000
  S   S730      1.0  0.74763  0.78338  0.51481  1.0000
  H   H5582     1.0  0.71920  0.84419  0.49684  1.0000
  Fe  Fe365     1.0  0.77543  0.82974  0.50934  1.0000
  S   S731      1.0  0.76531  0.85434  0.51631  1.0000
  C   C3144     1.0  0.98969  0.85975  0.68653  1.0000
  S   S732      1.0  0.77590  0.80497  0.52668  1.0000
  S   S733      1.0  0.93966  0.66217  0.64330  1.0000
  H   H5583     1.0  0.99143  0.91729  0.68250  1.0000
  H   H5584     1.0  0.60622  0.77151  0.52990  1.0000
  C   C3145     1.0  0.98959  0.87354  0.69259  1.0000
  S   S734      1.0  0.76536  0.82369  0.49072  1.0000
  C   C3146     1.0  0.97852  0.73567  0.63555  1.0000
  C   C3147     1.0  0.67459  0.79844  0.51154  1.0000
  C   C3148     1.0  0.68612  0.98354  0.61848  1.0000
  H   H5585     1.0  0.98038  0.86038  0.67991  1.0000
  C   C3149     1.0  0.71654  0.85189  0.55374  1.0000
  C   C3150     1.0  0.71823  0.86615  0.54144  1.0000
  C   C3151     1.0  0.73338  0.86704  0.53025  1.0000
  C   C3152     1.0  0.74676  0.85350  0.53105  1.0000
  C   C3153     1.0  0.74509  0.83922  0.54333  1.0000
  C   C3154     1.0  0.73001  0.83846  0.55477  1.0000
  H   H5586     1.0  0.70790  0.87656  0.54048  1.0000
  H   H5587     1.0  0.73455  0.87808  0.52079  1.0000
  H   H5588     1.0  0.75550  0.82890  0.54429  1.0000
  H   H5589     1.0  0.72879  0.82750  0.56437  1.0000
  C   C3155     1.0  0.62776  0.85920  0.53125  1.0000
  C   C3156     1.0  0.64122  0.85333  0.51926  1.0000
  C   C3157     1.0  0.64011  0.84115  0.51155  1.0000
  C   C3158     1.0  0.62583  0.83446  0.51633  1.0000
  C   C3159     1.0  0.61272  0.84011  0.52857  1.0000
  C   C3160     1.0  0.61357  0.85254  0.53577  1.0000
  H   H5590     1.0  0.65133  0.96287  0.73153  1.0000
  H   H5591     1.0  0.70322  0.96278  0.71324  1.0000
  H   H5592     1.0  0.60165  0.83507  0.53233  1.0000
  H   H5593     1.0  0.60310  0.85706  0.54492  1.0000
  H   H5594     1.0  0.61118  0.79804  0.54179  1.0000
  C   C3161     1.0  0.65936  0.89718  0.65549  1.0000
  H   H5595     1.0  0.95268  0.81336  0.73056  1.0000
  C   C3162     1.0  0.66771  0.93233  0.61868  1.0000
  C   C3163     1.0  0.67682  0.92589  0.60477  1.0000
  C   C3164     1.0  0.66874  0.92128  0.59502  1.0000
  C   C3165     1.0  0.65147  0.92324  0.59905  1.0000
  C   C3166     1.0  0.64238  0.92975  0.61292  1.0000
  C   C3167     1.0  0.65045  0.93425  0.62270  1.0000
  H   H5596     1.0  0.69019  0.92432  0.60158  1.0000
  H   H5597     1.0  0.67587  0.91632  0.58434  1.0000
  H   H5598     1.0  0.62901  0.93123  0.61616  1.0000
  H   H5599     1.0  0.64330  0.93893  0.63350  1.0000
  H   H5600     1.0  0.89611  0.68370  0.56761  1.0000
  H   H5601     1.0  0.82066  0.85185  0.50198  1.0000
  N   N174      1.0  0.98396  0.80724  0.56875  1.0000
  H   H5602     1.0  0.72093  0.88872  0.64589  1.0000
  H   H5603     1.0  0.71220  0.75753  0.49864  1.0000
  C   C3168     1.0  0.65852  0.96018  0.56559  1.0000
  C   C3169     1.0  0.60871  0.92847  0.71054  1.0000
  C   C3170     1.0  0.62229  0.92625  0.71755  1.0000
  C   C3171     1.0  0.67331  0.86811  0.65914  1.0000
  H   H5604     1.0  0.63310  0.93104  0.71039  1.0000
  H   H5605     1.0  0.57150  0.79340  0.48681  1.0000
  H   H5606     1.0  0.63877  0.88378  0.66433  1.0000
  H   H5607     1.0  0.97337  0.66363  0.68988  1.0000
  C   C3172     1.0  0.71119  0.78251  0.48465  1.0000
  C   C3173     1.0  0.95380  0.72289  0.69019  1.0000
  C   C3174     1.0  0.94374  0.72905  0.67857  1.0000
  C   C3175     1.0  0.94429  0.74475  0.66837  1.0000
  H   H5608     1.0  0.65220  0.85844  0.51571  1.0000
  H   H5609     1.0  0.63786  0.97855  0.57421  1.0000
  H   H5610     1.0  0.95302  0.71108  0.69857  1.0000
  H   H5611     1.0  0.93633  0.74965  0.65963  1.0000
  H   H5612     1.0  0.64939  0.89216  0.51033  1.0000
  C   C3176     1.0  0.85752  0.81253  0.53290  1.0000
  C   C3177     1.0  0.84147  0.82050  0.53049  1.0000
  C   C3178     1.0  0.83125  0.81186  0.52735  1.0000
  C   C3179     1.0  0.83709  0.79522  0.52639  1.0000
  C   C3180     1.0  0.85321  0.78730  0.52860  1.0000
  C   C3181     1.0  0.86340  0.79593  0.53180  1.0000
  H   H5613     1.0  0.83688  0.83338  0.53120  1.0000
  H   H5614     1.0  0.81880  0.81806  0.52580  1.0000
  H   H5615     1.0  0.85785  0.77447  0.52775  1.0000
  H   H5616     1.0  0.87590  0.78981  0.53316  1.0000
  C   C3182     1.0  0.92917  0.83133  0.59262  1.0000
  C   C3183     1.0  0.92361  0.84559  0.59914  1.0000
  C   C3184     1.0  0.92604  0.84531  0.61467  1.0000
  C   C3185     1.0  0.93493  0.83107  0.62344  1.0000
  C   C3186     1.0  0.94091  0.81684  0.61675  1.0000
  C   C3187     1.0  0.93754  0.81683  0.60161  1.0000
  H   H5617     1.0  0.91728  0.85689  0.59220  1.0000
  H   H5618     1.0  0.92134  0.85633  0.61974  1.0000
  H   H5619     1.0  0.94767  0.80572  0.62347  1.0000
  H   H5620     1.0  0.94176  0.80578  0.59662  1.0000
  C   C3188     1.0  0.89385  0.75251  0.60767  1.0000
  C   C3189     1.0  0.89566  0.74249  0.62308  1.0000
  C   C3190     1.0  0.90487  0.72620  0.62415  1.0000
  C   C3191     1.0  0.91144  0.71965  0.60996  1.0000
  C   C3192     1.0  0.90879  0.72944  0.59470  1.0000
  C   C3193     1.0  0.90047  0.74599  0.59350  1.0000
  H   H5621     1.0  0.89056  0.74743  0.63412  1.0000
  H   H5622     1.0  0.90694  0.71886  0.63595  1.0000
  H   H5623     1.0  0.91348  0.72439  0.58378  1.0000
  H   H5624     1.0  0.89919  0.75366  0.58159  1.0000
  C   C3194     1.0  0.92514  0.79379  0.67215  1.0000
  H   H5625     1.0  0.66316  0.80074  0.50682  1.0000
  H   H5626     1.0  0.73975  0.94250  0.49035  1.0000
  C   C3195     1.0  0.98122  0.72015  0.64902  1.0000
  C   C3196     1.0  0.99373  0.92136  0.66886  1.0000
  C   C3197     1.0  0.96971  0.76227  0.54983  1.0000
  C   C3198     1.0  0.96368  0.76538  0.53544  1.0000
  C   C3199     1.0  0.97489  0.76512  0.52027  1.0000
  H   H5627     1.0  0.90634  0.79371  0.49776  1.0000
  H   H5628     1.0  0.65259  0.91129  0.49593  1.0000
  H   H5629     1.0  0.96110  0.76225  0.56162  1.0000
  H   H5630     1.0  0.97033  0.76740  0.50914  1.0000
  H   H5631     1.0  0.58122  0.80527  0.50382  1.0000
  H   H5632     1.0  0.57623  0.95357  0.69820  1.0000
  C   C3200     1.0  0.56518  0.96287  0.72615  1.0000
  C   C3201     1.0  0.73680  0.91651  0.49787  1.0000
  C   C3202     1.0  0.59157  0.79592  0.53123  1.0000
  H   H5633     1.0  0.88193  0.65719  0.64946  1.0000
  H   H5634     1.0  0.58201  0.95193  0.66864  1.0000
  C   C3203     1.0  0.59849  0.79545  0.54600  1.0000
  H   H5635     1.0  0.98063  0.73223  0.62357  1.0000
  H   H5636     1.0  0.92268  0.66448  0.61576  1.0000
  H   H5637     1.0  0.72029  0.95153  0.51534  1.0000
  H   H5638     1.0  0.98557  0.93371  0.66577  1.0000
  H   H5639     1.0  0.55053  0.76750  0.51461  1.0000
  C   C3204     1.0  0.71963  0.94040  0.51156  1.0000
  H   H5640     1.0  0.94860  0.79879  0.71552  1.0000
  H   H5641     1.0  0.73737  0.90695  0.50952  1.0000
  C   C3205     1.0  0.56065  0.75625  0.51546  1.0000
  C   C3206     1.0  0.58127  0.96870  0.72478  1.0000
  H   H5642     1.0  0.62741  0.75645  0.51393  1.0000
  H   H5643     1.0  0.59042  0.80507  0.55276  1.0000
  N   N175      1.0  0.90016  0.65732  0.61607  1.0000
  C   C3207     1.0  0.89722  0.80555  0.49530  1.0000
  H   H5644     1.0  0.95870  0.66208  0.57851  1.0000
  H   H5645     1.0  0.97963  0.65984  0.56613  1.0000
  H   H5646     1.0  0.56023  0.75007  0.52863  1.0000
  C   C3208     1.0  0.87026  0.81907  0.48545  1.0000
  C   C3209     1.0  0.72686  0.76975  0.50622  1.0000
  H   H5647     1.0  0.60714  0.97439  0.63650  1.0000
  C   C3210     1.0  0.97915  0.80457  0.71916  1.0000
  H   H5648     1.0  0.57904  0.98237  0.72248  1.0000
  H   H5649     1.0  0.97478  0.78208  0.70462  1.0000
  H   H5650     1.0  0.85116  0.84786  0.49058  1.0000
  H   H5651     1.0  0.98015  0.88469  0.69051  1.0000
  H   H5652     1.0  0.97973  0.77357  0.57809  1.0000
  C   C3211     1.0  0.98005  0.66870  0.69613  1.0000
  H   H5653     1.0  0.57930  0.97418  0.69377  1.0000
  S   S735      1.0  0.98438  0.65544  0.64706  1.0000
  H   H5654     1.0  0.96231  0.84953  0.58967  1.0000
  H   H5655     1.0  0.71022  0.94412  0.50381  1.0000
  H   H5656     1.0  0.71563  0.93119  0.52281  1.0000
  C   C3212     1.0  0.67731  0.96203  0.72062  1.0000
  C   C3213     1.0  0.97076  0.81703  0.54311  1.0000
  H   H5657     1.0  0.56987  0.78211  0.51867  1.0000
  H   H5658     1.0  0.99035  0.91251  0.66366  1.0000
  H   H5659     1.0  0.73953  0.86400  0.49471  1.0000
  H   H5660     1.0  0.97964  0.85561  0.57372  1.0000
  C   C3214     1.0  0.90896  0.67675  0.58794  1.0000
  H   H5661     1.0  0.68752  0.97034  0.62497  1.0000
  C   C3215     1.0  0.57751  0.76075  0.50727  1.0000
  H   H5662     1.0  0.75461  0.88522  0.49553  1.0000
  H   H5663     1.0  0.94790  0.77790  0.70119  1.0000
  C   C3216     1.0  0.59102  0.79683  0.49675  1.0000
  H   H5664     1.0  0.69635  0.82742  0.66293  1.0000
  H   H5665     1.0  0.66501  0.96350  0.59448  1.0000
  H   H5666     1.0  0.97560  0.80029  0.52650  1.0000
  H   H5667     1.0  0.54876  0.94912  0.70825  1.0000
  H   H5668     1.0  0.88693  0.66680  0.59623  1.0000
  C   C3217     1.0  0.62966  0.74155  0.49685  1.0000
  H   H5669     1.0  0.63187  0.90845  0.50612  1.0000
  H   H5670     1.0  0.58827  0.97136  0.66453  1.0000
  H   H5671     1.0  0.79934  0.90398  0.49236  1.0000
  Fe  Fe366     1.0  0.64472  0.98002  0.66367  1.0000
  H   H5672     1.0  0.76736  0.90490  0.50099  1.0000
  H   H5673     1.0  0.57891  0.79337  0.53594  1.0000
  H   H5674     1.0  0.63945  0.74734  0.48761  1.0000
  C   C3218     1.0  0.58127  0.77236  0.51624  1.0000
  H   H5675     1.0  0.63461  0.88665  0.49167  1.0000
  H   H5676     1.0  0.63440  0.96887  0.61631  1.0000
  H   H5677     1.0  0.97987  0.68672  0.57110  1.0000
  C   C3219     1.0  0.65866  0.98423  0.61199  1.0000
  H   H5678     1.0  0.69702  0.89513  0.49236  1.0000
  S   S736      1.0  0.97442  0.79419  0.64248  1.0000
  H   H5679     1.0  0.66951  0.86458  0.60897  1.0000
  H   H5680     1.0  0.67797  0.78505  0.51710  1.0000
  H   H5681     1.0  0.62438  0.98153  0.60052  1.0000
  C   C3220     1.0  0.64447  0.90214  0.50054  1.0000
  C   C3221     1.0  0.97642  0.82437  0.57217  1.0000
  H   H5682     1.0  0.56864  0.94913  0.72822  1.0000
  H   H5683     1.0  0.97605  0.96526  0.72398  1.0000
  C   C3222     1.0  0.89993  0.66251  0.59794  1.0000
  H   H5684     1.0  0.84945  0.79817  0.49170  1.0000
  N   N176      1.0  0.98058  0.78616  0.72598  1.0000
  N   N177      1.0  0.96607  0.71109  0.56180  1.0000
  C   C3223     1.0  0.97726  0.71469  0.54496  1.0000
  C   C3224     1.0  0.94829  0.72002  0.56120  1.0000
  C   C3225     1.0  0.97173  0.71778  0.57336  1.0000
  C   C3226     1.0  0.96725  0.69281  0.56868  1.0000
  C   C3227     1.0  0.96291  0.68315  0.55825  1.0000
  C   C3228     1.0  0.53387  0.95425  0.73115  1.0000
  C   C3229     1.0  0.96065  0.71721  0.59101  1.0000
  C   C3230     1.0  0.94249  0.72260  0.54492  1.0000
  C   C3231     1.0  0.92383  0.72970  0.54699  1.0000
  H   H5685     1.0  0.95437  0.80457  0.53777  1.0000
  H   H5686     1.0  0.59066  0.80871  0.52366  1.0000
  C   C3232     1.0  0.96634  0.72649  0.60053  1.0000
  H   H5687     1.0  0.97637  0.72831  0.54066  1.0000
  H   H5688     1.0  0.97321  0.71091  0.53561  1.0000
  H   H5689     1.0  0.93963  0.71358  0.57143  1.0000
  H   H5690     1.0  0.94597  0.73281  0.56330  1.0000
  H   H5691     1.0  0.97289  0.73079  0.56787  1.0000
  H   H5692     1.0  0.87600  0.68009  0.66375  1.0000
  H   H5693     1.0  0.50950  0.95942  0.72533  1.0000
  H   H5694     1.0  0.95870  0.69064  0.58098  1.0000
  H   H5695     1.0  0.98218  0.82171  0.53646  1.0000
  H   H5696     1.0  0.94951  0.68711  0.55807  1.0000
  C   C3233     1.0  0.97350  0.80383  0.55899  1.0000
  H   H5697     1.0  0.73083  0.75901  0.51537  1.0000
  H   H5698     1.0  0.96141  0.70425  0.59811  1.0000
  H   H5699     1.0  0.94744  0.72298  0.59081  1.0000
  H   H5700     1.0  0.94884  0.73160  0.53507  1.0000
  H   H5701     1.0  0.94528  0.71098  0.54054  1.0000
  H   H5702     1.0  0.92025  0.73241  0.53492  1.0000
  H   H5703     1.0  0.91676  0.72072  0.55588  1.0000
  H   H5704     1.0  0.92045  0.74144  0.55142  1.0000
  C   C3234     1.0  0.89032  0.67148  0.62425  1.0000
  H   H5705     1.0  0.87792  0.67619  0.62101  1.0000
  Fe  Fe367     1.0  0.92323  0.66430  0.66800  1.0000
  H   H5706     1.0  0.97086  0.71380  0.65132  1.0000
  H   H5707     1.0  0.97942  0.72093  0.60155  1.0000
  H   H5708     1.0  0.96525  0.73975  0.59428  1.0000
  H   H5709     1.0  0.95842  0.72568  0.61316  1.0000
  S   S737      1.0  0.63704  0.96825  0.69032  1.0000
  H   H5710     1.0  0.65876  0.87592  0.63464  1.0000
  N   N178      1.0  0.84178  0.77381  0.58360  1.0000
  C   C3235     1.0  0.82945  0.77918  0.57255  1.0000
  C   C3236     1.0  0.85874  0.76794  0.57355  1.0000
  C   C3237     1.0  0.83658  0.76017  0.59777  1.0000
  C   C3238     1.0  0.84240  0.78795  0.59052  1.0000
  C   C3239     1.0  0.84612  0.80380  0.57769  1.0000
  C   C3240     1.0  0.81173  0.78807  0.57993  1.0000
  C   C3241     1.0  0.84924  0.75131  0.60903  1.0000
  C   C3242     1.0  0.86084  0.75243  0.56658  1.0000
  C   C3243     1.0  0.84472  0.81772  0.58621  1.0000
  C   C3244     1.0  0.80055  0.79284  0.56748  1.0000
  C   C3245     1.0  0.84278  0.73759  0.62271  1.0000
  H   H5711     1.0  0.82794  0.76835  0.56880  1.0000
  H   H5712     1.0  0.83417  0.78741  0.56080  1.0000
  H   H5713     1.0  0.86197  0.77784  0.56274  1.0000
  H   H5714     1.0  0.86849  0.76563  0.58071  1.0000
  H   H5715     1.0  0.83359  0.75061  0.59319  1.0000
  H   H5716     1.0  0.82483  0.76511  0.60596  1.0000
  H   H5717     1.0  0.83067  0.79140  0.59951  1.0000
  H   H5718     1.0  0.85222  0.78408  0.59779  1.0000
  H   H5719     1.0  0.83743  0.80846  0.56918  1.0000
  H   H5720     1.0  0.85896  0.80132  0.57025  1.0000
  H   H5721     1.0  0.80595  0.77990  0.59112  1.0000
  H   H5722     1.0  0.81190  0.79962  0.58324  1.0000
  H   H5723     1.0  0.85157  0.76012  0.61504  1.0000
  H   H5724     1.0  0.86129  0.74549  0.60198  1.0000
  H   H5725     1.0  0.85804  0.74169  0.57657  1.0000
  H   H5726     1.0  0.85251  0.75498  0.55791  1.0000
  H   H5727     1.0  0.84823  0.82861  0.57678  1.0000
  H   H5728     1.0  0.83177  0.82148  0.59300  1.0000
  H   H5729     1.0  0.85320  0.81373  0.59496  1.0000
  H   H5730     1.0  0.79973  0.78173  0.56373  1.0000
  H   H5731     1.0  0.78785  0.79893  0.57306  1.0000
  H   H5732     1.0  0.80543  0.80165  0.55630  1.0000
  H   H5733     1.0  0.83098  0.74275  0.63066  1.0000
  H   H5734     1.0  0.84073  0.72807  0.61738  1.0000
  H   H5735     1.0  0.85208  0.73153  0.63053  1.0000
  N   N179      1.0  0.68561  0.81613  0.54357  1.0000
  C   C3246     1.0  0.68547  0.80377  0.53403  1.0000
  C   C3247     1.0  0.69728  0.80810  0.55524  1.0000
  C   C3248     1.0  0.66829  0.82030  0.55391  1.0000
  C   C3249     1.0  0.69023  0.83191  0.53255  1.0000
  C   C3250     1.0  0.70294  0.83035  0.51602  1.0000
  C   C3251     1.0  0.67154  0.80900  0.52415  1.0000
  C   C3252     1.0  0.66577  0.83154  0.56612  1.0000
  C   C3253     1.0  0.71573  0.80201  0.54735  1.0000
  C   C3254     1.0  0.72559  0.79192  0.56048  1.0000
  C   C3255     1.0  0.71055  0.84558  0.50880  1.0000
  C   C3256     1.0  0.64743  0.83606  0.57441  1.0000
  H   H5736     1.0  0.68397  0.79171  0.54260  1.0000
  H   H5737     1.0  0.69747  0.80078  0.52532  1.0000
  H   H5738     1.0  0.69753  0.81691  0.56251  1.0000
  H   H5739     1.0  0.69276  0.79744  0.56435  1.0000
  H   H5740     1.0  0.66407  0.80874  0.56117  1.0000
  H   H5741     1.0  0.65928  0.82693  0.54585  1.0000
  H   H5742     1.0  0.67904  0.84101  0.52909  1.0000
  H   H5743     1.0  0.69503  0.83818  0.53949  1.0000
  H   H5744     1.0  0.69668  0.82901  0.50687  1.0000
  H   H5745     1.0  0.71332  0.81951  0.51732  1.0000
  H   H5746     1.0  0.65943  0.80757  0.53266  1.0000
  H   H5747     1.0  0.67052  0.82209  0.51755  1.0000
  H   H5748     1.0  0.66997  0.84319  0.55956  1.0000
  H   H5749     1.0  0.67262  0.82519  0.57612  1.0000
  H   H5750     1.0  0.71717  0.79398  0.53873  1.0000
  H   H5751     1.0  0.72151  0.81277  0.54076  1.0000
  H   H5752     1.0  0.72459  0.79926  0.56966  1.0000
  H   H5753     1.0  0.72102  0.78041  0.56690  1.0000
  H   H5754     1.0  0.73889  0.78843  0.55447  1.0000
  H   H5755     1.0  0.65024  0.83686  0.50203  1.0000
  H   H5756     1.0  0.60542  0.76606  0.48854  1.0000
  H   H5757     1.0  0.70079  0.85698  0.50681  1.0000
  H   H5758     1.0  0.64601  0.84318  0.58389  1.0000
  H   H5759     1.0  0.64006  0.84383  0.56516  1.0000
  H   H5760     1.0  0.64243  0.82475  0.58059  1.0000
  C   C3257     1.0  0.95172  0.78560  0.72175  1.0000
  C   C3258     1.0  0.64104  0.89617  0.65754  1.0000
  C   C3259     1.0  0.91315  0.78744  0.66634  1.0000
  C   C3260     1.0  0.67542  0.87544  0.60395  1.0000
  N   N180      1.0  0.89912  0.79233  0.64182  1.0000
  C   C3261     1.0  0.90791  0.77560  0.63797  1.0000
  C   C3262     1.0  0.89668  0.80440  0.62585  1.0000
  C   C3263     1.0  0.90913  0.79856  0.64986  1.0000
  C   C3264     1.0  0.92636  0.77385  0.62872  1.0000
  C   C3265     1.0  0.88686  0.82216  0.62739  1.0000
  C   C3266     1.0  0.93294  0.75727  0.62336  1.0000
  C   C3267     1.0  0.88237  0.83219  0.61104  1.0000
  H   H5761     1.0  0.90138  0.77228  0.63024  1.0000
  H   H5762     1.0  0.89074  0.79943  0.61877  1.0000
  H   H5763     1.0  0.90882  0.80595  0.61758  1.0000
  H   H5764     1.0  0.92092  0.80071  0.64123  1.0000
  H   H5765     1.0  0.92799  0.78368  0.61744  1.0000
  H   H5766     1.0  0.93422  0.77452  0.63677  1.0000
  H   H5767     1.0  0.89453  0.82878  0.63076  1.0000
  H   H5768     1.0  0.87513  0.82213  0.63680  1.0000
  H   H5769     1.0  0.92791  0.78552  0.68386  1.0000
  H   H5770     1.0  0.94634  0.75591  0.61759  1.0000
  H   H5771     1.0  0.93131  0.74677  0.63410  1.0000
  H   H5772     1.0  0.92634  0.75667  0.61414  1.0000
  H   H5773     1.0  0.89367  0.83248  0.60100  1.0000
  H   H5774     1.0  0.87366  0.82677  0.60769  1.0000
  H   H5775     1.0  0.87628  0.84512  0.61217  1.0000
  C   C3268     1.0  0.60303  0.78326  0.52089  1.0000
  Fe  Fe368     1.0  0.97936  0.78540  0.66796  1.0000
  H   H5776     1.0  0.63762  0.89891  0.64539  1.0000
  H   H5777     1.0  0.86425  0.68537  0.64786  1.0000
  H   H5778     1.0  0.97971  0.82171  0.59737  1.0000
  C   C3269     1.0  0.73311  0.78397  0.50334  1.0000
  H   H5779     1.0  0.90001  0.66526  0.64686  1.0000
  C   C3270     1.0  0.68879  0.89023  0.64274  1.0000
  C   C3271     1.0  0.69445  0.89320  0.65716  1.0000
  C   C3272     1.0  0.71111  0.89850  0.65111  1.0000
  H   H5780     1.0  0.68793  0.90201  0.63331  1.0000
  H   H5781     1.0  0.69915  0.88144  0.63674  1.0000
  H   H5782     1.0  0.66053  0.90993  0.64867  1.0000
  H   H5783     1.0  0.66110  0.89627  0.66808  1.0000
  H   H5784     1.0  0.68543  0.90327  0.66265  1.0000
  H   H5785     1.0  0.69593  0.88179  0.66693  1.0000
  H   H5786     1.0  0.55849  0.74763  0.50907  1.0000
  H   H5787     1.0  0.71011  0.91017  0.64155  1.0000
  H   H5788     1.0  0.71479  0.90077  0.66159  1.0000
  H   H5789     1.0  0.66865  0.95030  0.57011  1.0000
  N   N181      1.0  0.59606  0.78026  0.50785  1.0000
  H   H5790     1.0  0.62194  0.73814  0.49031  1.0000
  C   C3273     1.0  0.96538  0.81003  0.53133  1.0000
  H   H5791     1.0  0.61613  0.90815  0.66830  1.0000
  H   H5792     1.0  0.98437  0.68721  0.62491  1.0000
  C   C3274     1.0  0.99200  0.76206  0.51936  1.0000
  C   C3275     1.0  0.96433  0.73234  0.69151  1.0000
  C   C3276     1.0  0.96627  0.66460  0.56577  1.0000
  H   H5793     1.0  0.71775  0.84679  0.51722  1.0000
  C   C3277     1.0  0.98299  0.79514  0.58521  1.0000
  H   H5794     1.0  0.98893  0.75283  0.60166  1.0000
  H   H5795     1.0  0.55343  0.96460  0.68110  1.0000
  H   H5796     1.0  0.83445  0.77957  0.48611  1.0000
  H   H5797     1.0  0.97341  0.76545  0.72206  1.0000
  H   H5798     1.0  0.90734  0.76565  0.64938  1.0000
  H   H5799     1.0  0.96083  0.82773  0.54642  1.0000
  C   C3278     1.0  0.59465  0.92244  0.72000  1.0000
  H   H5800     1.0  0.87708  0.80185  0.65891  1.0000
  H   H5801     1.0  0.90253  0.81087  0.65266  1.0000
  H   H5802     1.0  0.91888  0.77455  0.66511  1.0000
  H   H5803     1.0  0.58418  0.92405  0.71456  1.0000
  C   C3279     1.0  0.62918  0.90881  0.66717  1.0000
  H   H5804     1.0  0.97881  0.79173  0.55538  1.0000
  H   H5805     1.0  0.99073  0.76899  0.61030  1.0000
  C   C3280     1.0  0.88272  0.79066  0.65355  1.0000
  H   H5806     1.0  0.97182  0.72758  0.70073  1.0000
  H   H5807     1.0  0.69892  0.85591  0.64885  1.0000
  H   H5808     1.0  0.66133  0.89653  0.62602  1.0000
  H   H5809     1.0  0.90264  0.68841  0.59223  1.0000
  H   H5810     1.0  0.88468  0.78031  0.66435  1.0000
  H   H5811     1.0  0.72452  0.91722  0.49547  1.0000
  H   H5812     1.0  0.86601  0.79749  0.63608  1.0000
  C   C3281     1.0  0.57766  0.96560  0.66598  1.0000
  H   H5813     1.0  0.97151  0.67936  0.70107  1.0000
  H   H5814     1.0  0.68890  0.88904  0.61117  1.0000
  C   C3282     1.0  0.66784  0.88403  0.63159  1.0000
  H   H5815     1.0  0.83594  0.82503  0.49426  1.0000
  H   H5816     1.0  0.59132  0.96429  0.71472  1.0000
  C   C3283     1.0  0.87857  0.74735  0.55702  1.0000
  H   H5817     1.0  0.93698  0.79394  0.66283  1.0000
  H   H5818     1.0  0.89156  0.80964  0.50715  1.0000
  H   H5819     1.0  0.68577  0.87275  0.59338  1.0000
  H   H5820     1.0  0.67528  0.86908  0.67106  1.0000
  H   H5821     1.0  0.57334  0.96948  0.65420  1.0000
  N   N182      1.0  0.55677  0.96972  0.71162  1.0000
  H   H5822     1.0  0.88209  0.75770  0.54680  1.0000
  H   H5823     1.0  0.88741  0.74358  0.56535  1.0000
  C   C3284     1.0  0.86959  0.78717  0.64629  1.0000
  C   C3285     1.0  0.56349  0.97095  0.67994  1.0000
  C   C3286     1.0  0.68631  0.85326  0.65337  1.0000
  H   H5824     1.0  0.86372  0.82044  0.49824  1.0000
  C   C3287     1.0  0.85380  0.78509  0.65943  1.0000
  H   H5825     1.0  0.87952  0.73667  0.55163  1.0000
  H   H5826     1.0  0.90167  0.78736  0.67615  1.0000
  H   H5827     1.0  0.87441  0.77562  0.64155  1.0000
  C   C3288     1.0  0.54338  0.96052  0.71337  1.0000
  H   H5828     1.0  0.95542  0.76614  0.66143  1.0000
  H   H5829     1.0  0.63579  0.73010  0.50446  1.0000
  H   H5830     1.0  0.96179  0.83576  0.70639  1.0000
  C   C3289     1.0  0.68213  0.87885  0.61717  1.0000
  H   H5831     1.0  0.68265  0.84991  0.64348  1.0000
  H   H5832     1.0  0.61944  0.77666  0.49035  1.0000
  H   H5833     1.0  0.91962  0.80651  0.67429  1.0000
  H   H5834     1.0  0.97070  0.76816  0.60789  1.0000
  C   C3290     1.0  0.88393  0.80307  0.48793  1.0000
  H   H5835     1.0  0.91546  0.69032  0.56277  1.0000
  H   H5836     1.0  0.59892  0.78319  0.55461  1.0000
  H   H5837     1.0  0.85657  0.77447  0.66973  1.0000
  H   H5838     1.0  0.63069  0.92156  0.66072  1.0000
  C   C3291     1.0  0.88789  0.66788  0.64330  1.0000
  H   H5839     1.0  0.68463  0.80196  0.50100  1.0000
  C   C3292     1.0  0.95499  0.75415  0.66951  1.0000
  H   H5840     1.0  0.97030  0.79776  0.59298  1.0000
  C   C3293     1.0  0.96376  0.83437  0.71897  1.0000
  H   H5841     1.0  0.69132  0.86771  0.62124  1.0000
  H   H5842     1.0  0.63148  0.90631  0.67979  1.0000
  H   H5843     1.0  0.72501  0.89313  0.49117  1.0000
  H   H5844     1.0  0.96564  0.74288  0.63836  1.0000
  C   C3294     1.0  0.66245  0.96624  0.73204  1.0000
  C   C3295     1.0  0.63203  0.98178  0.60892  1.0000
  C   C3296     1.0  0.96500  0.74800  0.68118  1.0000
  H   H5845     1.0  0.96095  0.80273  0.56681  1.0000
  H   H5846     1.0  0.67496  0.83454  0.67237  1.0000
  H   H5847     1.0  0.61492  0.78749  0.51518  1.0000
  H   H5848     1.0  0.99080  0.80834  0.71863  1.0000
  N   N183      1.0  0.75079  0.91121  0.48408  1.0000
  H   H5849     1.0  0.61520  0.98665  0.71834  1.0000
  H   H5850     1.0  0.95321  0.84257  0.72560  1.0000
  H   H5851     1.0  0.66619  0.88635  0.59930  1.0000
  C   C3297     1.0  0.68725  0.83801  0.66749  1.0000
  C   C3298     1.0  0.97078  0.77923  0.71828  1.0000
  H   H5852     1.0  0.69137  0.84040  0.67764  1.0000
  H   H5853     1.0  0.97037  0.68497  0.54545  1.0000
  H   H5854     1.0  0.60181  0.80301  0.49175  1.0000
  C   C3299     1.0  0.67667  0.98699  0.60480  1.0000
  H   H5855     1.0  0.89652  0.68217  0.61949  1.0000
  H   H5856     1.0  0.97533  0.83844  0.71792  1.0000
  H   H5857     1.0  0.84820  0.79652  0.66436  1.0000
  H   H5858     1.0  0.97800  0.83397  0.56057  1.0000
  C   C3300     1.0  0.73657  0.93320  0.50178  1.0000
  H   H5859     1.0  0.73213  0.80905  0.48960  1.0000
  C   C3301     1.0  0.76684  0.91160  0.48802  1.0000
  C   C3302     1.0  0.82573  0.85826  0.48927  1.0000
  H   H5860     1.0  0.96278  0.82590  0.57679  1.0000
  C   C3303     1.0  0.87693  0.68278  0.65020  1.0000
  S   S738      1.0  0.97846  0.75941  0.68331  1.0000
  H   H5861     1.0  0.87831  0.79290  0.49664  1.0000
  H   H5862     1.0  0.84464  0.78264  0.65390  1.0000
  H   H5863     1.0  0.96212  0.82004  0.52076  1.0000
  C   C3304     1.0  0.98739  0.77656  0.58491  1.0000
  C   C3305     1.0  0.61897  0.75343  0.50791  1.0000
  S   S739      1.0  0.94253  0.66974  0.67801  1.0000
  H   H5864     1.0  0.52171  0.93878  0.72403  1.0000
  H   H5865     1.0  0.82671  0.87074  0.48977  1.0000
  H   H5866     1.0  0.65104  0.95442  0.56092  1.0000
  H   H5867     1.0  0.91568  0.66889  0.56452  1.0000
  S   S740      1.0  0.79388  0.78903  0.49414  1.0000
  C   C3306     1.0  0.65771  0.97497  0.58784  1.0000
  C   C3307     1.0  0.51836  0.94878  0.73100  1.0000
  H   H5868     1.0  0.74586  0.93122  0.50936  1.0000
  C   C3308     1.0  0.98697  0.75831  0.54899  1.0000
  H   H5869     1.0  0.98428  0.71080  0.57514  1.0000
  C   C3309     1.0  0.64741  0.96859  0.57948  1.0000
  H   H5870     1.0  0.66708  0.98084  0.57793  1.0000
  H   H5871     1.0  0.96431  0.94955  0.72816  1.0000
  H   H5872     1.0  0.64093  0.95932  0.58872  1.0000
  H   H5873     1.0  0.92974  0.78087  0.71740  1.0000
  H   H5874     1.0  0.90394  0.81495  0.48663  1.0000
  C   C3310     1.0  0.98328  0.82919  0.58476  1.0000
  H   H5875     1.0  0.66402  0.96935  0.55522  1.0000
  H   H5876     1.0  0.98721  0.74356  0.63468  1.0000
  C   C3311     1.0  0.56971  0.96679  0.69625  1.0000
  H   H5877     1.0  0.98180  0.69823  0.67566  1.0000
  H   H5878     1.0  0.68380  0.97869  0.59623  1.0000
  H   H5879     1.0  0.57749  0.76631  0.49411  1.0000
  H   H5880     1.0  0.66337  0.87420  0.48943  1.0000
  H   H5881     1.0  0.98092  0.85026  0.59515  1.0000
  C   C3312     1.0  0.60985  0.76953  0.49783  1.0000
  C   C3313     1.0  0.68761  0.92130  0.49067  1.0000
  H   H5882     1.0  0.98278  0.68415  0.66366  1.0000
  S   S741      1.0  0.65120  0.78434  0.48489  1.0000
  H   H5883     1.0  0.53415  0.96827  0.70590  1.0000
  H   H5884     1.0  0.98042  0.72414  0.66037  1.0000
  H   H5885     1.0  0.55886  0.98446  0.67604  1.0000
  H   H5886     1.0  0.96297  0.65787  0.55820  1.0000
  H   H5887     1.0  0.61006  0.74695  0.51767  1.0000
  H   H5888     1.0  0.99147  0.79671  0.59219  1.0000
  C   C3314     1.0  0.69165  0.96613  0.72176  1.0000
  H   H5889     1.0  0.94607  0.76271  0.72038  1.0000
  H   H5890     1.0  0.58702  0.74903  0.50778  1.0000
  C   C3315     1.0  0.97608  0.84729  0.58581  1.0000
  H   H5891     1.0  0.99171  0.75535  0.56008  1.0000
  C   C3316     1.0  0.99046  0.68829  0.66976  1.0000
  H   H5892     1.0  0.69498  0.98208  0.68460  1.0000
  C   C3317     1.0  0.69355  0.90693  0.48428  1.0000
  C   C3318     1.0  0.72770  0.79789  0.49158  1.0000
  N   N184      1.0  0.64833  0.98646  0.59949  1.0000
  C   C3319     1.0  0.90901  0.68007  0.56959  1.0000
  H   H5893     1.0  0.76748  0.92455  0.48727  1.0000
  C   C3320     1.0  0.99148  0.67781  0.61814  1.0000
  C   C3321     1.0  0.96489  0.81644  0.72850  1.0000
  C   C3322     1.0  0.60447  0.98721  0.62912  1.0000
  H   H5894     1.0  0.50818  0.69958  0.72868  1.0000
  C   C3323     1.0  0.99310  0.66110  0.62599  1.0000
  H   H5895     1.0  0.69295  0.98816  0.66341  1.0000
  C   C3324     1.0  0.64353  0.89498  0.48645  1.0000
  Fe  Fe369     1.0  0.64019  0.81125  0.48486  1.0000
  H   H5896     1.0  0.69872  0.98614  0.61310  1.0000
  H   H5897     1.0  0.67865  0.94768  0.48503  1.0000
  C   C3325     1.0  0.54983  0.98808  0.70966  1.0000
  H   H5898     1.0  0.59747  0.98753  0.61986  1.0000
  C   C3326     1.0  0.75154  0.89352  0.48389  1.0000
  H   H5899     1.0  0.77452  0.76939  0.48320  1.0000
  S   S742      1.0  0.67785  0.66262  0.92405  1.0000
  H   H5900     1.0  0.58335  0.70787  0.85887  1.0000
  H   H5901     1.0  0.60124  0.96952  0.84644  1.0000
  H   H5902     1.0  0.54565  0.72637  0.80015  1.0000
  S   S743      1.0  0.63185  0.68163  0.91925  1.0000
  C   C3327     1.0  0.52684  0.70495  0.81660  1.0000
  S   S744      1.0  0.70148  0.68848  0.93667  1.0000
  H   H5903     1.0  0.53749  0.68626  0.77276  1.0000
  S   S745      1.0  0.65575  0.68130  0.95337  1.0000
  Fe  Fe370     1.0  0.54868  0.93005  0.78475  1.0000
  S   S746      1.0  0.57326  0.93391  0.78573  1.0000
  S   S747      1.0  0.52827  0.94849  0.77375  1.0000
  Fe  Fe371     1.0  0.55444  0.89418  0.80350  1.0000
  S   S748      1.0  0.57933  0.89489  0.80666  1.0000
  S   S749      1.0  0.54371  0.87126  0.81503  1.0000
  Fe  Fe372     1.0  0.56779  0.92004  0.81198  1.0000
  S   S750      1.0  0.57170  0.92710  0.83370  1.0000
  Fe  Fe373     1.0  0.58294  0.90850  0.78028  1.0000
  S   S751      1.0  0.60766  0.90153  0.76392  1.0000
  S   S752      1.0  0.54231  0.91820  0.81155  1.0000
  S   S753      1.0  0.55893  0.90586  0.77661  1.0000
  C   C3328     1.0  0.85890  0.72656  0.95782  1.0000
  H   H5904     1.0  0.53377  0.75991  0.88580  1.0000
  S   S754      1.0  0.64059  0.94272  0.83111  1.0000
  H   H5905     1.0  0.56404  0.71065  0.79623  1.0000
  H   H5906     1.0  0.74068  0.91502  0.86797  1.0000
  H   H5907     1.0  0.54056  0.67188  0.83383  1.0000
  Fe  Fe374     1.0  0.55751  0.67883  0.86147  1.0000
  S   S755      1.0  0.56816  0.69578  0.83863  1.0000
  S   S756      1.0  0.55793  0.68235  0.88615  1.0000
  H   H5908     1.0  0.54200  0.94344  0.73759  1.0000
  H   H5909     1.0  0.55087  0.70139  0.77830  1.0000
  H   H5910     1.0  0.94619  0.78411  0.73512  1.0000
  H   H5911     1.0  0.99356  0.93178  0.77159  1.0000
  H   H5912     1.0  0.63305  0.82842  0.79647  1.0000
  S   S757      1.0  0.52932  0.82481  0.77658  1.0000
  H   H5913     1.0  0.75558  0.91030  0.84970  1.0000
  S   S758      1.0  0.52398  0.76628  0.84516  1.0000
  H   H5914     1.0  0.58322  0.90989  0.74393  1.0000
  S   S759      1.0  0.52924  0.77752  0.79696  1.0000
  H   H5915     1.0  0.68983  0.94631  0.83685  1.0000
  H   H5916     1.0  0.75041  0.70988  0.93024  1.0000
  C   C3329     1.0  0.55960  0.73014  0.77535  1.0000
  H   H5917     1.0  0.55853  0.68740  0.81195  1.0000
  H   H5918     1.0  0.86451  0.73324  0.94550  1.0000
  C   C3330     1.0  0.59537  0.66987  0.90582  1.0000
  H   H5919     1.0  0.65497  0.94327  0.87341  1.0000
  C   C3331     1.0  0.55620  0.71556  0.84014  1.0000
  C   C3332     1.0  0.55900  0.72932  0.82752  1.0000
  C   C3333     1.0  0.54905  0.74503  0.82891  1.0000
  C   C3334     1.0  0.53654  0.74692  0.84305  1.0000
  C   C3335     1.0  0.53392  0.73319  0.85565  1.0000
  C   C3336     1.0  0.54366  0.71757  0.85416  1.0000
  H   H5920     1.0  0.56872  0.72786  0.81666  1.0000
  H   H5921     1.0  0.55119  0.75570  0.81919  1.0000
  H   H5922     1.0  0.52419  0.73453  0.86649  1.0000
  H   H5923     1.0  0.54131  0.70714  0.86397  1.0000
  H   H5924     1.0  0.60393  0.70501  0.83497  1.0000
  H   H5925     1.0  0.56074  0.71925  0.88465  1.0000
  H   H5926     1.0  0.54908  0.73865  0.77011  1.0000
  Fe  Fe375     1.0  0.53173  0.67907  0.89318  1.0000
  H   H5927     1.0  0.58079  0.84604  0.78004  1.0000
  S   S760      1.0  0.81217  0.65871  0.96404  1.0000
  C   C3337     1.0  0.54049  0.85833  0.80389  1.0000
  C   C3338     1.0  0.54494  0.86105  0.78665  1.0000
  C   C3339     1.0  0.54171  0.85057  0.77836  1.0000
  C   C3340     1.0  0.53418  0.83722  0.78726  1.0000
  C   C3341     1.0  0.53024  0.83428  0.80449  1.0000
  C   C3342     1.0  0.53323  0.84487  0.81274  1.0000
  H   H5928     1.0  0.55060  0.87136  0.77969  1.0000
  H   H5929     1.0  0.54484  0.85290  0.76502  1.0000
  Fe  Fe376     1.0  0.51591  0.80414  0.79139  1.0000
  C   C3343     1.0  0.52951  0.67020  0.94134  1.0000
  C   C3344     1.0  0.59106  0.93140  0.83222  1.0000
  C   C3345     1.0  0.59568  0.93071  0.84681  1.0000
  C   C3346     1.0  0.61087  0.93424  0.84628  1.0000
  C   C3347     1.0  0.62131  0.93914  0.83113  1.0000
  C   C3348     1.0  0.61662  0.94018  0.81642  1.0000
  C   C3349     1.0  0.60159  0.93604  0.81697  1.0000
  H   H5930     1.0  0.58758  0.92719  0.85860  1.0000
  H   H5931     1.0  0.61449  0.93329  0.85765  1.0000
  H   H5932     1.0  0.62478  0.94373  0.80468  1.0000
  H   H5933     1.0  0.59811  0.93658  0.80564  1.0000
  H   H5934     1.0  0.56254  0.73406  0.86517  1.0000
  C   C3350     1.0  0.51633  0.65988  0.95121  1.0000
  Fe  Fe377     1.0  0.64543  0.96777  0.81753  1.0000
  S   S761      1.0  0.77164  0.68733  0.94995  1.0000
  C   C3351     1.0  0.62038  0.70954  0.86575  1.0000
  H   H5935     1.0  0.58982  0.72198  0.88520  1.0000
  H   H5936     1.0  0.64584  0.70745  0.88130  1.0000
  H   H5937     1.0  0.53986  0.69890  0.92331  1.0000
  H   H5938     1.0  0.50180  0.97690  0.77201  1.0000
  H   H5939     1.0  0.53242  0.71658  0.78255  1.0000
  H   H5940     1.0  0.67333  0.67504  0.87279  1.0000
  C   C3352     1.0  0.56681  0.72953  0.87698  1.0000
  C   C3353     1.0  0.53091  0.67901  0.78412  1.0000
  H   H5941     1.0  0.72332  0.71031  0.92524  1.0000
  C   C3354     1.0  0.60557  0.67858  0.90884  1.0000
  H   H5942     1.0  0.60305  0.69194  0.90539  1.0000
  C   C3355     1.0  0.75207  0.68636  0.94732  1.0000
  C   C3356     1.0  0.74415  0.67302  0.95516  1.0000
  C   C3357     1.0  0.72856  0.67319  0.95219  1.0000
  C   C3358     1.0  0.72091  0.68676  0.94142  1.0000
  C   C3359     1.0  0.72901  0.69984  0.93362  1.0000
  C   C3360     1.0  0.74442  0.69959  0.93645  1.0000
  H   H5943     1.0  0.56781  0.72300  0.76611  1.0000
  C   C3361     1.0  0.58808  0.85497  0.77999  1.0000
  C   C3362     1.0  0.61890  0.67014  0.91649  1.0000
  C   C3363     1.0  0.90351  0.71541  0.97923  1.0000
  C   C3364     1.0  0.51260  0.89934  0.78090  1.0000
  H   H5944     1.0  0.58954  0.94791  0.74397  1.0000
  H   H5945     1.0  0.52149  0.71806  0.81124  1.0000
  H   H5946     1.0  0.53300  0.66838  0.92843  1.0000
  Fe  Fe378     1.0  0.51378  0.77757  0.82243  1.0000
  H   H5947     1.0  0.85031  0.75047  0.97692  1.0000
  H   H5948     1.0  0.53165  0.90806  0.73901  1.0000
  C   C3365     1.0  0.50524  0.90431  0.81411  1.0000
  H   H5949     1.0  0.64510  0.72569  0.86471  1.0000
  S   S762      1.0  0.51137  0.75031  0.77886  1.0000
  H   H5950     1.0  0.75145  0.67605  0.91037  1.0000
  H   H5951     1.0  0.81167  0.65851  0.91220  1.0000
  H   H5952     1.0  0.52368  0.89039  0.78463  1.0000
  H   H5953     1.0  0.51379  0.91132  0.78254  1.0000
  H   H5954     1.0  0.86607  0.77082  0.96001  1.0000
  H   H5955     1.0  0.50469  0.87968  0.81453  1.0000
  H   H5956     1.0  0.76471  0.66004  0.88916  1.0000
  H   H5957     1.0  0.55652  0.71950  0.91858  1.0000
  C   C3366     1.0  0.51697  0.67445  0.77944  1.0000
  H   H5958     1.0  0.71398  0.93449  0.86514  1.0000
  C   C3367     1.0  0.52807  0.96962  0.77111  1.0000
  H   H5959     1.0  0.61919  0.83552  0.77394  1.0000
  H   H5960     1.0  0.64088  0.79817  0.80050  1.0000
  H   H5961     1.0  0.96591  0.79569  0.77280  1.0000
  S   S763      1.0  0.50173  0.80439  0.81733  1.0000
  C   C3368     1.0  0.70800  0.96586  0.85486  1.0000
  H   H5962     1.0  0.51880  0.90161  0.80911  1.0000
  C   C3369     1.0  0.62197  0.91776  0.73392  1.0000
  C   C3370     1.0  0.61520  0.68476  0.86120  1.0000
  H   H5963     1.0  0.61779  0.70497  0.87940  1.0000
  H   H5964     1.0  0.61734  0.72320  0.86378  1.0000
  H   H5965     1.0  0.73807  0.68092  0.88621  1.0000
  H   H5966     1.0  0.69645  0.98164  0.81947  1.0000
  H   H5967     1.0  0.98990  0.79721  0.74866  1.0000
  H   H5968     1.0  0.95475  0.96841  0.73550  1.0000
  H   H5969     1.0  0.52231  0.66651  0.77022  1.0000
  C   C3371     1.0  0.54136  0.96236  0.81795  1.0000
  S   S764      1.0  0.63682  0.98295  0.79463  1.0000
  H   H5970     1.0  0.71441  0.97443  0.79347  1.0000
  H   H5971     1.0  0.62356  0.73081  0.81028  1.0000
  C   C3372     1.0  0.61007  0.73432  0.81554  1.0000
  C   C3373     1.0  0.97286  0.94494  0.80347  1.0000
  H   H5972     1.0  0.59072  0.73441  0.86476  1.0000
  H   H5973     1.0  0.73575  0.98377  0.86390  1.0000
  H   H5974     1.0  0.51742  0.68050  0.80865  1.0000
  H   H5975     1.0  0.50954  0.66753  0.79044  1.0000
  C   C3374     1.0  0.85452  0.71147  0.95520  1.0000
  H   H5976     1.0  0.55142  0.67609  0.96610  1.0000
  H   H5977     1.0  0.60022  0.96458  0.73872  1.0000
  H   H5978     1.0  0.90107  0.70368  0.97828  1.0000
  C   C3375     1.0  0.54570  0.66761  0.82210  1.0000
  H   H5979     1.0  0.89125  0.73968  0.95074  1.0000
  C   C3376     1.0  0.52660  0.75571  0.89844  1.0000
  C   C3377     1.0  0.53095  0.90594  0.75245  1.0000
  H   H5980     1.0  0.69568  0.69103  0.97405  1.0000
  H   H5981     1.0  0.64303  0.70889  0.84597  1.0000
  C   C3378     1.0  0.52370  0.68888  0.79803  1.0000
  H   H5982     1.0  0.53370  0.74360  0.90409  1.0000
  H   H5983     1.0  0.84809  0.70466  0.96704  1.0000
  H   H5984     1.0  0.77272  0.66092  0.92168  1.0000
  H   H5985     1.0  0.56293  0.73986  0.88357  1.0000
  H   H5986     1.0  0.75013  0.66260  0.96333  1.0000
  H   H5987     1.0  0.68028  0.68230  0.97082  1.0000
  C   C3379     1.0  0.87167  0.76183  0.95185  1.0000
  H   H5988     1.0  0.96371  0.98369  0.78948  1.0000
  C   C3380     1.0  0.58298  0.86985  0.75140  1.0000
  H   H5989     1.0  0.56125  0.97682  0.79388  1.0000
  H   H5990     1.0  0.68475  0.66164  0.88785  1.0000
  H   H5991     1.0  0.50831  0.88944  0.83840  1.0000
  H   H5992     1.0  0.58002  0.98061  0.85109  1.0000
  C   C3381     1.0  0.59160  0.70770  0.86697  1.0000
  H   H5993     1.0  0.97460  0.76846  0.74870  1.0000
  H   H5994     1.0  0.99336  0.96763  0.78676  1.0000
  H   H5995     1.0  0.60313  0.72843  0.81036  1.0000
  C   C3382     1.0  0.58793  0.96159  0.74059  1.0000
  H   H5996     1.0  0.52277  0.68332  0.94065  1.0000
  H   H5997     1.0  0.90956  0.72160  0.96686  1.0000
  C   C3383     1.0  0.98765  0.97165  0.77583  1.0000
  C   C3384     1.0  0.67673  0.97825  0.74559  1.0000
  H   H5998     1.0  0.56118  0.83857  0.83306  1.0000
  C   C3385     1.0  0.60425  0.67532  0.85706  1.0000
  H   H5999     1.0  0.61617  0.67951  0.87432  1.0000
  H   H6000     1.0  0.55788  0.67704  0.79707  1.0000
  H   H6001     1.0  0.53580  0.70562  0.82355  1.0000
  H   H6002     1.0  0.70213  0.96150  0.86797  1.0000
  H   H6003     1.0  0.63901  0.80743  0.77948  1.0000
  H   H6004     1.0  0.50327  0.74899  0.91044  1.0000
  H   H6005     1.0  0.73568  0.90473  0.85470  1.0000
  C   C3386     1.0  0.61167  0.71012  0.84002  1.0000
  H   H6006     1.0  0.58868  0.69795  0.87809  1.0000
  N   N185      1.0  0.53576  0.69563  0.80296  1.0000
  H   H6007     1.0  0.50929  0.86889  0.79010  1.0000
  H   H6008     1.0  0.56766  0.67634  0.94026  1.0000
  H   H6009     1.0  0.73302  0.97080  0.84256  1.0000
  C   C3387     1.0  0.54259  0.97522  0.76899  1.0000
  H   H6010     1.0  0.52991  0.96376  0.73865  1.0000
  H   H6011     1.0  0.55689  0.96704  0.83134  1.0000
  S   S765      1.0  0.51312  0.69694  0.90752  1.0000
  H   H6012     1.0  0.87277  0.78188  0.93021  1.0000
  N   N186      1.0  0.60965  0.70339  0.85836  1.0000
  C   C3388     1.0  0.55633  0.67759  0.93566  1.0000
  C   C3389     1.0  0.55314  0.71851  0.79128  1.0000
  C   C3390     1.0  0.53680  0.65827  0.98014  1.0000
  H   H6013     1.0  0.59709  0.83937  0.81828  1.0000
  C   C3391     1.0  0.97255  0.95100  0.74933  1.0000
  C   C3392     1.0  0.59617  0.86092  0.76156  1.0000
  C   C3393     1.0  0.56228  0.70615  0.92188  1.0000
  Fe  Fe379     1.0  0.68303  0.67180  0.94385  1.0000
  H   H6014     1.0  0.52519  0.76479  0.90604  1.0000
  H   H6015     1.0  0.51446  0.88946  0.75908  1.0000
  C   C3394     1.0  0.60651  0.72911  0.83436  1.0000
  S   S766      1.0  0.67160  0.97150  0.80909  1.0000
  H   H6016     1.0  0.98209  0.93305  0.80390  1.0000
  H   H6017     1.0  0.61332  0.73563  0.83892  1.0000
  N   N187      1.0  0.59986  0.84744  0.79163  1.0000
  C   C3395     1.0  0.64865  0.71196  0.86766  1.0000
  H   H6018     1.0  0.78637  0.65959  0.90236  1.0000
  C   C3396     1.0  0.54882  0.69641  0.93135  1.0000
  Fe  Fe380     1.0  0.65080  0.66943  0.93538  1.0000
  C   C3397     1.0  0.58569  0.72399  0.87349  1.0000
  H   H6019     1.0  0.96207  0.78844  0.74859  1.0000
  C   C3398     1.0  0.97595  0.96407  0.75677  1.0000
  H   H6020     1.0  0.88288  0.71434  0.96234  1.0000
  H   H6021     1.0  0.66256  0.66943  0.89388  1.0000
  H   H6022     1.0  0.53246  0.95890  0.82967  1.0000
  H   H6023     1.0  0.64389  0.69090  0.86273  1.0000
  H   H6024     1.0  0.65083  0.97713  0.75356  1.0000
  H   H6025     1.0  0.66225  0.70819  0.86308  1.0000
  H   H6026     1.0  0.51528  0.68563  0.83548  1.0000
  H   H6027     1.0  0.56680  0.73774  0.77802  1.0000
  H   H6028     1.0  0.50859  0.91093  0.83540  1.0000
  C   C3399     1.0  0.74529  0.66667  0.90928  1.0000
  H   H6029     1.0  0.58511  0.67646  0.90010  1.0000
  H   H6030     1.0  0.50860  0.68577  0.77404  1.0000
  H   H6031     1.0  0.84710  0.73444  0.96298  1.0000
  C   C3400     1.0  0.73217  0.67568  0.89905  1.0000
  H   H6032     1.0  0.52482  0.82389  0.81153  1.0000
  H   H6033     1.0  0.54153  0.89579  0.75563  1.0000
  N   N188      1.0  0.98260  0.95756  0.77242  1.0000
  H   H6034     1.0  0.50040  0.72217  0.83683  1.0000
  H   H6035     1.0  0.59294  0.73329  0.83875  1.0000
  C   C3401     1.0  0.63944  0.70451  0.85952  1.0000
  C   C3402     1.0  0.50259  0.90225  0.83276  1.0000
  H   H6036     1.0  0.49656  0.73263  0.86232  1.0000
  C   C3403     1.0  0.54270  0.70784  0.78811  1.0000
  N   N189      1.0  0.87516  0.73485  0.97485  1.0000
  H   H6037     1.0  0.61682  0.81880  0.81073  1.0000
  H   H6038     1.0  0.72460  0.66708  0.89889  1.0000
  C   C3404     1.0  0.51450  0.90120  0.76210  1.0000
  C   C3405     1.0  0.51306  0.98111  0.77041  1.0000
  Fe  Fe381     1.0  0.66245  0.98810  0.78663  1.0000
  C   C3406     1.0  0.71000  0.97828  0.81845  1.0000
  H   H6039     1.0  0.98391  0.94148  0.74638  1.0000
  H   H6040     1.0  0.96284  0.94470  0.75796  1.0000
  S   S767      1.0  0.53055  0.67792  0.86786  1.0000
  C   C3407     1.0  0.56967  0.82697  0.83008  1.0000
  H   H6041     1.0  0.62782  0.68118  0.85361  1.0000
  H   H6042     1.0  0.65590  0.95874  0.85450  1.0000
  H   H6043     1.0  0.55658  0.96561  0.73773  1.0000
  C   C3408     1.0  0.97367  0.98705  0.77872  1.0000
  C   C3409     1.0  0.55012  0.68221  0.80791  1.0000
  H   H6044     1.0  0.59737  0.97884  0.79247  1.0000
  C   C3410     1.0  0.95732  0.94154  0.81647  1.0000
  H   H6045     1.0  0.51490  0.70865  0.84889  1.0000
  C   C3411     1.0  0.51192  0.69874  0.82931  1.0000
  H   H6046     1.0  0.62465  0.70594  0.83348  1.0000
  H   H6047     1.0  0.60407  0.67879  0.84374  1.0000
  H   H6048     1.0  0.86138  0.75846  0.94893  1.0000
  H   H6049     1.0  0.59129  0.67779  0.86415  1.0000
  H   H6050     1.0  0.72254  0.66290  0.95811  1.0000
  H   H6051     1.0  0.60599  0.74796  0.81181  1.0000
  C   C3412     1.0  0.49947  0.77035  0.88960  1.0000
  H   H6052     1.0  0.63256  0.91597  0.73928  1.0000
  C   C3413     1.0  0.60969  0.86018  0.79033  1.0000
  C   C3414     1.0  0.88127  0.77081  0.93579  1.0000
  H   H6053     1.0  0.73753  0.92971  0.83188  1.0000
  H   H6054     1.0  0.96712  0.81589  0.74074  1.0000
  H   H6055     1.0  0.73170  0.95705  0.86266  1.0000
  C   C3415     1.0  0.56593  0.97629  0.80490  1.0000
  C   C3416     1.0  0.61573  0.86002  0.80583  1.0000
  C   C3417     1.0  0.62693  0.87237  0.80187  1.0000
  N   N190      1.0  0.54500  0.66700  0.94793  1.0000
  H   H6056     1.0  0.51362  0.69920  0.79405  1.0000
  H   H6057     1.0  0.53207  0.91744  0.75523  1.0000
  H   H6058     1.0  0.58057  0.85506  0.81186  1.0000
  H   H6059     1.0  0.86673  0.71208  0.98025  1.0000
  H   H6060     1.0  0.62065  0.85956  0.77983  1.0000
  H   H6061     1.0  0.60210  0.87286  0.78727  1.0000
  H   H6062     1.0  0.53676  0.66189  0.81960  1.0000
  H   H6063     1.0  0.71443  0.95194  0.81901  1.0000
  C   C3418     1.0  0.72518  0.96829  0.85511  1.0000
  H   H6064     1.0  0.96050  0.93657  0.82881  1.0000
  Fe  Fe382     1.0  0.50738  0.77107  0.79213  1.0000
  C   C3419     1.0  0.58941  0.84356  0.80884  1.0000
  Fe  Fe383     1.0  0.65711  0.65620  0.97023  1.0000
  Fe  Fe384     1.0  0.78515  0.67135  0.96998  1.0000
  H   H6065     1.0  0.95219  0.93228  0.81366  1.0000
  H   H6066     1.0  0.60373  0.85025  0.75609  1.0000
  H   H6067     1.0  0.60495  0.86375  0.81566  1.0000
  H   H6068     1.0  0.62268  0.84768  0.81094  1.0000
  H   H6069     1.0  0.62018  0.88512  0.79727  1.0000
  H   H6070     1.0  0.63080  0.87231  0.81320  1.0000
  H   H6071     1.0  0.63822  0.86909  0.79237  1.0000
  C   C3420     1.0  0.67950  0.94858  0.86234  1.0000
  C   C3421     1.0  0.61119  0.83215  0.78633  1.0000
  H   H6072     1.0  0.57885  0.86575  0.78422  1.0000
  H   H6073     1.0  0.58750  0.81812  0.80993  1.0000
  H   H6074     1.0  0.97757  0.95395  0.80710  1.0000
  H   H6075     1.0  0.72967  0.95826  0.82477  1.0000
  C   C3422     1.0  0.66267  0.94684  0.86092  1.0000
  C   C3423     1.0  0.55165  0.97330  0.82022  1.0000
  H   H6076     1.0  0.57477  0.86154  0.75205  1.0000
  C   C3424     1.0  0.59178  0.98007  0.84162  1.0000
  C   C3425     1.0  0.71608  0.95986  0.82655  1.0000
  C   C3426     1.0  0.74214  0.91424  0.85497  1.0000
  C   C3427     1.0  0.66220  0.97416  0.74465  1.0000
  H   H6077     1.0  0.97324  0.77348  0.77843  1.0000
  H   H6078     1.0  0.55418  0.96639  0.76954  1.0000
  H   H6079     1.0  0.57595  0.96490  0.80570  1.0000
  C   C3428     1.0  0.72338  0.98285  0.86293  1.0000
  H   H6080     1.0  0.56894  0.70181  0.91035  1.0000
  H   H6081     1.0  0.52991  0.84256  0.82608  1.0000
  H   H6082     1.0  0.62282  0.79773  0.79383  1.0000
  H   H6083     1.0  0.50722  0.65821  0.85100  1.0000
  H   H6084     1.0  0.49896  0.77982  0.89648  1.0000
  C   C3429     1.0  0.73519  0.93105  0.84485  1.0000
  H   H6085     1.0  0.71058  0.92760  0.84896  1.0000
  H   H6086     1.0  0.60151  0.97622  0.81707  1.0000
  H   H6087     1.0  0.57050  0.65903  0.82738  1.0000
  H   H6088     1.0  0.89147  0.77493  0.93818  1.0000
  H   H6089     1.0  0.96575  0.94087  0.78326  1.0000
  H   H6090     1.0  0.50717  0.66008  0.92979  1.0000
  C   C3430     1.0  0.97706  0.78542  0.77225  1.0000
  H   H6091     1.0  0.95736  0.96107  0.78671  1.0000
  C   C3431     1.0  0.69024  0.95423  0.84504  1.0000
  C   C3432     1.0  0.54090  0.67182  0.96445  1.0000
  H   H6092     1.0  0.60381  0.82404  0.78473  1.0000
  H   H6093     1.0  0.57536  0.88103  0.75596  1.0000
  C   C3433     1.0  0.71627  0.93670  0.85143  1.0000
  C   C3434     1.0  0.71795  0.98200  0.80006  1.0000
  H   H6094     1.0  0.79760  0.66292  0.93116  1.0000
  H   H6095     1.0  0.86584  0.70295  0.95002  1.0000
  C   C3435     1.0  0.50229  0.66323  0.94214  1.0000
  H   H6096     1.0  0.98470  0.97085  0.74697  1.0000
  N   N191      1.0  0.70803  0.95426  0.84447  1.0000
  H   H6097     1.0  0.56077  0.67322  0.92382  1.0000
  H   H6098     1.0  0.58080  0.98108  0.77171  1.0000
  H   H6099     1.0  0.53961  0.66737  0.78830  1.0000
  C   C3436     1.0  0.96900  0.95136  0.78604  1.0000
  H   H6100     1.0  0.53426  0.96905  0.80817  1.0000
  H   H6101     1.0  0.51213  0.94407  0.74389  1.0000
  H   H6102     1.0  0.50159  0.70005  0.82323  1.0000
  H   H6103     1.0  0.60426  0.86958  0.76005  1.0000
  H   H6104     1.0  0.57834  0.82217  0.83865  1.0000
  H   H6105     1.0  0.74228  0.93996  0.84513  1.0000
  H   H6106     1.0  0.73168  0.97946  0.79812  1.0000
  C   C3437     1.0  0.68508  0.68489  0.98036  1.0000
  H   H6107     1.0  0.58476  0.96605  0.82847  1.0000
  H   H6108     1.0  0.56207  0.81771  0.83198  1.0000
  H   H6109     1.0  0.67701  0.95791  0.86994  1.0000
  H   H6110     1.0  0.66428  0.93713  0.85397  1.0000
  H   H6111     1.0  0.89199  0.75174  0.96411  1.0000
  C   C3438     1.0  0.88329  0.74657  0.96035  1.0000
  H   H6112     1.0  0.94767  0.95313  0.81699  1.0000
  H   H6113     1.0  0.54299  0.98489  0.82278  1.0000
  H   H6114     1.0  0.50044  0.67479  0.89677  1.0000
  C   C3439     1.0  0.67272  0.66489  0.88395  1.0000
  H   H6115     1.0  0.88655  0.76258  0.92682  1.0000
  C   C3440     1.0  0.97499  0.78185  0.74450  1.0000
  H   H6116     1.0  0.84603  0.71551  0.94647  1.0000
  H   H6117     1.0  0.57136  0.70469  0.92954  1.0000
  C   C3441     1.0  0.50510  0.70907  0.84251  1.0000
  C   C3442     1.0  0.63200  0.80526  0.79249  1.0000
  H   H6118     1.0  0.54949  0.95087  0.81440  1.0000
  H   H6119     1.0  0.68560  0.93648  0.86899  1.0000
  C   C3443     1.0  0.58919  0.97767  0.82562  1.0000
  H   H6120     1.0  0.70008  0.97816  0.85102  1.0000
  H   H6121     1.0  0.72377  0.68601  0.90458  1.0000
  H   H6122     1.0  0.51206  0.74441  0.89018  1.0000
  H   H6123     1.0  0.54234  0.70127  0.94264  1.0000
  H   H6124     1.0  0.49531  0.79855  0.86552  1.0000
  C   C3444     1.0  0.50964  0.75374  0.89766  1.0000
  C   C3445     1.0  0.87141  0.72127  0.96928  1.0000
  H   H6125     1.0  0.57005  0.83373  0.80427  1.0000
  H   H6126     1.0  0.61128  0.97750  0.76321  1.0000
  H   H6127     1.0  0.71530  0.98127  0.87550  1.0000
  C   C3446     1.0  0.60785  0.91197  0.74347  1.0000
  H   H6128     1.0  0.68344  0.96670  0.84011  1.0000
  H   H6129     1.0  0.73877  0.66138  0.92178  1.0000
  C   C3447     1.0  0.98603  0.78523  0.75434  1.0000
  H   H6130     1.0  0.57937  0.96698  0.75088  1.0000
  H   H6131     1.0  0.98549  0.78732  0.77904  1.0000
  N   N192      1.0  0.49706  0.89412  0.79192  1.0000
  C   C3448     1.0  0.62327  0.82170  0.79762  1.0000
  H   H6132     1.0  0.50717  0.77393  0.87710  1.0000
  H   H6133     1.0  0.53032  0.68272  0.96483  1.0000
  C   C3449     1.0  0.57926  0.83006  0.81216  1.0000
  H   H6134     1.0  0.50435  0.91104  0.75756  1.0000
  H   H6135     1.0  0.96402  0.97322  0.75878  1.0000
  H   H6136     1.0  0.51053  0.66348  0.96324  1.0000
  H   H6137     1.0  0.71334  0.98662  0.82431  1.0000
  H   H6138     1.0  0.49580  0.67645  0.94062  1.0000
  H   H6139     1.0  0.49774  0.65861  0.82582  1.0000
  C   C3450     1.0  0.69127  0.97446  0.73384  1.0000
  H   H6140     1.0  0.70251  0.97760  0.73433  1.0000
  C   C3451     1.0  0.59411  0.91443  0.73658  1.0000
  H   H6141     1.0  0.58909  0.87384  0.73830  1.0000
  H   H6142     1.0  0.49711  0.84342  0.79839  1.0000
  H   H6143     1.0  0.50038  0.91741  0.80883  1.0000
  C   C3452     1.0  0.49701  0.87738  0.78935  1.0000
  C   C3453     1.0  0.49731  0.89215  0.80986  1.0000
  H   H6144     1.0  0.49548  0.72506  0.80287  1.0000
  C   C3454     1.0  0.61104  0.65665  0.86124  1.0000
  C   C3455     1.0  0.96652  0.95913  0.73328  1.0000
  C   C3456     1.0  0.49533  0.74091  0.77887  1.0000
  S   S768      1.0  0.49554  0.79784  0.78376  1.0000
