data_image0
_chemical_formula_structural       FeCHFeH2FeS3HFeS3H3CHFeS2FeS2FeCFeS3CHCFeSHFeS2Fe2S3C2H4C3HFeHFeSHSH3C2H5C6H4C4H4FeHCH2FeCH4C6H4CHSH5CHCHC4H2CH2CH2C2H3C2NC3HC3H3C2H2SH3C3H11CH8SHC3H4CHCH4CH2CHS4HCH2C2H10SH7CH5C2HCH4CH3CHNH6CH10CNC9HC2H16CH4CH3CH2NHCH2C2HC2HNC2FeHSH3C8H2CH3CH2CH6SCH2NCH2C3HC2HCH2CHNH3C2HC3H2FeCHNCH3SH3CHC3H2C2HCHCH3CH2CH2CSH6FeC2HSHNHSH2CH6CH3C2HCH2C2HFeH2CSCHCHC2HCH3CH5CHC3HCHCH2CH2CHCHSHSHC2FeSCH5CS2H2FeHCHC3HC3SC2H2CH2CHCHNH5CHCH3CH6C2H4CH3CH3CHCH2C2H4CHCH4CH2Fe2HCH2CH3CH2NCH5C2HFeS2FeSFeCFeS3FeSHCSHFeSFeSHCH3CH2SCHC7H4C6H8CH6CH2CH4SHCH5CH4C3NH3CH3CH3C3H3C2H5C2NH2CH3CHCH4CSCH2CH2C3HCH10CH3CHC2HCHCHCH3CH6C2H2CH4CHCH2CHCHCHCH5CHCNH2CHCH2CH2NCH2CH2CSH2CH3CH3CHCHCHCH5CH5CH2C2H4C2HC4HNH3CFeHSHC2HCH2CH8SHSH5CHC2HCHCHCH2C2H2FeC2HFeH3FeH3C2SCNH2CH3C2HC2H5CHS2H7CHC2HC2H2CHCH4CHCH3CHCSHC2HCH8CHCHNHC4HCNFeSFeS2FeS3HFeC2SCFeS2CHS2HFeSCFe2HSCHFeC2SC7H2CHC2H3FeH9C2H2SCHSC7H4CH2C2HSH3CH4C3HFeC3HCH2CH3SH7CH2CHC3HCSCHSH4C3H2NHSHNC11H17C2H6CHCH4CH3C2H2CHC2H2C2HFeH13CHSH3CH9C3H4C3H3SHCH10SH8C2H2FeHC2HSC2H5CH5C2HFeH3CNH2CH2CH5CHCH2C3H3NC5FeH3FeH4CH4FeH2CH2C2HSHCH5SHNH4CNCHCHCHSFeHSHCSFeHSFeC2H4S2CH3C2H4CHC3H2CHSC3HSH3CHC3H2CHC2HSH3CHCHC2HSH5Fe2H2NCSHC3H3C2HCH2C2HC2H2CHC3H6C2H2C2HCHFeNH5SH3CH2CH5S2HSHSHCH5SCSHC2HFeH3CH4C2HNC12H17C2H8CFeH3SHCH3NCH2CH3CFeCH2CHSCH3C3H2CH4C2HCHCHSHSHC2H4CFeC2H2CHFeCSC2HCHSH2CH2C2SC2H3CH3SH2CHCFeH8CH5C2HC3H5C2HCHSHC2H2CH2SH2CHCH2FeCH2C2HNSCH5C3HCH5CHCSFeSH2SCH4FeSHCH3CSH4CFeS2FeS2FeSFeS3FeSCFeS2FeSFeS3FeSCFeS2FeSFeS3FeS2FeSHFeSFeS3FeSFe2S2FeSFeS3C2NH2C6H4C6H8C2FeH2C6H4C6H4C6H4C6H4C6H3NC6H4C6H5C2H5SCH5C2SHC3H4CHFeHCH2CH2C2HCFeH3CH7CSH4C2H6CH3C4H7CH6C2H10CHC2NC12H28CH3C3SHC2HCNCH3CHSCH3CHCNCH5NC10H20CHSHCH8C4HSCH4C2H3SHCH2C4NH4CHC2H2CH7FeHCHCH4C2H2NHCHC2H3CH5NCH4CH3CSHCHCH4CH3SHCHCH6SCH2C2H2CHC3H4FeH3NCHCH2NCH5C3H3CH6CH2C2H3CH2SH3CHSH2CH2CH5CHCHC4HSH2C2HCH2CH7CHCHCH4CHCHCHC3HCH5CH4CSH3CH2CHCHCSH4CNSCH3CHC4H2C2H2NCH2C3HCH7SCNCHCH3C2HCH4C2HCH2CHC3SH2CHCH4CHCHCH2CH3CHCHCH3CH4C2H3CH2CHCH3CSH4CH2CSH2NH3C2H2CH9FeS3FeSFeS2FeHCHFeSH3CHNFeSC3HCH5C2HC2FeS2NHFeHSH2CH4CH3CHFeH2C7H2CHCHC2NH4SC2H2CHSH3SFeH2FeC6H4C6H4CSHCS2CHCH6C3SH2FeC2HCH2CHSC2H2C5HCH2C2H6SHCNC11H16CH8C2FeH2C2H2C3H2CH4SH5NCSCH4CHNCH5C2H2SCH2CHCH8SC2HSHC4HFeH8SH3CH2CSC3H2CHCHCH2SH2C2SHFeH3CH2CH2CH3SH2CH4CH10C3H3C2H5CH6C2H2CHCH2CH4CH3CH11C4HCNH2C2H2CHC3H2CH7SH2NCSHSCHC2NHFeHSHSH4SFeSFeS2FeSHFeSFeS3FeS2FeS2FeSFeS3FeS2FeSHFeSFeS3FeS2FeSHFeSFeS3CHC3FeS2FeS2FeSFeS3HC2HCHC6H4C6H4C6H4C6H4C6H4CSHC3H4C6H4C5H3C6H4C6H4C6H4C2H2CHCHC2HC2H3C7H4CH3NC12H29C2HC2NC12H28NC10H20NC12H10CH14CH6CH5NC4H3CH7S2H2CH2CH4CH2C3HC2H2C2H3SHFeH3CH2C3FeC3HS2HCH2C3H3C2HC2H9CHCHC2HFeH2CH4CH3CH3NH2CHC3H6CHCH4CH7CH5CH2SH3C3NH5CH4CHCH2NH6SH2CHCH3CH2SHSH6S2H6CFeH8NHSC2HCH7CH3CHCHCH2C2H3CH4FeHCFeH2C2H2SCHC3HC2HC2SH2NCH2CH2CHC2HCH3CH3CNH2CH3SHCHCH2CH2C3SHCH2CH3CHCHFeH3C3H2CHFeNCHCHCH5CH2CHCNHNH6C2H2CHCH7CHC3H2CH2SH5CH6CHSCH5C2H3CH2CHCH2C2H6CHC2HCH5CHFeNC2HCHC2H3SCH3FeH6C2H2C2H4C2H6C2H5C2HC2HCSH2SHSH2CHNSFeHSFeS2FeS2FeSFeS3CSC2HCH4C4H3NHC7H3C6H6CHFeH3S2CHCHC3H6FeH2CH3SHFeH5CHCFeH3SH4CNC2HCH3CHCSH2CH2SCH3SCHCH5C2H2SH2CH5CHCH7CH2CSHCH3CH2CH2C3H2CHCHCHC5HCHC2H2CHCH2C3H5CH3CHC2HC3H2CH3CH3CH3CH2CH2NH5CHFeCH2CH2C4HCH2CSH7SH2CH2C2H2CHFeCH2SHC3H2CH3CH14CH2C3H4CHCHNFe2CHSFeC6HSH2CH2CSCHCH2CHSH5CH2NC2H3CHCHNHCHSCHCH2CHNC2FeH2CH2CHCHSH2SH3CH2CHC2HCH3FeHCSCNH2CH2CH3C2HFeCH4CHCH4SCH2SH9C4H2CH2SCHFeHSCHCHS2H2CFeS2FeSFeHFeS3H6C6H4C6H4CHCH5C2H8CH2C3HCH3CH5C2HCHC2H2CH6SH2CHC2H3CHCH5CHC2HNCHNC2H3C2HCHCH2CH4NH2SHCH3C3H4CHCH3NCH4CH2CSCH5C2FeH2SHCHCHCH3SHC2H2S2C3H4CH6C3H2CH2NH2C2HFeHCFeS2FeHSHFeHS2FeH4FeS2FeS2FeHFeS3FeS2FeSCFeSFeCS2HSH2CH4C7H4C7H4CH2CHS2C3H4CHCH5CHCH2C3HSH2CH3CH2C2H3C2HCHC2H2CHCH3C3HCH2C3HC2H2FeHC2H3NC2SHCHSH7C7HC2H3SH9CH13C2HSH5CH3C3HC2NH7C3H3C3S2CH2CFeHFeH6NH4C2H2C2H6FeH3CHSH2C2H2C2H2C3SH2FeHCHC3H3C2H4C2H3CH3CH4C2H3CH2SHSH4CSH2FeCH2CHNC2HCHNCSCH5C2H5CNSC2HSH2CH3CHCHFeCHCHCH5CHC2SH3FeC2H4CH4SNHCH3SCSH3C2SC2H2FeCH4CHCHCHCH2SH3C3H3CH5C3NSCHC2H2CH2C2H2NCHC2HNC2H4C2H3C3H2C2HC2H2CH2CHCHCHCHCHC3H7CHC2HCH3SH3CHSFeHCH2C2HSH3CHCH11C2HCHCH4NCH2CHCH5CH6CH6C3H2C3H2CH7CHCHC4H5CH2FeC2H4FeH2CSCHC3H2CHSH4CH3CH2C2HC3S2H2CH2SH2FeHFeSH2C3SHFeHC2HNSC2HCHFeSCH2C2HNH6CHCHC2H5C2HCHCHC2H8SCH4C3H6
_chemical_formula_sum              "Fe192 C1728 H3072 S384 N96"
_cell_length_a       78.0697
_cell_length_b       78.223
_cell_length_c       79.3403
_cell_angle_alpha    75.9726
_cell_angle_beta     76.0065
_cell_angle_gamma    76.0989

_space_group_name_H-M_alt    "P 1"
_space_group_IT_number       1

loop_
  _space_group_symop_operation_xyz
  'x, y, z'

loop_
  _atom_site_type_symbol
  _atom_site_label
  _atom_site_symmetry_multiplicity
  _atom_site_fract_x
  _atom_site_fract_y
  _atom_site_fract_z
  _atom_site_occupancy
  Fe  Fe1       1.0  0.20861  0.99385  0.20388  1.0000
  C   C1        1.0  0.11606  0.04752  0.19688  1.0000
  H   H1        1.0  0.03629  0.00403  0.29630  1.0000
  Fe  Fe2       1.0  0.01855  0.20121  0.19904  1.0000
  H   H2        1.0  0.25908  0.01495  0.11131  1.0000
  H   H3        1.0  0.00120  0.03681  0.28313  1.0000
  Fe  Fe3       1.0  0.04011  0.17855  0.17229  1.0000
  S   S1        1.0  0.02043  0.16010  0.17917  1.0000
  S   S2        1.0  0.06647  0.17460  0.15304  1.0000
  S   S3        1.0  0.18906  0.00420  0.18558  1.0000
  H   H4        1.0  0.12578  0.13465  0.13706  1.0000
  Fe  Fe4       1.0  0.01987  0.16111  0.20727  1.0000
  S   S4        1.0  0.01859  0.13791  0.23028  1.0000
  S   S5        1.0  0.01922  0.20399  0.17008  1.0000
  S   S6        1.0  0.04126  0.17752  0.20052  1.0000
  H   H5        1.0  0.18952  0.00834  0.06973  1.0000
  H   H6        1.0  0.19546  0.04179  0.04337  1.0000
  H   H7        1.0  0.13979  0.01143  0.22562  1.0000
  C   C2        1.0  0.05634  0.03420  0.34124  1.0000
  H   H8        1.0  0.16194  0.10931  0.03235  1.0000
  Fe  Fe5       1.0  0.10457  0.11155  0.08959  1.0000
  S   S7        1.0  0.12441  0.10762  0.10694  1.0000
  S   S8        1.0  0.07577  0.12356  0.09957  1.0000
  Fe  Fe6       1.0  0.13254  0.09300  0.06201  1.0000
  S   S9        1.0  0.15437  0.08744  0.07747  1.0000
  S   S10       1.0  0.13792  0.08335  0.03643  1.0000
  Fe  Fe7       1.0  0.13297  0.08007  0.10096  1.0000
  C   C3        1.0  0.17013  0.06012  0.04093  1.0000
  Fe  Fe8       1.0  0.14324  0.11579  0.08165  1.0000
  S   S11       1.0  0.16047  0.13596  0.07869  1.0000
  S   S12       1.0  0.11191  0.08332  0.08513  1.0000
  S   S13       1.0  0.12272  0.12195  0.06452  1.0000
  C   C4        1.0  0.15328  0.02385  0.98349  1.0000
  H   H9        1.0  0.24403  0.14280  0.02503  1.0000
  C   C5        1.0  0.35897  0.22944  0.11716  1.0000
  Fe  Fe9       1.0  0.36883  0.21426  0.01849  1.0000
  S   S14       1.0  0.39882  0.20621  0.01519  1.0000
  H   H10       1.0  0.33956  0.04290  0.11563  1.0000
  Fe  Fe10      1.0  0.36257  0.19263  0.05622  1.0000
  S   S15       1.0  0.39207  0.18305  0.05582  1.0000
  S   S16       1.0  0.34470  0.18212  0.08144  1.0000
  Fe  Fe11      1.0  0.39427  0.21132  0.04266  1.0000
  Fe  Fe12      1.0  0.39312  0.17888  0.02863  1.0000
  S   S17       1.0  0.40858  0.15350  0.01975  1.0000
  S   S18       1.0  0.36454  0.22142  0.04510  1.0000
  S   S19       1.0  0.36347  0.18644  0.02993  1.0000
  C   C6        1.0  0.38601  0.15738  0.99673  1.0000
  C   C7        1.0  0.40357  0.15186  0.99993  1.0000
  H   H11       1.0  0.44237  0.20162  0.99574  1.0000
  H   H12       1.0  0.37525  0.16283  0.00646  1.0000
  H   H13       1.0  0.33815  0.04026  0.09408  1.0000
  H   H14       1.0  0.04332  0.10169  0.18519  1.0000
  C   C8        1.0  0.29251  0.00089  0.09984  1.0000
  C   C9        1.0  0.29307  0.04279  0.98866  1.0000
  C   C10       1.0  0.99567  0.02207  0.26623  1.0000
  H   H15       1.0  0.28145  0.99623  0.13541  1.0000
  Fe  Fe13      1.0  0.23854  0.00906  0.17684  1.0000
  H   H16       1.0  0.03688  0.20990  0.11959  1.0000
  Fe  Fe14      1.0  0.22223  0.00821  0.03190  1.0000
  S   S20       1.0  0.23238  0.01624  0.05239  1.0000
  H   H17       1.0  0.08235  0.21733  0.02552  1.0000
  S   S21       1.0  0.22149  0.02076  0.15619  1.0000
  H   H18       1.0  0.34995  0.21121  0.16261  1.0000
  H   H19       1.0  0.36108  0.08760  0.03921  1.0000
  H   H20       1.0  0.12915  0.19363  0.08745  1.0000
  C   C11       1.0  0.36968  0.20511  0.09910  1.0000
  C   C12       1.0  0.00462  0.04471  0.37952  1.0000
  H   H21       1.0  0.19077  0.11767  0.01502  1.0000
  H   H22       1.0  0.19501  0.00519  0.11206  1.0000
  H   H23       1.0  0.07069  0.12624  0.16668  1.0000
  H   H24       1.0  0.15436  0.08191  0.12429  1.0000
  H   H25       1.0  0.16016  0.12501  0.04638  1.0000
  C   C13       1.0  0.30087  0.15879  0.07106  1.0000
  C   C14       1.0  0.30792  0.17255  0.05844  1.0000
  C   C15       1.0  0.32158  0.17958  0.06148  1.0000
  C   C16       1.0  0.32800  0.17306  0.07728  1.0000
  C   C17       1.0  0.32093  0.15932  0.08993  1.0000
  C   C18       1.0  0.30751  0.15204  0.08674  1.0000
  H   H26       1.0  0.32675  0.19040  0.05180  1.0000
  H   H27       1.0  0.32587  0.15426  0.10218  1.0000
  H   H28       1.0  0.30198  0.14154  0.09661  1.0000
  H   H29       1.0  0.42311  0.19215  0.06966  1.0000
  C   C19       1.0  0.21174  0.11934  0.08613  1.0000
  C   C20       1.0  0.19588  0.13033  0.08132  1.0000
  C   C21       1.0  0.17979  0.12385  0.08651  1.0000
  C   C22       1.0  0.17936  0.10679  0.09695  1.0000
  H   H30       1.0  0.05960  0.04408  0.34740  1.0000
  H   H31       1.0  0.22435  0.12403  0.08174  1.0000
  H   H32       1.0  0.19621  0.14355  0.07312  1.0000
  H   H33       1.0  0.16692  0.10193  0.10116  1.0000
  Fe  Fe15      1.0  0.21177  0.99473  0.16464  1.0000
  H   H34       1.0  0.43077  0.13987  0.98982  1.0000
  C   C23       1.0  0.31803  0.02972  0.11582  1.0000
  H   H35       1.0  0.47476  0.16137  0.04256  1.0000
  H   H36       1.0  0.10936  0.03764  0.20736  1.0000
  Fe  Fe16      1.0  0.25989  0.99584  0.01130  1.0000
  C   C24       1.0  0.32836  0.21747  0.10711  1.0000
  H   H37       1.0  0.09293  0.14966  0.04059  1.0000
  H   H38       1.0  0.19396  0.15285  0.10503  1.0000
  H   H39       1.0  0.10902  0.20491  0.05090  1.0000
  H   H40       1.0  0.01509  0.02465  0.36374  1.0000
  C   C25       1.0  0.06890  0.15924  0.13941  1.0000
  C   C26       1.0  0.05415  0.15309  0.13763  1.0000
  C   C27       1.0  0.05640  0.14170  0.12571  1.0000
  C   C28       1.0  0.07339  0.13647  0.11556  1.0000
  C   C29       1.0  0.08813  0.14251  0.11750  1.0000
  C   C30       1.0  0.08592  0.15371  0.12953  1.0000
  H   H41       1.0  0.04090  0.15755  0.14495  1.0000
  H   H42       1.0  0.04489  0.13725  0.12411  1.0000
  H   H43       1.0  0.10108  0.13936  0.10915  1.0000
  H   H44       1.0  0.09732  0.15859  0.13075  1.0000
  C   C31       1.0  0.01458  0.01056  0.26355  1.0000
  H   H45       1.0  0.24880  0.10333  0.04448  1.0000
  S   S22       1.0  0.27347  0.00273  0.02989  1.0000
  H   H46       1.0  0.23765  0.12556  0.14130  1.0000
  H   H47       1.0  0.37445  0.09277  0.05168  1.0000
  H   H48       1.0  0.08260  0.13621  0.06071  1.0000
  H   H49       1.0  0.31715  0.99919  0.07938  1.0000
  H   H50       1.0  0.24991  0.11102  0.02101  1.0000
  C   C32       1.0  0.15162  0.00658  0.12623  1.0000
  H   H51       1.0  0.13237  0.01267  0.29993  1.0000
  C   C33       1.0  0.35616  0.21450  0.13396  1.0000
  H   H52       1.0  0.19587  0.13110  0.17409  1.0000
  C   C34       1.0  0.13225  0.03804  0.07776  1.0000
  C   C35       1.0  0.28000  0.07284  0.03209  1.0000
  C   C36       1.0  0.14823  0.04273  0.15257  1.0000
  C   C37       1.0  0.09001  0.02263  0.33545  1.0000
  H   H53       1.0  0.12556  0.05204  0.20250  1.0000
  H   H54       1.0  0.14413  0.01138  0.27757  1.0000
  C   C38       1.0  0.22202  0.09457  0.02005  1.0000
  H   H55       1.0  0.03026  0.03451  0.30241  1.0000
  H   H56       1.0  0.45380  0.17639  0.07416  1.0000
  C   C39       1.0  0.13314  0.12614  0.14747  1.0000
  H   H57       1.0  0.39664  0.11724  0.01423  1.0000
  H   H58       1.0  0.11169  0.08481  0.14241  1.0000
  C   C40       1.0  0.33693  0.03369  0.10829  1.0000
  C   C41       1.0  0.00680  0.17380  0.26624  1.0000
  H   H59       1.0  0.12557  0.17378  0.10425  1.0000
  H   H60       1.0  0.00161  0.19662  0.28822  1.0000
  H   H61       1.0  0.21741  0.05800  0.15516  1.0000
  C   C42       1.0  0.12716  0.10804  0.15397  1.0000
  C   C43       1.0  0.27363  0.03092  0.16544  1.0000
  N   N1        1.0  0.45839  0.15200  0.02951  1.0000
  C   C44       1.0  0.45566  0.16788  0.01453  1.0000
  C   C45       1.0  0.45769  0.13491  0.02409  1.0000
  C   C46       1.0  0.44304  0.15506  0.04491  1.0000
  H   H62       1.0  0.39819  0.20527  0.08815  1.0000
  C   C47       1.0  0.16641  0.11129  0.18354  1.0000
  C   C48       1.0  0.45397  0.18664  0.01871  1.0000
  C   C49       1.0  0.44208  0.13935  0.06120  1.0000
  H   H63       1.0  0.28058  0.03726  0.99428  1.0000
  H   H64       1.0  0.36929  0.20178  0.08634  1.0000
  H   H65       1.0  0.29637  0.08734  0.03942  1.0000
  C   C50       1.0  0.45377  0.20129  0.00199  1.0000
  C   C51       1.0  0.42571  0.14402  0.07555  1.0000
  H   H66       1.0  0.44316  0.16823  0.00989  1.0000
  H   H67       1.0  0.46674  0.16653  0.00292  1.0000
  S   S23       1.0  0.21812  0.01979  0.19897  1.0000
  H   H68       1.0  0.44350  0.13302  0.02677  1.0000
  H   H69       1.0  0.42995  0.15847  0.04049  1.0000
  H   H70       1.0  0.44366  0.16682  0.05000  1.0000
  C   C52       1.0  0.24881  0.13138  0.03529  1.0000
  C   C53       1.0  0.20310  0.13725  0.13791  1.0000
  C   C54       1.0  0.26754  0.06202  0.15024  1.0000
  H   H71       1.0  0.30046  0.03174  0.06454  1.0000
  H   H72       1.0  0.44115  0.19018  0.02800  1.0000
  H   H73       1.0  0.46531  0.18702  0.02463  1.0000
  H   H74       1.0  0.45414  0.13657  0.06721  1.0000
  H   H75       1.0  0.44100  0.12688  0.05755  1.0000
  H   H76       1.0  0.09341  0.05824  0.18416  1.0000
  H   H77       1.0  0.30864  0.04289  0.11520  1.0000
  H   H78       1.0  0.12156  0.17951  0.06552  1.0000
  H   H79       1.0  0.21502  0.15965  0.09412  1.0000
  H   H80       1.0  0.44480  0.23727  0.03653  1.0000
  H   H81       1.0  0.19331  0.04885  0.12308  1.0000
  C   C55       1.0  0.29984  0.05974  0.05304  1.0000
  H   H82       1.0  0.46660  0.19903  0.99232  1.0000
  H   H83       1.0  0.10164  0.01752  0.32556  1.0000
  H   H84       1.0  0.45214  0.21457  0.00554  1.0000
  H   H85       1.0  0.42539  0.13274  0.08716  1.0000
  H   H86       1.0  0.42636  0.15625  0.07995  1.0000
  H   H87       1.0  0.41312  0.14636  0.07047  1.0000
  H   H88       1.0  0.15335  0.01773  0.06756  1.0000
  H   H89       1.0  0.17330  0.07037  0.04596  1.0000
  S   S24       1.0  0.28353  0.15046  0.06717  1.0000
  H   H90       1.0  0.01133  0.16072  0.26170  1.0000
  C   C56       1.0  0.16188  0.02593  0.08830  1.0000
  C   C57       1.0  0.39490  0.10238  0.99551  1.0000
  C   C58       1.0  0.37217  0.23604  0.08540  1.0000
  H   H91       1.0  0.24948  0.12524  0.17690  1.0000
  H   H92       1.0  0.15749  0.00207  0.31094  1.0000
  H   H93       1.0  0.47555  0.22091  0.03982  1.0000
  H   H94       1.0  0.15947  0.13302  0.02324  1.0000
  C   C59       1.0  0.46412  0.21470  0.04656  1.0000
  H   H95       1.0  0.99825  0.11665  0.25951  1.0000
  C   C60       1.0  0.46667  0.19756  0.05720  1.0000
  H   H96       1.0  0.17028  0.03414  0.11873  1.0000
  H   H97       1.0  0.34718  0.02110  0.10964  1.0000
  H   H98       1.0  0.40980  0.09845  0.99247  1.0000
  H   H99       1.0  0.19929  0.14927  0.14421  1.0000
  C   C61       1.0  0.26224  0.04533  0.15695  1.0000
  H   H100      1.0  0.24806  0.00063  0.09381  1.0000
  H   H101      1.0  0.99541  0.03362  0.25491  1.0000
  C   C62       1.0  0.09335  0.21890  0.03134  1.0000
  H   H102      1.0  0.05491  0.02224  0.35210  1.0000
  S   S25       1.0  0.41029  0.22753  0.05019  1.0000
  S   S26       1.0  0.18164  0.05625  0.17650  1.0000
  S   S27       1.0  0.26795  0.00956  0.17284  1.0000
  S   S28       1.0  0.48844  0.18551  0.05867  1.0000
  H   H103      1.0  0.14145  0.01772  0.12082  1.0000
  C   C63       1.0  0.01544  0.18779  0.25130  1.0000
  H   H104      1.0  0.24334  0.09650  0.15987  1.0000
  H   H105      1.0  0.18891  0.13343  0.02897  1.0000
  C   C64       1.0  0.30928  0.98994  0.08945  1.0000
  C   C65       1.0  0.03579  0.18154  0.24646  1.0000
  H   H106      1.0  0.09957  0.12117  0.15337  1.0000
  H   H107      1.0  0.07001  0.14703  0.04353  1.0000
  H   H108      1.0  0.01304  0.17174  0.27797  1.0000
  H   H109      1.0  0.45624  0.14365  0.99585  1.0000
  H   H110      1.0  0.01823  0.00606  0.31525  1.0000
  H   H111      1.0  0.03035  0.20354  0.10200  1.0000
  H   H112      1.0  0.04792  0.11952  0.19341  1.0000
  H   H113      1.0  0.14775  0.12395  0.14160  1.0000
  H   H114      1.0  0.25891  0.07306  0.14339  1.0000
  H   H115      1.0  0.31548  0.21498  0.08648  1.0000
  S   S29       1.0  0.99716  0.18464  0.20822  1.0000
  H   H116      1.0  0.00988  0.18986  0.23921  1.0000
  H   H117      1.0  0.01297  0.20090  0.25539  1.0000
  H   H118      1.0  0.12371  0.04064  0.18588  1.0000
  H   H119      1.0  0.25047  0.05245  0.12007  1.0000
  H   H120      1.0  0.21054  0.03424  0.11064  1.0000
  H   H121      1.0  0.15808  0.02295  0.02389  1.0000
  H   H122      1.0  0.03814  0.12455  0.17393  1.0000
  C   C66       1.0  0.04024  0.19990  0.11087  1.0000
  H   H123      1.0  0.04209  0.17981  0.25805  1.0000
  H   H124      1.0  0.03901  0.16864  0.24176  1.0000
  H   H125      1.0  0.04156  0.19176  0.23562  1.0000
  H   H126      1.0  0.47780  0.13778  0.04594  1.0000
  H   H127      1.0  0.15766  0.98996  0.10654  1.0000
  C   C67       1.0  0.36121  0.09725  0.04745  1.0000
  C   C68       1.0  0.44672  0.22395  0.04469  1.0000
  H   H128      1.0  0.17241  0.09687  0.18758  1.0000
  C   C69       1.0  0.04790  0.11474  0.18131  1.0000
  H   H129      1.0  0.10531  0.00587  0.29363  1.0000
  H   H130      1.0  0.24955  0.04345  0.15525  1.0000
  H   H131      1.0  0.39213  0.20618  0.11119  1.0000
  H   H132      1.0  0.15488  0.03462  0.09798  1.0000
  C   C70       1.0  0.07304  0.02802  0.32749  1.0000
  H   H133      1.0  0.08843  0.01176  0.34733  1.0000
  H   H134      1.0  0.13787  0.04995  0.06993  1.0000
  H   H135      1.0  0.39382  0.17330  0.09536  1.0000
  C   C71       1.0  0.19698  0.03552  0.11921  1.0000
  H   H136      1.0  0.12444  0.04114  0.09072  1.0000
  N   N2        1.0  0.03893  0.04163  0.33463  1.0000
  H   H137      1.0  0.11699  0.00457  0.27119  1.0000
  H   H138      1.0  0.03906  0.18655  0.11942  1.0000
  H   H139      1.0  0.05992  0.06893  0.32586  1.0000
  H   H140      1.0  0.14333  0.17219  0.08506  1.0000
  H   H141      1.0  0.07396  0.08602  0.18326  1.0000
  H   H142      1.0  0.28239  0.03704  0.09887  1.0000
  C   C72       1.0  0.14100  0.99682  0.34559  1.0000
  H   H143      1.0  0.09286  0.03433  0.33915  1.0000
  H   H144      1.0  0.15200  0.99548  0.44300  1.0000
  H   H145      1.0  0.01574  0.99879  0.27458  1.0000
  H   H146      1.0  0.31364  0.02581  0.09126  1.0000
  H   H147      1.0  0.33345  0.20493  0.98496  1.0000
  H   H148      1.0  0.32484  0.00640  0.10393  1.0000
  H   H149      1.0  0.11217  0.02549  0.27869  1.0000
  H   H150      1.0  0.13070  0.13326  0.15861  1.0000
  H   H151      1.0  0.12298  0.03534  0.07050  1.0000
  H   H152      1.0  0.01263  0.05651  0.34436  1.0000
  C   C73       1.0  0.28208  0.04154  0.04641  1.0000
  N   N3        1.0  0.08293  0.18471  0.07584  1.0000
  C   C74       1.0  0.08728  0.16761  0.06868  1.0000
  C   C75       1.0  0.09693  0.18479  0.08611  1.0000
  C   C76       1.0  0.06493  0.18513  0.08846  1.0000
  C   C77       1.0  0.08124  0.20123  0.06137  1.0000
  C   C78       1.0  0.09769  0.20276  0.04602  1.0000
  C   C79       1.0  0.07339  0.16513  0.05883  1.0000
  C   C80       1.0  0.05936  0.19973  0.10009  1.0000
  C   C81       1.0  0.11658  0.17526  0.07986  1.0000
  C   C82       1.0  0.12937  0.17900  0.08980  1.0000
  H   H153      1.0  0.33359  0.20284  0.11019  1.0000
  C   C83       1.0  0.08022  0.14850  0.05042  1.0000
  C   C84       1.0  0.03758  0.02342  0.31128  1.0000
  H   H154      1.0  0.08871  0.15580  0.07972  1.0000
  H   H155      1.0  0.10053  0.16618  0.05957  1.0000
  H   H156      1.0  0.09705  0.19879  0.08689  1.0000
  H   H157      1.0  0.09335  0.17785  0.10008  1.0000
  H   H158      1.0  0.06464  0.17195  0.09771  1.0000
  H   H159      1.0  0.05391  0.18711  0.08111  1.0000
  H   H160      1.0  0.06921  0.20255  0.05561  1.0000
  H   H161      1.0  0.07868  0.21355  0.06692  1.0000
  H   H162      1.0  0.10202  0.19070  0.03993  1.0000
  H   H163      1.0  0.45073  0.11219  0.00545  1.0000
  H   H164      1.0  0.06056  0.16327  0.06820  1.0000
  H   H165      1.0  0.07064  0.17681  0.04806  1.0000
  H   H166      1.0  0.09641  0.07256  0.12323  1.0000
  H   H167      1.0  0.06840  0.19715  0.10967  1.0000
  H   H168      1.0  0.11748  0.16047  0.08264  1.0000
  H   H169      1.0  0.22737  0.10283  0.13359  1.0000
  C   C85       1.0  0.21574  0.14211  0.11982  1.0000
  H   H170      1.0  0.05217  0.02253  0.30600  1.0000
  H   H171      1.0  0.07476  0.08687  0.12862  1.0000
  H   H172      1.0  0.22764  0.00334  0.12296  1.0000
  H   H173      1.0  0.22114  0.13023  0.11349  1.0000
  C   C86       1.0  0.08377  0.07410  0.13324  1.0000
  H   H174      1.0  0.30542  0.23461  0.09625  1.0000
  H   H175      1.0  0.09212  0.10133  0.14091  1.0000
  H   H176      1.0  0.38429  0.12072  0.04175  1.0000
  C   C87       1.0  0.13407  0.00585  0.28876  1.0000
  H   H177      1.0  0.20131  0.16951  0.11247  1.0000
  H   H178      1.0  0.33849  0.23206  0.15126  1.0000
  N   N4        1.0  0.17461  0.00992  0.09628  1.0000
  H   H179      1.0  0.14099  0.01062  0.08948  1.0000
  C   C88       1.0  0.19508  0.10511  0.04222  1.0000
  H   H180      1.0  0.34537  0.20748  0.13420  1.0000
  H   H181      1.0  0.13017  0.10153  0.14246  1.0000
  C   C89       1.0  0.09794  0.08913  0.14987  1.0000
  C   C90       1.0  0.08778  0.07398  0.15120  1.0000
  H   H182      1.0  0.23536  0.07294  0.99480  1.0000
  C   C91       1.0  0.43445  0.19859  0.06344  1.0000
  C   C92       1.0  0.22236  0.08570  0.05234  1.0000
  H   H183      1.0  0.21860  0.12759  0.02569  1.0000
  N   N5        1.0  0.09877  0.09367  0.16708  1.0000
  C   C93       1.0  0.47565  0.15021  0.03574  1.0000
  C   C94       1.0  0.10683  0.11038  0.16259  1.0000
  Fe  Fe17      1.0  0.25209  0.02761  0.02914  1.0000
  H   H184      1.0  0.06521  0.11027  0.15680  1.0000
  S   S30       1.0  0.19308  0.00986  0.03171  1.0000
  H   H185      1.0  0.23613  0.07863  0.04721  1.0000
  H   H186      1.0  0.22404  0.09171  0.06307  1.0000
  H   H187      1.0  0.31754  0.02303  0.12990  1.0000
  C   C95       1.0  0.38880  0.10729  0.01385  1.0000
  C   C96       1.0  0.19679  0.11959  0.16772  1.0000
  C   C97       1.0  0.18321  0.03362  0.10940  1.0000
  C   C98       1.0  0.36978  0.12699  0.04297  1.0000
  C   C99       1.0  0.22043  0.07642  0.99811  1.0000
  C   C100      1.0  0.01985  0.03570  0.36650  1.0000
  C   C101      1.0  0.16633  0.99692  0.22888  1.0000
  C   C102      1.0  0.41728  0.14440  0.98737  1.0000
  H   H188      1.0  0.19720  0.02498  0.13142  1.0000
  H   H189      1.0  0.13555  0.09968  0.16359  1.0000
  C   C103      1.0  0.43190  0.21581  0.05290  1.0000
  H   H190      1.0  0.36168  0.10708  0.01248  1.0000
  H   H191      1.0  0.15904  0.01146  0.13378  1.0000
  H   H192      1.0  0.30275  0.17785  0.04634  1.0000
  C   C104      1.0  0.11078  0.07865  0.17733  1.0000
  H   H193      1.0  0.12243  0.07243  0.16805  1.0000
  H   H194      1.0  0.12755  0.99146  0.32748  1.0000
  C   C105      1.0  0.27457  0.05645  0.03485  1.0000
  H   H195      1.0  0.07704  0.06277  0.13435  1.0000
  H   H196      1.0  0.02485  0.01850  0.26287  1.0000
  H   H197      1.0  0.19074  0.10925  0.05534  1.0000
  H   H198      1.0  0.11678  0.08411  0.18582  1.0000
  H   H199      1.0  0.39235  0.09499  0.02374  1.0000
  H   H200      1.0  0.24977  0.04712  0.09939  1.0000
  S   S31       1.0  0.25810  0.05513  0.02394  1.0000
  C   C106      1.0  0.36832  0.11533  0.01759  1.0000
  H   H201      1.0  0.21984  0.10629  0.00909  1.0000
  H   H202      1.0  0.23427  0.04998  0.06543  1.0000
  N   N6        1.0  0.21534  0.10021  0.03777  1.0000
  C   C107      1.0  0.24333  0.11424  0.03422  1.0000
  H   H203      1.0  0.09333  0.06853  0.20206  1.0000
  H   H204      1.0  0.21652  0.12231  0.04907  1.0000
  C   C108      1.0  0.03205  0.02681  0.33054  1.0000
  C   C109      1.0  0.45180  0.18966  0.06594  1.0000
  C   C110      1.0  0.16566  0.12196  0.03296  1.0000
  H   H205      1.0  0.34355  0.10393  0.07248  1.0000
  C   C111      1.0  0.22256  0.11677  0.03682  1.0000
  C   C112      1.0  0.24178  0.98955  0.10157  1.0000
  H   H206      1.0  0.18887  0.09334  0.04391  1.0000
  C   C113      1.0  0.18606  0.12029  0.02866  1.0000
  H   H207      1.0  0.34432  0.22480  0.08098  1.0000
  H   H208      1.0  0.33320  0.12671  0.05091  1.0000
  C   C114      1.0  0.32923  0.11873  0.02796  1.0000
  H   H209      1.0  0.10546  0.21992  0.02065  1.0000
  N   N7        1.0  0.29571  0.01157  0.11202  1.0000
  H   H210      1.0  0.36623  0.12896  0.00906  1.0000
  H   H211      1.0  0.33274  0.12325  0.01337  1.0000
  H   H212      1.0  0.33180  0.10383  0.03090  1.0000
  C   C115      1.0  0.15365  0.06310  0.03551  1.0000
  C   C116      1.0  0.19507  0.09583  0.10165  1.0000
  H   H213      1.0  0.30178  0.21264  0.10836  1.0000
  C   C117      1.0  0.16772  0.05688  0.16203  1.0000
  C   C118      1.0  0.11603  0.01069  0.28272  1.0000
  C   C119      1.0  0.21128  0.10199  0.09608  1.0000
  H   H214      1.0  0.13680  0.05188  0.02504  1.0000
  H   H215      1.0  0.27439  0.08430  0.02299  1.0000
  Fe  Fe18      1.0  0.28145  0.12292  0.08312  1.0000
  C   C120      1.0  0.25396  0.11384  0.16982  1.0000
  H   H216      1.0  0.26333  0.11769  0.15717  1.0000
  N   N8        1.0  0.35976  0.11620  0.03669  1.0000
  C   C121      1.0  0.06657  0.11306  0.16941  1.0000
  H   H217      1.0  0.22403  0.06020  0.08456  1.0000
  H   H218      1.0  0.05438  0.09818  0.30549  1.0000
  H   H219      1.0  0.30593  0.14050  0.03087  1.0000
  S   S32       1.0  0.26198  0.11674  0.10876  1.0000
  H   H220      1.0  0.47865  0.13593  0.99941  1.0000
  H   H221      1.0  0.19924  0.08236  0.01981  1.0000
  H   H222      1.0  0.08147  0.10188  0.19065  1.0000
  C   C122      1.0  0.14728  0.02166  0.08058  1.0000
  H   H223      1.0  0.02752  0.06169  0.31428  1.0000
  C   C123      1.0  0.21377  0.10448  0.14229  1.0000
  C   C124      1.0  0.23785  0.10831  0.16629  1.0000
  C   C125      1.0  0.21767  0.07077  0.14542  1.0000
  H   H224      1.0  0.20425  0.10628  0.13327  1.0000
  H   H225      1.0  0.23151  0.07048  0.13770  1.0000
  C   C126      1.0  0.34055  0.12616  0.03714  1.0000
  C   C127      1.0  0.05012  0.08640  0.30342  1.0000
  H   H226      1.0  0.36929  0.14061  0.03435  1.0000
  C   C128      1.0  0.21414  0.07934  0.01718  1.0000
  H   H227      1.0  0.20834  0.07191  0.13646  1.0000
  C   C129      1.0  0.30912  0.12557  0.03375  1.0000
  H   H228      1.0  0.34024  0.14054  0.03061  1.0000
  H   H229      1.0  0.23686  0.08991  0.01775  1.0000
  H   H230      1.0  0.25849  0.01956  0.13257  1.0000
  C   C130      1.0  0.17834  0.03056  0.03318  1.0000
  H   H231      1.0  0.29782  0.04548  0.99971  1.0000
  H   H232      1.0  0.03010  0.05953  0.35349  1.0000
  C   C131      1.0  0.21206  0.08630  0.15521  1.0000
  H   H233      1.0  0.30488  0.12068  0.04818  1.0000
  H   H234      1.0  0.30138  0.12052  0.02661  1.0000
  C   C132      1.0  0.16167  0.03339  0.02832  1.0000
  S   S33       1.0  0.24010  0.02187  0.00870  1.0000
  H   H235      1.0  0.20028  0.01843  0.09071  1.0000
  H   H236      1.0  0.27779  0.02889  0.04872  1.0000
  H   H237      1.0  0.21497  0.06512  0.99661  1.0000
  H   H238      1.0  0.04060  0.99432  0.31825  1.0000
  H   H239      1.0  0.22030  0.08331  0.16548  1.0000
  H   H240      1.0  0.22719  0.14725  0.12147  1.0000
  Fe  Fe19      1.0  0.29608  0.08430  0.08040  1.0000
  C   C133      1.0  0.29489  0.04314  0.05538  1.0000
  C   C134      1.0  0.31340  0.01789  0.10502  1.0000
  H   H241      1.0  0.22916  0.10434  0.17928  1.0000
  S   S34       1.0  0.27377  0.10454  0.06961  1.0000
  H   H242      1.0  0.19471  0.08239  0.10933  1.0000
  N   N9        1.0  0.21041  0.12079  0.15056  1.0000
  H   H243      1.0  0.17272  0.08225  0.14574  1.0000
  S   S35       1.0  0.23068  0.08710  0.10103  1.0000
  H   H244      1.0  0.01746  0.00554  0.25100  1.0000
  H   H245      1.0  0.33355  0.09408  0.06015  1.0000
  C   C135      1.0  0.22768  0.12369  0.15386  1.0000
  H   H246      1.0  0.46487  0.12297  0.03228  1.0000
  H   H247      1.0  0.03752  0.09123  0.29808  1.0000
  H   H248      1.0  0.05013  0.05178  0.30712  1.0000
  H   H249      1.0  0.20604  0.06580  0.05286  1.0000
  H   H250      1.0  0.38825  0.13679  0.06365  1.0000
  H   H251      1.0  0.17739  0.11191  0.15586  1.0000
  C   C136      1.0  0.10194  0.06340  0.19027  1.0000
  H   H252      1.0  0.26147  0.10230  0.17811  1.0000
  H   H253      1.0  0.19056  0.13555  0.13472  1.0000
  H   H254      1.0  0.06085  0.08004  0.29353  1.0000
  C   C137      1.0  0.07234  0.04797  0.44382  1.0000
  C   C138      1.0  0.29250  0.07453  0.04130  1.0000
  H   H255      1.0  0.15997  0.03178  0.17573  1.0000
  C   C139      1.0  0.17737  0.11951  0.16601  1.0000
  H   H256      1.0  0.21557  0.08866  0.98872  1.0000
  H   H257      1.0  0.17283  0.00794  0.22141  1.0000
  C   C140      1.0  0.08032  0.09798  0.17840  1.0000
  C   C141      1.0  0.36343  0.12933  0.06247  1.0000
  H   H258      1.0  0.19795  0.08636  0.16212  1.0000
  Fe  Fe20      1.0  0.25651  0.09663  0.09590  1.0000
  H   H259      1.0  0.34887  0.13515  0.06552  1.0000
  H   H260      1.0  0.29906  0.02218  0.17394  1.0000
  C   C142      1.0  0.38972  0.20013  0.10091  1.0000
  S   S36       1.0  0.27807  0.07464  0.10540  1.0000
  C   C143      1.0  0.34257  0.22781  0.09440  1.0000
  H   H261      1.0  0.09631  0.06074  0.15535  1.0000
  C   C144      1.0  0.15886  0.04267  0.16447  1.0000
  H   H262      1.0  0.26371  0.12933  0.03308  1.0000
  C   C145      1.0  0.34631  0.09378  0.06412  1.0000
  C   C146      1.0  0.15543  0.07112  0.13561  1.0000
  H   H263      1.0  0.36922  0.14284  0.08074  1.0000
  C   C147      1.0  0.37350  0.14185  0.06654  1.0000
  H   H264      1.0  0.47376  0.10445  0.00871  1.0000
  H   H265      1.0  0.36865  0.20419  0.13465  1.0000
  H   H266      1.0  0.14647  0.00227  0.19638  1.0000
  C   C148      1.0  0.14669  0.05682  0.13805  1.0000
  H   H267      1.0  0.24319  0.13480  0.04860  1.0000
  H   H268      1.0  0.03602  0.01384  0.33951  1.0000
  H   H269      1.0  0.36639  0.11621  0.07152  1.0000
  H   H270      1.0  0.37031  0.15547  0.05848  1.0000
  H   H271      1.0  0.18179  0.04544  0.09837  1.0000
  C   C149      1.0  0.29018  0.03331  0.16744  1.0000
  H   H272      1.0  0.14127  0.03181  0.15454  1.0000
  C   C150      1.0  0.31177  0.22017  0.09901  1.0000
  C   C151      1.0  0.04708  0.07309  0.32099  1.0000
  C   C152      1.0  0.14956  0.04973  0.02909  1.0000
  H   H273      1.0  0.29426  0.00966  0.13995  1.0000
  C   C153      1.0  0.16577  0.07130  0.14775  1.0000
  H   H274      1.0  0.34031  0.07316  0.08720  1.0000
  C   C154      1.0  0.21075  0.07134  0.06206  1.0000
  H   H275      1.0  0.32375  0.22267  0.11961  1.0000
  H   H276      1.0  0.28223  0.03604  0.12163  1.0000
  C   C155      1.0  0.35142  0.07535  0.07564  1.0000
  H   H277      1.0  0.21333  0.04495  0.07889  1.0000
  H   H278      1.0  0.19867  0.07736  0.07096  1.0000
  C   C156      1.0  0.46481  0.13354  0.00430  1.0000
  H   H279      1.0  0.36378  0.07451  0.08062  1.0000
  C   C157      1.0  0.28401  0.06446  0.15243  1.0000
  H   H280      1.0  0.07545  0.03872  0.31565  1.0000
  S   S37       1.0  0.30519  0.10316  0.09199  1.0000
  H   H281      1.0  0.20116  0.10755  0.17757  1.0000
  S   S38       1.0  0.13430  0.05589  0.12281  1.0000
  H   H282      1.0  0.01708  0.02951  0.33331  1.0000
  C   C158      1.0  0.22130  0.05568  0.07342  1.0000
  C   C159      1.0  0.14764  0.99895  0.23140  1.0000
  Fe  Fe21      1.0  0.28499  0.09511  0.11637  1.0000
  S   S39       1.0  0.01620  0.22340  0.21332  1.0000
  C   C160      1.0  0.23024  0.99107  0.11801  1.0000
  H   H283      1.0  0.35358  0.06458  0.06801  1.0000
  H   H284      1.0  0.21890  0.06648  0.02576  1.0000
  H   H285      1.0  0.22511  0.13627  0.15908  1.0000
  H   H286      1.0  0.16962  0.03474  0.07743  1.0000
  H   H287      1.0  0.16593  0.11857  0.19411  1.0000
  C   C161      1.0  0.02517  0.04934  0.34926  1.0000
  S   S40       1.0  0.31340  0.06273  0.06630  1.0000
  S   S41       1.0  0.29095  0.08517  0.14365  1.0000
  H   H288      1.0  0.03680  0.08043  0.33043  1.0000
  H   H289      1.0  0.10512  0.11596  0.17470  1.0000
  Fe  Fe22      1.0  0.20022  0.02928  0.17895  1.0000
  H   H290      1.0  0.14892  0.00326  0.17303  1.0000
  C   C162      1.0  0.20583  0.15694  0.10714  1.0000
  H   H291      1.0  0.28538  0.00994  0.08940  1.0000
  C   C163      1.0  0.04069  0.05665  0.31862  1.0000
  C   C164      1.0  0.18265  0.04397  0.03945  1.0000
  C   C165      1.0  0.24817  0.04214  0.11392  1.0000
  H   H292      1.0  0.15245  0.11216  0.18199  1.0000
  C   C166      1.0  0.10004  0.99899  0.42344  1.0000
  C   C167      1.0  0.29524  0.05012  0.16120  1.0000
  C   C168      1.0  0.18892  0.01602  0.10203  1.0000
  S   S42       1.0  0.35382  0.23155  0.99760  1.0000
  C   C169      1.0  0.26149  0.02471  0.11806  1.0000
  C   C170      1.0  0.16781  0.00912  0.99100  1.0000
  H   H293      1.0  0.23423  0.04003  0.11936  1.0000
  H   H294      1.0  0.17028  0.13352  0.16190  1.0000
  C   C171      1.0  0.28104  0.02809  0.11224  1.0000
  H   H295      1.0  0.38883  0.17414  0.11867  1.0000
  H   H296      1.0  0.41075  0.17670  0.10550  1.0000
  C   C172      1.0  0.35142  0.22222  0.15082  1.0000
  H   H297      1.0  0.07471  0.07525  0.16054  1.0000
  C   C173      1.0  0.39612  0.17980  0.10540  1.0000
  H   H298      1.0  0.03146  0.02982  0.37323  1.0000
  N   N10       1.0  0.36072  0.22443  0.09949  1.0000
  H   H299      1.0  0.07136  0.01607  0.32339  1.0000
  H   H300      1.0  0.38903  0.09094  0.99505  1.0000
  H   H301      1.0  0.30801  0.05191  0.16284  1.0000
  H   H302      1.0  0.05971  0.21335  0.09193  1.0000
  H   H303      1.0  0.36225  0.19569  0.10936  1.0000
  C   C174      1.0  0.49317  0.14943  0.02161  1.0000
  H   H304      1.0  0.12702  0.00368  0.18734  1.0000
  C   C175      1.0  0.08812  0.03296  0.43897  1.0000
  H   H305      1.0  0.37123  0.23414  0.11762  1.0000
  H   H306      1.0  0.02355  0.99245  0.40816  1.0000
  H   H307      1.0  0.39072  0.11398  0.98515  1.0000
  C   C176      1.0  0.03283  0.00592  0.31024  1.0000
  H   H308      1.0  0.15352  0.99162  0.35102  1.0000
  H   H309      1.0  0.46918  0.11470  0.98693  1.0000
  H   H310      1.0  0.31058  0.01722  0.98962  1.0000
  H   H311      1.0  0.16121  0.00160  0.00373  1.0000
  H   H312      1.0  0.12930  0.99535  0.35669  1.0000
  H   H313      1.0  0.17132  0.99699  0.28142  1.0000
  C   C177      1.0  0.16498  0.99769  0.11151  1.0000
  C   C178      1.0  0.46457  0.11505  0.00126  1.0000
  H   H314      1.0  0.14014  0.01131  0.33955  1.0000
  H   H315      1.0  0.17741  0.01573  0.99405  1.0000
  H   H316      1.0  0.09550  0.01032  0.38811  1.0000
  H   H317      1.0  0.11326  0.99965  0.46147  1.0000
  C   C179      1.0  0.21219  0.00767  0.97817  1.0000
  H   H318      1.0  0.14664  0.03266  0.99324  1.0000
  H   H319      1.0  0.37502  0.23158  0.07255  1.0000
  H   H320      1.0  0.08928  0.23154  0.03656  1.0000
  C   C180      1.0  0.38224  0.15528  0.98101  1.0000
  H   H321      1.0  0.38557  0.23446  0.08878  1.0000
  H   H322      1.0  0.14289  0.01791  0.98077  1.0000
  H   H323      1.0  0.00873  0.05568  0.38331  1.0000
  C   C181      1.0  0.29448  0.00094  0.13071  1.0000
  H   H324      1.0  0.21115  0.00571  0.99268  1.0000
  C   C182      1.0  0.08704  0.00066  0.39649  1.0000
  H   H325      1.0  0.39956  0.20446  0.98001  1.0000
  H   H326      1.0  0.13192  0.99978  0.14992  1.0000
  C   C183      1.0  0.30755  0.02936  0.97932  1.0000
  C   C184      1.0  0.18381  0.99930  0.08192  1.0000
  H   H327      1.0  0.36222  0.22891  0.15149  1.0000
  H   H328      1.0  0.06021  0.04679  0.43951  1.0000
  H   H329      1.0  0.39179  0.23492  0.98524  1.0000
  H   H330      1.0  0.10824  0.00917  0.41569  1.0000
  C   C185      1.0  0.14160  0.99793  0.18639  1.0000
  H   H331      1.0  0.17398  0.99358  0.07796  1.0000
  C   C186      1.0  0.99770  0.13194  0.23309  1.0000
  H   H332      1.0  0.28995  0.05571  0.97934  1.0000
  H   H333      1.0  0.20489  0.98999  0.26653  1.0000
  H   H334      1.0  0.07436  0.00323  0.39147  1.0000
  H   H335      1.0  0.00102  0.14016  0.28729  1.0000
  C   C187      1.0  0.17701  0.99601  0.97807  1.0000
  H   H336      1.0  0.28330  0.99151  0.10732  1.0000
  H   H337      1.0  0.36864  0.15921  0.97867  1.0000
  Fe  Fe23      1.0  0.99947  0.18538  0.17938  1.0000
  Fe  Fe24      1.0  0.25274  0.99061  0.05139  1.0000
  H   H338      1.0  0.06918  0.04743  0.45835  1.0000
  C   C188      1.0  0.08266  0.00276  0.41583  1.0000
  H   H339      1.0  0.09100  0.03442  0.42438  1.0000
  H   H340      1.0  0.00113  0.03463  0.39169  1.0000
  C   C189      1.0  0.14133  0.99305  0.13949  1.0000
  H   H341      1.0  0.49280  0.16193  0.01137  1.0000
  H   H342      1.0  0.12049  0.01036  0.43941  1.0000
  H   H343      1.0  0.07508  0.01663  0.41634  1.0000
  C   C190      1.0  0.11507  0.99835  0.44745  1.0000
  H   H344      1.0  0.07587  0.06122  0.43706  1.0000
  H   H345      1.0  0.07013  0.01371  0.44699  1.0000
  N   N11       1.0  0.09734  0.99830  0.44308  1.0000
  C   C191      1.0  0.08378  0.01425  0.44858  1.0000
  H   H346      1.0  0.09997  0.03518  0.44297  1.0000
  H   H347      1.0  0.07368  0.99339  0.42343  1.0000
  H   H348      1.0  0.08240  0.01382  0.46295  1.0000
  H   H349      1.0  0.99485  0.06196  0.31934  1.0000
  H   H350      1.0  0.99573  0.23673  0.24422  1.0000
  C   C192      1.0  0.48346  0.15502  0.96328  1.0000
  C   C193      1.0  0.49313  0.16383  0.97078  1.0000
  H   H351      1.0  0.33348  0.04442  0.81988  1.0000
  Fe  Fe25      1.0  0.43804  0.10236  0.91641  1.0000
  S   S43       1.0  0.42023  0.12800  0.90639  1.0000
  S   S44       1.0  0.43439  0.07627  0.90918  1.0000
  Fe  Fe26      1.0  0.45830  0.12380  0.93355  1.0000
  S   S45       1.0  0.44078  0.14984  0.92398  1.0000
  Fe  Fe27      1.0  0.41824  0.13461  0.93279  1.0000
  C   C194      1.0  0.48806  0.20862  0.86272  1.0000
  Fe  Fe28      1.0  0.44494  0.14007  0.89879  1.0000
  S   S46       1.0  0.45261  0.15584  0.87137  1.0000
  S   S47       1.0  0.43506  0.10852  0.94379  1.0000
  S   S48       1.0  0.46342  0.11434  0.90739  1.0000
  Fe  Fe29      1.0  0.36463  0.99179  0.88034  1.0000
  S   S49       1.0  0.38758  0.01603  0.83603  1.0000
  H   H352      1.0  0.32960  0.20191  0.96444  1.0000
  C   C195      1.0  0.29210  0.02276  0.93130  1.0000
  S   S50       1.0  0.35231  0.01872  0.86627  1.0000
  H   H353      1.0  0.31352  0.99011  0.97304  1.0000
  Fe  Fe30      1.0  0.36122  0.00597  0.84185  1.0000
  S   S51       1.0  0.34427  0.00717  0.82073  1.0000
  Fe  Fe31      1.0  0.37991  0.02557  0.86226  1.0000
  S   S52       1.0  0.38369  0.05213  0.86825  1.0000
  H   H354      1.0  0.47046  0.20266  0.88755  1.0000
  C   C196      1.0  0.31930  0.99405  0.78663  1.0000
  H   H355      1.0  0.35421  0.03769  0.79186  1.0000
  H   H356      1.0  0.49178  0.10842  0.83561  1.0000
  H   H357      1.0  0.36942  0.18786  0.91539  1.0000
  C   C197      1.0  0.39618  0.14846  0.96818  1.0000
  H   H358      1.0  0.42457  0.13783  0.96161  1.0000
  H   H359      1.0  0.24137  0.00292  0.97409  1.0000
  S   S53       1.0  0.48130  0.12704  0.94636  1.0000
  C   C198      1.0  0.39141  0.19690  0.92155  1.0000
  H   H360      1.0  0.29811  0.01203  0.90714  1.0000
  C   C199      1.0  0.23024  0.01312  0.96912  1.0000
  C   C200      1.0  0.41938  0.06964  0.89870  1.0000
  C   C201      1.0  0.42229  0.05165  0.89661  1.0000
  C   C202      1.0  0.41155  0.04600  0.88761  1.0000
  C   C203      1.0  0.39755  0.05824  0.88040  1.0000
  C   C204      1.0  0.39450  0.07618  0.88267  1.0000
  C   C205      1.0  0.40514  0.08177  0.89182  1.0000
  H   H361      1.0  0.43309  0.04196  0.90188  1.0000
  H   H362      1.0  0.41424  0.03216  0.88615  1.0000
  H   H363      1.0  0.38372  0.08588  0.87741  1.0000
  H   H364      1.0  0.40229  0.09549  0.89360  1.0000
  C   C206      1.0  0.43750  0.21682  0.86392  1.0000
  C   C207      1.0  0.44281  0.20843  0.84929  1.0000
  C   C208      1.0  0.44738  0.18968  0.85175  1.0000
  C   C209      1.0  0.44619  0.17924  0.86884  1.0000
  C   C210      1.0  0.44038  0.18761  0.88350  1.0000
  C   C211      1.0  0.43617  0.20643  0.88105  1.0000
  H   H365      1.0  0.44378  0.21645  0.83604  1.0000
  H   H366      1.0  0.45183  0.18327  0.84038  1.0000
  H   H367      1.0  0.43928  0.17965  0.89668  1.0000
  H   H368      1.0  0.43191  0.21288  0.89236  1.0000
  H   H369      1.0  0.17966  0.00409  0.96439  1.0000
  H   H370      1.0  0.43130  0.13480  0.86064  1.0000
  H   H371      1.0  0.43317  0.10252  0.83034  1.0000
  H   H372      1.0  0.23058  0.02615  0.97216  1.0000
  C   C212      1.0  0.32789  0.00288  0.79490  1.0000
  H   H373      1.0  0.35509  0.20065  0.93865  1.0000
  H   H374      1.0  0.41154  0.00070  0.78886  1.0000
  H   H375      1.0  0.47388  0.09130  0.83070  1.0000
  H   H376      1.0  0.33043  0.01615  0.78851  1.0000
  H   H377      1.0  0.23237  0.01462  0.95452  1.0000
  H   H378      1.0  0.47621  0.16422  0.92775  1.0000
  C   C213      1.0  0.28234  0.09585  0.81788  1.0000
  H   H379      1.0  0.48658  0.17620  0.97529  1.0000
  H   H380      1.0  0.44049  0.19259  0.92141  1.0000
  C   C214      1.0  0.39318  0.18186  0.89601  1.0000
  H   H381      1.0  0.25928  0.00865  0.85408  1.0000
  H   H382      1.0  0.46877  0.17494  0.90787  1.0000
  H   H383      1.0  0.46954  0.16065  0.96245  1.0000
  H   H384      1.0  0.48012  0.18382  0.87706  1.0000
  S   S54       1.0  0.39192  0.14677  0.94807  1.0000
  H   H385      1.0  0.44079  0.20459  0.93795  1.0000
  C   C215      1.0  0.37242  0.22695  0.92493  1.0000
  H   H386      1.0  0.48971  0.13822  0.85571  1.0000
  H   H387      1.0  0.46409  0.07786  0.81036  1.0000
  H   H388      1.0  0.44552  0.18035  0.94276  1.0000
  H   H389      1.0  0.15931  0.03226  0.97109  1.0000
  H   H390      1.0  0.32173  0.03970  0.93911  1.0000
  C   C216      1.0  0.46685  0.11642  0.85467  1.0000
  H   H391      1.0  0.31355  0.03385  0.87974  1.0000
  H   H392      1.0  0.36160  0.22581  0.91859  1.0000
  H   H393      1.0  0.46076  0.12928  0.84677  1.0000
  H   H394      1.0  0.25813  0.01093  0.82335  1.0000
  C   C217      1.0  0.49382  0.13193  0.84385  1.0000
  C   C218      1.0  0.46058  0.09983  0.83486  1.0000
  C   C219      1.0  0.45177  0.08851  0.81127  1.0000
  N   N12       1.0  0.32792  0.06829  0.83090  1.0000
  H   H395      1.0  0.40071  0.13867  0.85469  1.0000
  H   H396      1.0  0.31980  0.03529  0.97391  1.0000
  H   H397      1.0  0.39190  0.18592  0.96423  1.0000
  C   C220      1.0  0.43867  0.10555  0.86290  1.0000
  H   H398      1.0  0.46543  0.08579  0.87866  1.0000
  H   H399      1.0  0.40349  0.12384  0.87543  1.0000
  H   H400      1.0  0.40361  0.11475  0.85641  1.0000
  C   C221      1.0  0.46734  0.08432  0.86463  1.0000
  H   H401      1.0  0.38919  0.99976  0.80173  1.0000
  H   H402      1.0  0.27790  0.02822  0.83098  1.0000
  H   H403      1.0  0.28764  0.01855  0.85041  1.0000
  C   C222      1.0  0.48570  0.23785  0.93984  1.0000
  C   C223      1.0  0.30529  0.00770  0.94104  1.0000
  C   C224      1.0  0.41040  0.19846  0.97005  1.0000
  H   H404      1.0  0.29733  0.99748  0.94937  1.0000
  H   H405      1.0  0.29271  0.04965  0.87742  1.0000
  H   H406      1.0  0.46829  0.20535  0.91540  1.0000
  C   C225      1.0  0.33814  0.02133  0.92290  1.0000
  C   C226      1.0  0.29633  0.08852  0.82971  1.0000
  H   H407      1.0  0.27830  0.99014  0.85318  1.0000
  H   H408      1.0  0.35405  0.10463  0.84251  1.0000
  H   H409      1.0  0.47285  0.19307  0.93673  1.0000
  H   H410      1.0  0.27675  0.02718  0.91064  1.0000
  H   H411      1.0  0.31785  0.08389  0.80758  1.0000
  C   C227      1.0  0.40341  0.99251  0.79988  1.0000
  C   C228      1.0  0.47697  0.17626  0.91693  1.0000
  N   N13       1.0  0.45819  0.10133  0.85398  1.0000
  H   H412      1.0  0.37047  0.18523  0.95059  1.0000
  H   H413      1.0  0.36178  0.06861  0.80485  1.0000
  C   C229      1.0  0.46155  0.06674  0.86467  1.0000
  H   H414      1.0  0.37178  0.05041  0.78205  1.0000
  H   H415      1.0  0.21108  0.99420  0.95822  1.0000
  H   H416      1.0  0.21143  0.00810  0.86851  1.0000
  C   C230      1.0  0.46715  0.19280  0.92528  1.0000
  H   H417      1.0  0.43138  0.09512  0.86265  1.0000
  C   C231      1.0  0.38112  0.19419  0.90825  1.0000
  H   H418      1.0  0.43758  0.10505  0.87728  1.0000
  H   H419      1.0  0.44282  0.08005  0.83915  1.0000
  H   H420      1.0  0.48794  0.14135  0.83285  1.0000
  H   H421      1.0  0.29683  0.00950  0.83063  1.0000
  C   C232      1.0  0.40772  0.12534  0.86083  1.0000
  S   S55       1.0  0.48195  0.23253  0.92096  1.0000
  C   C233      1.0  0.42805  0.12426  0.85540  1.0000
  H   H422      1.0  0.46574  0.03856  0.87728  1.0000
  H   H423      1.0  0.44681  0.06784  0.86869  1.0000
  C   C234      1.0  0.44593  0.09250  0.82997  1.0000
  H   H424      1.0  0.32858  0.02483  0.91372  1.0000
  H   H425      1.0  0.36557  0.23582  0.93460  1.0000
  C   C235      1.0  0.44724  0.19246  0.93224  1.0000
  C   C236      1.0  0.28418  0.01550  0.83885  1.0000
  C   C237      1.0  0.36328  0.09331  0.83686  1.0000
  H   H426      1.0  0.45443  0.10083  0.80141  1.0000
  C   C238      1.0  0.30092  0.02447  0.96448  1.0000
  H   H427      1.0  0.40415  0.18842  0.88725  1.0000
  H   H428      1.0  0.37628  0.20714  0.89978  1.0000
  H   H429      1.0  0.38517  0.17906  0.88754  1.0000
  H   H430      1.0  0.40451  0.21733  0.93616  1.0000
  H   H431      1.0  0.35040  0.04562  0.83053  1.0000
  H   H432      1.0  0.38602  0.22128  0.95351  1.0000
  H   H433      1.0  0.29880  0.04942  0.84533  1.0000
  H   H434      1.0  0.27064  0.10469  0.82457  1.0000
  H   H435      1.0  0.43160  0.12765  0.84075  1.0000
  H   H436      1.0  0.46412  0.11864  0.86851  1.0000
  C   C239      1.0  0.36562  0.19989  0.94621  1.0000
  H   H437      1.0  0.36510  0.20543  0.97236  1.0000
  H   H438      1.0  0.20161  0.01905  0.97383  1.0000
  H   H439      1.0  0.39908  0.16888  0.90382  1.0000
  C   C240      1.0  0.26575  0.99806  0.82967  1.0000
  H   H440      1.0  0.22785  0.99774  0.81178  1.0000
  C   C241      1.0  0.33978  0.19918  0.97289  1.0000
  C   C242      1.0  0.48753  0.11404  0.84787  1.0000
  H   H441      1.0  0.48150  0.15060  0.89796  1.0000
  C   C243      1.0  0.39315  0.21137  0.94500  1.0000
  H   H442      1.0  0.29467  0.03737  0.95677  1.0000
  C   C244      1.0  0.34091  0.05400  0.82191  1.0000
  H   H443      1.0  0.36370  0.06648  0.83457  1.0000
  C   C245      1.0  0.35374  0.07759  0.83982  1.0000
  H   H444      1.0  0.31912  0.03302  0.84729  1.0000
  H   H445      1.0  0.30033  0.10017  0.83229  1.0000
  H   H446      1.0  0.33230  0.05385  0.85685  1.0000
  C   C246      1.0  0.47027  0.05094  0.87743  1.0000
  H   H447      1.0  0.36827  0.09795  0.82251  1.0000
  H   H448      1.0  0.37500  0.08892  0.84358  1.0000
  H   H449      1.0  0.34347  0.06948  0.79440  1.0000
  H   H450      1.0  0.27747  0.08468  0.81526  1.0000
  H   H451      1.0  0.28959  0.08123  0.84245  1.0000
  H   H452      1.0  0.36336  0.02880  0.92292  1.0000
  C   C247      1.0  0.32836  0.02526  0.94149  1.0000
  C   C248      1.0  0.31281  0.07599  0.82078  1.0000
  H   H453      1.0  0.32744  0.09334  0.83824  1.0000
  H   H454      1.0  0.29576  0.02721  0.87367  1.0000
  C   C249      1.0  0.30263  0.03858  0.87199  1.0000
  H   H455      1.0  0.40383  0.20188  0.91400  1.0000
  H   H456      1.0  0.40865  0.99091  0.81209  1.0000
  H   H457      1.0  0.27942  0.00466  0.92353  1.0000
  H   H458      1.0  0.34969  0.07315  0.85435  1.0000
  C   C250      1.0  0.33698  0.08328  0.83099  1.0000
  H   H459      1.0  0.30780  0.06506  0.81782  1.0000
  C   C251      1.0  0.28628  0.01622  0.91730  1.0000
  H   H460      1.0  0.46106  0.11319  0.82593  1.0000
  H   H461      1.0  0.34083  0.09085  0.81727  1.0000
  C   C252      1.0  0.36322  0.04520  0.79475  1.0000
  H   H462      1.0  0.31530  0.00082  0.77418  1.0000
  C   C253      1.0  0.24215  0.99519  0.80497  1.0000
  H   H463      1.0  0.39637  0.18325  0.92889  1.0000
  C   C254      1.0  0.35220  0.06081  0.80353  1.0000
  H   H464      1.0  0.37209  0.03585  0.80343  1.0000
  C   C255      1.0  0.31025  0.04485  0.85235  1.0000
  H   H465      1.0  0.46626  0.05343  0.89118  1.0000
  H   H466      1.0  0.24731  0.00782  0.80201  1.0000
  H   H467      1.0  0.31259  0.07041  0.85728  1.0000
  H   H468      1.0  0.48516  0.04869  0.87347  1.0000
  H   H469      1.0  0.41952  0.20809  0.96367  1.0000
  C   C256      1.0  0.32095  0.05994  0.84981  1.0000
  H   H470      1.0  0.27973  0.02702  0.94090  1.0000
  C   C257      1.0  0.48305  0.19572  0.88014  1.0000
  N   N14       1.0  0.38069  0.20876  0.93440  1.0000
  H   H471      1.0  0.29830  0.03467  0.92479  1.0000
  H   H472      1.0  0.28813  0.10386  0.80507  1.0000
  C   C258      1.0  0.33322  0.99481  0.81119  1.0000
  H   H473      1.0  0.41239  0.18570  0.94825  1.0000
  C   C259      1.0  0.35295  0.03228  0.91462  1.0000
  H   H474      1.0  0.31491  0.00072  0.93095  1.0000
  H   H475      1.0  0.33884  0.02453  0.94913  1.0000
  C   C260      1.0  0.35591  0.20781  0.96298  1.0000
  H   H476      1.0  0.48209  0.08178  0.85959  1.0000
  H   H477      1.0  0.35089  0.22246  0.95950  1.0000
  N   N15       1.0  0.31496  0.01367  0.95228  1.0000
  C   C261      1.0  0.40190  0.19408  0.95661  1.0000
  H   H478      1.0  0.34726  0.04690  0.91301  1.0000
  H   H479      1.0  0.49039  0.22112  0.86535  1.0000
  C   C262      1.0  0.27126  0.00232  0.84539  1.0000
  H   H480      1.0  0.46600  0.06334  0.85129  1.0000
  H   H481      1.0  0.35959  0.02925  0.90132  1.0000
  C   C263      1.0  0.41369  0.14307  0.97139  1.0000
  S   S56       1.0  0.39133  0.99904  0.87772  1.0000
  H   H482      1.0  0.47689  0.21232  0.85534  1.0000
  H   H483      1.0  0.44091  0.08370  0.80800  1.0000
  C   C264      1.0  0.49187  0.13905  0.95681  1.0000
  H   H484      1.0  0.39361  0.22970  0.90063  1.0000
  H   H485      1.0  0.23460  0.00207  0.77922  1.0000
  H   H486      1.0  0.34443  0.00706  0.92351  1.0000
  C   C265      1.0  0.32397  0.99724  0.96377  1.0000
  H   H487      1.0  0.27826  0.99490  0.81969  1.0000
  H   H488      1.0  0.23109  0.00362  0.83941  1.0000
  H   H489      1.0  0.33128  0.00111  0.97224  1.0000
  C   C266      1.0  0.38562  0.23754  0.91080  1.0000
  H   H490      1.0  0.28968  0.01722  0.97107  1.0000
  C   C267      1.0  0.21370  0.99324  0.87248  1.0000
  H   H491      1.0  0.30527  0.99032  0.86792  1.0000
  C   C268      1.0  0.21051  0.99054  0.97274  1.0000
  H   H492      1.0  0.33484  0.98977  0.87388  1.0000
  C   C269      1.0  0.24261  0.99070  0.78718  1.0000
  H   H493      1.0  0.24231  0.98976  0.86956  1.0000
  H   H494      1.0  0.21167  0.98952  0.88716  1.0000
  H   H495      1.0  0.34407  0.18446  0.97706  1.0000
  H   H496      1.0  0.41808  0.18596  0.97697  1.0000
  H   H497      1.0  0.38338  0.26252  0.05703  1.0000
  C   C270      1.0  0.37862  0.26696  0.06996  1.0000
  H   H498      1.0  0.00573  0.34211  0.35009  1.0000
  H   H499      1.0  0.39034  0.26487  0.07637  1.0000
  H   H500      1.0  0.37274  0.28153  0.06741  1.0000
  H   H501      1.0  0.35967  0.26165  0.09436  1.0000
  H   H502      1.0  0.35308  0.25950  0.07474  1.0000
  C   C271      1.0  0.36443  0.25652  0.08183  1.0000
  H   H503      1.0  0.34776  0.24117  0.11880  1.0000
  H   H504      1.0  0.01333  0.34497  0.32641  1.0000
  C   C272      1.0  0.36533  0.24459  0.97900  1.0000
  C   C273      1.0  0.00123  0.34583  0.33719  1.0000
  H   H505      1.0  0.33601  0.24217  0.09345  1.0000
  H   H506      1.0  0.99779  0.31939  0.33737  1.0000
  H   H507      1.0  0.47694  0.35464  0.89907  1.0000
  H   H508      1.0  0.46550  0.32640  0.75545  1.0000
  C   C274      1.0  0.45088  0.36964  0.89332  1.0000
  C   C275      1.0  0.43176  0.28925  0.83738  1.0000
  H   H509      1.0  0.46468  0.26045  0.83436  1.0000
  C   C276      1.0  0.47249  0.31608  0.76518  1.0000
  C   C277      1.0  0.45514  0.31762  0.82200  1.0000
  C   C278      1.0  0.49085  0.29530  0.91565  1.0000
  C   C279      1.0  0.48694  0.42660  0.88610  1.0000
  H   H510      1.0  0.34090  0.25711  0.96933  1.0000
  N   N16       1.0  0.45675  0.34087  0.91725  1.0000
  H   H511      1.0  0.47744  0.33034  0.80467  1.0000
  H   H512      1.0  0.40613  0.29267  0.82928  1.0000
  H   H513      1.0  0.46797  0.26363  0.93769  1.0000
  C   C280      1.0  0.45190  0.35173  0.93166  1.0000
  Fe  Fe32      1.0  0.44815  0.28524  0.88529  1.0000
  H   H514      1.0  0.43849  0.36689  0.89086  1.0000
  S   S57       1.0  0.46337  0.25822  0.88034  1.0000
  H   H515      1.0  0.40730  0.27947  0.85115  1.0000
  C   C281      1.0  0.48114  0.25846  0.95973  1.0000
  C   C282      1.0  0.38247  0.26510  0.94810  1.0000
  H   H516      1.0  0.41100  0.30616  0.94132  1.0000
  C   C283      1.0  0.47929  0.31027  0.86435  1.0000
  H   H517      1.0  0.47469  0.27115  0.96367  1.0000
  H   H518      1.0  0.44277  0.30802  0.93353  1.0000
  C   C284      1.0  0.47009  0.30100  0.79760  1.0000
  H   H519      1.0  0.48560  0.28161  0.86684  1.0000
  H   H520      1.0  0.49374  0.28539  0.90692  1.0000
  H   H521      1.0  0.46759  0.31753  0.93548  1.0000
  H   H522      1.0  0.44931  0.31610  0.83638  1.0000
  H   H523      1.0  0.48535  0.28885  0.92932  1.0000
  H   H524      1.0  0.47761  0.33886  0.86015  1.0000
  H   H525      1.0  0.46668  0.28766  0.84256  1.0000
  H   H526      1.0  0.47781  0.40428  0.90523  1.0000
  S   S58       1.0  0.45594  0.31166  0.87076  1.0000
  H   H527      1.0  0.44913  0.34286  0.94489  1.0000
  S   S59       1.0  0.44479  0.27755  0.91476  1.0000
  H   H528      1.0  0.45441  0.35487  0.81590  1.0000
  H   H529      1.0  0.47509  0.30289  0.76117  1.0000
  H   H530      1.0  0.47552  0.43639  0.89077  1.0000
  H   H531      1.0  0.46623  0.48102  0.81138  1.0000
  H   H532      1.0  0.41727  0.31212  0.91760  1.0000
  C   C285      1.0  0.47076  0.32784  0.81880  1.0000
  H   H533      1.0  0.48840  0.46849  0.81394  1.0000
  C   C286      1.0  0.35533  0.25608  0.96685  1.0000
  C   C287      1.0  0.47730  0.25419  0.94502  1.0000
  H   H534      1.0  0.35588  0.27560  0.94251  1.0000
  C   C288      1.0  0.46075  0.31545  0.78370  1.0000
  H   H535      1.0  0.42889  0.34658  0.91466  1.0000
  C   C289      1.0  0.47734  0.31162  0.90897  1.0000
  H   H536      1.0  0.40707  0.25262  0.95759  1.0000
  C   C290      1.0  0.48645  0.32592  0.86008  1.0000
  H   H537      1.0  0.40458  0.32904  0.93024  1.0000
  H   H538      1.0  0.48553  0.31969  0.76480  1.0000
  C   C291      1.0  0.39266  0.25348  0.96010  1.0000
  C   C292      1.0  0.41540  0.31687  0.93016  1.0000
  H   H539      1.0  0.49110  0.25759  0.84869  1.0000
  H   H540      1.0  0.46580  0.30673  0.90730  1.0000
  Fe  Fe33      1.0  0.43660  0.25171  0.88231  1.0000
  C   C293      1.0  0.46629  0.36208  0.93241  1.0000
  C   C294      1.0  0.36382  0.26647  0.95162  1.0000
  H   H541      1.0  0.38536  0.26242  0.89143  1.0000
  Fe  Fe34      1.0  0.41957  0.26908  0.91402  1.0000
  H   H542      1.0  0.36780  0.26370  0.91078  1.0000
  H   H543      1.0  0.44777  0.31239  0.78315  1.0000
  H   H544      1.0  0.46385  0.37224  0.86541  1.0000
  Fe  Fe35      1.0  0.45828  0.24996  0.90985  1.0000
  H   H545      1.0  0.44236  0.32923  0.90398  1.0000
  H   H546      1.0  0.47237  0.38372  0.87794  1.0000
  H   H547      1.0  0.42708  0.30174  0.84280  1.0000
  C   C295      1.0  0.41499  0.28241  0.83738  1.0000
  C   C296      1.0  0.46386  0.34608  0.82431  1.0000
  S   S60       1.0  0.39217  0.27899  0.92907  1.0000
  C   C297      1.0  0.44321  0.29270  0.81840  1.0000
  N   N17       1.0  0.46017  0.29957  0.81660  1.0000
  H   H548      1.0  0.43911  0.36163  0.93062  1.0000
  H   H549      1.0  0.41878  0.26982  0.83208  1.0000
  C   C298      1.0  0.46007  0.38021  0.87605  1.0000
  H   H550      1.0  0.47220  0.28807  0.79323  1.0000
  H   H551      1.0  0.48107  0.32010  0.82666  1.0000
  H   H552      1.0  0.45077  0.39287  0.87177  1.0000
  C   C299      1.0  0.47146  0.32505  0.92174  1.0000
  C   C300      1.0  0.47231  0.28694  0.82838  1.0000
  H   H553      1.0  0.43224  0.47178  0.88627  1.0000
  C   C301      1.0  0.44014  0.33484  0.91615  1.0000
  C   C302      1.0  0.46355  0.35179  0.89948  1.0000
  H   H554      1.0  0.44690  0.37839  0.90325  1.0000
  H   H555      1.0  0.43953  0.27911  0.84653  1.0000
  H   H556      1.0  0.43412  0.30245  0.81016  1.0000
  H   H557      1.0  0.47896  0.26500  0.81313  1.0000
  H   H558      1.0  0.48410  0.31806  0.89585  1.0000
  C   C303      1.0  0.43293  0.32089  0.93223  1.0000
  H   H559      1.0  0.44634  0.28005  0.81321  1.0000
  S   S61       1.0  0.43268  0.24065  0.91153  1.0000
  S   S62       1.0  0.42166  0.27944  0.88485  1.0000
  H   H560      1.0  0.46589  0.34389  0.88897  1.0000
  H   H561      1.0  0.44421  0.32654  0.81543  1.0000
  H   H562      1.0  0.45813  0.32907  0.78670  1.0000
  H   H563      1.0  0.36624  0.25219  0.89407  1.0000
  H   H564      1.0  0.43014  0.32588  0.94475  1.0000
  H   H565      1.0  0.45685  0.34442  0.83841  1.0000
  H   H566      1.0  0.48389  0.30343  0.79629  1.0000
  C   C304      1.0  0.37554  0.25500  0.90121  1.0000
  H   H567      1.0  0.46854  0.37247  0.92028  1.0000
  C   C305      1.0  0.49088  0.29367  0.86377  1.0000
  C   C306      1.0  0.48822  0.40841  0.89427  1.0000
  H   H568      1.0  0.48547  0.29126  0.82557  1.0000
  C   C307      1.0  0.47954  0.48198  0.81338  1.0000
  C   C308      1.0  0.47632  0.26681  0.82698  1.0000
  H   H569      1.0  0.47536  0.35274  0.82278  1.0000
  H   H570      1.0  0.44754  0.38147  0.94706  1.0000
  C   C309      1.0  0.38401  0.24347  0.97576  1.0000
  H   H571      1.0  0.47232  0.47789  0.84157  1.0000
  C   C310      1.0  0.46035  0.37168  0.94809  1.0000
  H   H572      1.0  0.45647  0.46700  0.88095  1.0000
  H   H573      1.0  0.45854  0.36184  0.96079  1.0000
  H   H574      1.0  0.47082  0.37910  0.94812  1.0000
  H   H575      1.0  0.47934  0.35293  0.93381  1.0000
  C   C311      1.0  0.49323  0.24626  0.96940  1.0000
  H   H576      1.0  0.48387  0.32970  0.92167  1.0000
  C   C312      1.0  0.44445  0.47770  0.88356  1.0000
  H   H577      1.0  0.39489  0.24131  0.91723  1.0000
  H   H578      1.0  0.44483  0.48259  0.89547  1.0000
  H   H579      1.0  0.44325  0.48755  0.85617  1.0000
  C   C313      1.0  0.49284  0.25640  0.83471  1.0000
  H   H580      1.0  0.49116  0.48886  0.83210  1.0000
  C   C314      1.0  0.47759  0.48829  0.83064  1.0000
  S   S63       1.0  0.43305  0.24029  0.86033  1.0000
  H   H581      1.0  0.01720  0.66912  0.41737  1.0000
  C   C315      1.0  0.00595  0.73749  0.40335  1.0000
  C   C316      1.0  0.02180  0.67921  0.43832  1.0000
  H   H582      1.0  0.00869  0.69292  0.41673  1.0000
  C   C317      1.0  0.01002  0.67941  0.42539  1.0000
  H   H583      1.0  0.03529  0.68157  0.43087  1.0000
  H   H584      1.0  0.01570  0.68995  0.44612  1.0000
  H   H585      1.0  0.02352  0.66601  0.44759  1.0000
  H   H586      1.0  0.01221  0.72431  0.39953  1.0000
  H   H587      1.0  0.00105  0.68969  0.39295  1.0000
  H   H588      1.0  0.99939  0.65904  0.40670  1.0000
  H   H589      1.0  0.02003  0.73181  0.42489  1.0000
  H   H590      1.0  0.00572  0.60964  0.47348  1.0000
  C   C318      1.0  0.99988  0.62260  0.47708  1.0000
  H   H591      1.0  0.99464  0.64370  0.38509  1.0000
  C   C319      1.0  0.46230  0.69974  0.65612  1.0000
  H   H592      1.0  0.37146  0.67608  0.75388  1.0000
  N   N18       1.0  0.16243  0.73715  0.66544  1.0000
  H   H593      1.0  0.34441  0.69856  0.76364  1.0000
  C   C320      1.0  0.46846  0.69038  0.78715  1.0000
  C   C321      1.0  0.48123  0.53220  0.85850  1.0000
  C   C322      1.0  0.18205  0.73386  0.68851  1.0000
  C   C323      1.0  0.39988  0.70237  0.78641  1.0000
  H   H594      1.0  0.40498  0.70135  0.73091  1.0000
  C   C324      1.0  0.08632  0.72807  0.56507  1.0000
  N   N19       1.0  0.46339  0.51524  0.84647  1.0000
  Fe  Fe36      1.0  0.46118  0.58503  0.76275  1.0000
  S   S64       1.0  0.46139  0.55632  0.77683  1.0000
  Fe  Fe37      1.0  0.44146  0.62062  0.74467  1.0000
  S   S65       1.0  0.46585  0.63353  0.73661  1.0000
  S   S66       1.0  0.41390  0.63624  0.74103  1.0000
  Fe  Fe38      1.0  0.46996  0.62059  0.76419  1.0000
  S   S67       1.0  0.47960  0.63129  0.78327  1.0000
  S   S68       1.0  0.45554  0.59499  0.73529  1.0000
  S   S69       1.0  0.44472  0.60939  0.77284  1.0000
  H   H595      1.0  0.35281  0.66568  0.69102  1.0000
  Fe  Fe39      1.0  0.99652  0.68476  0.55176  1.0000
  C   C325      1.0  0.37132  0.69056  0.74843  1.0000
  C   C326      1.0  0.13490  0.70372  0.65978  1.0000
  S   S70       1.0  0.02400  0.66901  0.54279  1.0000
  C   C327      1.0  0.48918  0.53058  0.78795  1.0000
  Fe  Fe40      1.0  0.03335  0.69558  0.53826  1.0000
  S   S71       1.0  0.05890  0.70162  0.54441  1.0000
  S   S72       1.0  0.00598  0.71049  0.54897  1.0000
  C   C328      1.0  0.00333  0.64772  0.48882  1.0000
  H   H596      1.0  0.00024  0.61779  0.55102  1.0000
  S   S73       1.0  0.40385  0.72144  0.63435  1.0000
  S   S74       1.0  0.01780  0.65716  0.49735  1.0000
  H   H597      1.0  0.49301  0.72396  0.58934  1.0000
  Fe  Fe41      1.0  0.39591  0.70397  0.66064  1.0000
  S   S75       1.0  0.40653  0.67436  0.66255  1.0000
  C   C329      1.0  0.01018  0.63092  0.48393  1.0000
  Fe  Fe42      1.0  0.48033  0.60673  0.72976  1.0000
  Fe  Fe43      1.0  0.37563  0.73689  0.63920  1.0000
  H   H598      1.0  0.39048  0.67107  0.78226  1.0000
  S   S76       1.0  0.15738  0.70999  0.60729  1.0000
  C   C330      1.0  0.43100  0.68787  0.73571  1.0000
  H   H599      1.0  0.21125  0.72056  0.62217  1.0000
  Fe  Fe44      1.0  0.37541  0.73560  0.67772  1.0000
  C   C331      1.0  0.48325  0.71987  0.64944  1.0000
  C   C332      1.0  0.34639  0.73426  0.61560  1.0000
  S   S77       1.0  0.22042  0.69004  0.65008  1.0000
  C   C333      1.0  0.33636  0.71627  0.60024  1.0000
  C   C334      1.0  0.17575  0.70462  0.61805  1.0000
  C   C335      1.0  0.17819  0.68827  0.63003  1.0000
  C   C336      1.0  0.19205  0.68388  0.63964  1.0000
  C   C337      1.0  0.20390  0.69558  0.63698  1.0000
  C   C338      1.0  0.20198  0.71160  0.62441  1.0000
  C   C339      1.0  0.18784  0.71617  0.61499  1.0000
  H   H600      1.0  0.16911  0.67912  0.63220  1.0000
  H   H601      1.0  0.19359  0.67140  0.64918  1.0000
  C   C340      1.0  0.46260  0.68569  0.77379  1.0000
  H   H602      1.0  0.48648  0.60359  0.67364  1.0000
  C   C341      1.0  0.06386  0.71496  0.55768  1.0000
  C   C342      1.0  0.08161  0.71778  0.55501  1.0000
  H   H603      1.0  0.44861  0.68333  0.60075  1.0000
  H   H604      1.0  0.06389  0.72415  0.49705  1.0000
  H   H605      1.0  0.43548  0.71182  0.65258  1.0000
  Fe  Fe45      1.0  0.00171  0.71560  0.52113  1.0000
  H   H606      1.0  0.09184  0.71201  0.54496  1.0000
  H   H607      1.0  0.42976  0.56670  0.84439  1.0000
  H   H608      1.0  0.44640  0.65725  0.64692  1.0000
  H   H609      1.0  0.14920  0.73404  0.64551  1.0000
  H   H610      1.0  0.47563  0.63197  0.66616  1.0000
  H   H611      1.0  0.33855  0.70960  0.58923  1.0000
  H   H612      1.0  0.45578  0.69601  0.76458  1.0000
  H   H613      1.0  0.47818  0.63495  0.69551  1.0000
  H   H614      1.0  0.39956  0.68896  0.79505  1.0000
  C   C343      1.0  0.41614  0.64455  0.79054  1.0000
  C   C344      1.0  0.47975  0.70244  0.65415  1.0000
  H   H615      1.0  0.48146  0.71198  0.57139  1.0000
  H   H616      1.0  0.40719  0.71488  0.75884  1.0000
  S   S78       1.0  0.26611  0.70195  0.65294  1.0000
  C   C345      1.0  0.33930  0.66222  0.69625  1.0000
  H   H617      1.0  0.34427  0.69565  0.63495  1.0000
  S   S79       1.0  0.30401  0.70541  0.61084  1.0000
  C   C346      1.0  0.35076  0.67302  0.65632  1.0000
  C   C347      1.0  0.41191  0.64626  0.71909  1.0000
  C   C348      1.0  0.39655  0.65915  0.71587  1.0000
  C   C349      1.0  0.39510  0.66818  0.69855  1.0000
  C   C350      1.0  0.40863  0.66364  0.68431  1.0000
  C   C351      1.0  0.42371  0.65028  0.68748  1.0000
  C   C352      1.0  0.42553  0.64184  0.70489  1.0000
  H   H618      1.0  0.38585  0.66227  0.72681  1.0000
  H   H619      1.0  0.38337  0.67837  0.69617  1.0000
  H   H620      1.0  0.43414  0.64663  0.67654  1.0000
  H   H621      1.0  0.43738  0.63183  0.70731  1.0000
  C   C353      1.0  0.32440  0.66369  0.65255  1.0000
  H   H622      1.0  0.32995  0.67359  0.70168  1.0000
  H   H623      1.0  0.30672  0.64572  0.66979  1.0000
  C   C354      1.0  0.48659  0.56025  0.79351  1.0000
  C   C355      1.0  0.48033  0.54855  0.78671  1.0000
  H   H624      1.0  0.47550  0.70406  0.70753  1.0000
  S   S80       1.0  0.02923  0.70168  0.50984  1.0000
  H   H625      1.0  0.43110  0.71617  0.82794  1.0000
  H   H626      1.0  0.47967  0.57409  0.79283  1.0000
  H   H627      1.0  0.48443  0.52159  0.78249  1.0000
  C   C356      1.0  0.05092  0.72265  0.57079  1.0000
  H   H628      1.0  0.09992  0.73031  0.56244  1.0000
  H   H629      1.0  0.22737  0.71273  0.59169  1.0000
  H   H630      1.0  0.31778  0.65561  0.68846  1.0000
  H   H631      1.0  0.44859  0.72172  0.69081  1.0000
  C   C357      1.0  0.13913  0.71692  0.66892  1.0000
  C   C358      1.0  0.44402  0.49310  0.86749  1.0000
  C   C359      1.0  0.47706  0.64703  0.68477  1.0000
  H   H632      1.0  0.18629  0.72857  0.60536  1.0000
  Fe  Fe46      1.0  0.27690  0.71636  0.62580  1.0000
  C   C360      1.0  0.35168  0.70018  0.74964  1.0000
  C   C361      1.0  0.08374  0.66649  0.58149  1.0000
  C   C362      1.0  0.45696  0.73462  0.59299  1.0000
  H   H633      1.0  0.19494  0.72876  0.71107  1.0000
  C   C363      1.0  0.33166  0.65761  0.68194  1.0000
  H   H634      1.0  0.08556  0.72764  0.48344  1.0000
  H   H635      1.0  0.46925  0.69782  0.73133  1.0000
  C   C364      1.0  0.23233  0.72092  0.57868  1.0000
  H   H636      1.0  0.47296  0.49120  0.86454  1.0000
  H   H637      1.0  0.24690  0.72047  0.57750  1.0000
  H   H638      1.0  0.02368  0.73492  0.47950  1.0000
  S   S81       1.0  0.23101  0.73474  0.65287  1.0000
  H   H639      1.0  0.47369  0.72008  0.72109  1.0000
  H   H640      1.0  0.47104  0.67121  0.60110  1.0000
  H   H641      1.0  0.48797  0.63206  0.63695  1.0000
  H   H642      1.0  0.31277  0.69547  0.65620  1.0000
  H   H643      1.0  0.44545  0.68874  0.63136  1.0000
  H   H644      1.0  0.30757  0.68619  0.67895  1.0000
  H   H645      1.0  0.08248  0.67841  0.57060  1.0000
  C   C365      1.0  0.46477  0.50679  0.83086  1.0000
  H   H646      1.0  0.42312  0.69625  0.76615  1.0000
  H   H647      1.0  0.09333  0.73562  0.50921  1.0000
  C   C366      1.0  0.33077  0.73361  0.62864  1.0000
  H   H648      1.0  0.37761  0.69229  0.73415  1.0000
  C   C367      1.0  0.15478  0.72586  0.65721  1.0000
  C   C368      1.0  0.38124  0.69841  0.75868  1.0000
  C   C369      1.0  0.29777  0.65560  0.64510  1.0000
  H   H649      1.0  0.29591  0.66906  0.66621  1.0000
  C   C370      1.0  0.45611  0.67814  0.62601  1.0000
  S   S82       1.0  0.26286  0.73670  0.68336  1.0000
  C   C371      1.0  0.44902  0.66063  0.63224  1.0000
  H   H650      1.0  0.46803  0.67631  0.63199  1.0000
  S   S83       1.0  0.40368  0.72007  0.67646  1.0000
  H   H651      1.0  0.37317  0.69781  0.77237  1.0000
  H   H652      1.0  0.46985  0.54377  0.85934  1.0000
  H   H653      1.0  0.12677  0.72733  0.67097  1.0000
  H   H654      1.0  0.43768  0.66874  0.71807  1.0000
  C   C372      1.0  0.47748  0.67699  0.79889  1.0000
  C   C373      1.0  0.43234  0.56143  0.83202  1.0000
  C   C374      1.0  0.43931  0.68255  0.71771  1.0000
  H   H655      1.0  0.42458  0.70425  0.79362  1.0000
  H   H656      1.0  0.46446  0.73591  0.57915  1.0000
  N   N20       1.0  0.46820  0.70002  0.59759  1.0000
  H   H657      1.0  0.30439  0.71363  0.69072  1.0000
  S   S84       1.0  0.46544  0.71267  0.78970  1.0000
  H   H658      1.0  0.33589  0.69757  0.68185  1.0000
  N   N21       1.0  0.11030  0.68432  0.60743  1.0000
  C   C375      1.0  0.10483  0.70164  0.61430  1.0000
  C   C376      1.0  0.12761  0.68478  0.59392  1.0000
  C   C377      1.0  0.09534  0.68251  0.59939  1.0000
  C   C378      1.0  0.11358  0.66831  0.62215  1.0000
  C   C379      1.0  0.12592  0.66975  0.63426  1.0000
  C   C380      1.0  0.08785  0.70289  0.62932  1.0000
  C   C381      1.0  0.09918  0.66608  0.59040  1.0000
  C   C382      1.0  0.12634  0.69843  0.57629  1.0000
  C   C383      1.0  0.14484  0.69843  0.56421  1.0000
  C   C384      1.0  0.12930  0.65240  0.64787  1.0000
  C   C385      1.0  0.08568  0.71889  0.63802  1.0000
  H   H659      1.0  0.10174  0.71325  0.60350  1.0000
  H   H660      1.0  0.11624  0.70443  0.61868  1.0000
  H   H661      1.0  0.13786  0.68803  0.59956  1.0000
  H   H662      1.0  0.13365  0.67130  0.59062  1.0000
  H   H663      1.0  0.09142  0.69493  0.58968  1.0000
  H   H664      1.0  0.08295  0.68134  0.60971  1.0000
  H   H665      1.0  0.10065  0.66530  0.63069  1.0000
  H   H666      1.0  0.11987  0.65600  0.61655  1.0000
  H   H667      1.0  0.11966  0.68074  0.64170  1.0000
  H   H668      1.0  0.13918  0.67239  0.62642  1.0000
  H   H669      1.0  0.07559  0.70467  0.62381  1.0000
  H   H670      1.0  0.08831  0.69075  0.63996  1.0000
  H   H671      1.0  0.11160  0.66576  0.58006  1.0000
  H   H672      1.0  0.11747  0.69523  0.56895  1.0000
  H   H673      1.0  0.12103  0.71217  0.57883  1.0000
  H   H674      1.0  0.15073  0.68497  0.56088  1.0000
  H   H675      1.0  0.00880  0.62768  0.52829  1.0000
  C   C386      1.0  0.48368  0.64158  0.66670  1.0000
  C   C387      1.0  0.18604  0.72264  0.70627  1.0000
  H   H676      1.0  0.11642  0.64939  0.65643  1.0000
  H   H677      1.0  0.13624  0.64098  0.64115  1.0000
  H   H678      1.0  0.08432  0.73163  0.62813  1.0000
  H   H679      1.0  0.07333  0.71950  0.64850  1.0000
  H   H680      1.0  0.09740  0.71758  0.64417  1.0000
  H   H681      1.0  0.35220  0.67445  0.62797  1.0000
  C   C388      1.0  0.00003  0.63047  0.54100  1.0000
  H   H682      1.0  0.08642  0.65429  0.57572  1.0000
  C   C389      1.0  0.34118  0.64635  0.71176  1.0000
  H   H683      1.0  0.46942  0.51584  0.81832  1.0000
  H   H684      1.0  0.10065  0.65340  0.60037  1.0000
  H   H685      1.0  0.38314  0.67397  0.63209  1.0000
  H   H686      1.0  0.35967  0.65949  0.65681  1.0000
  C   C390      1.0  0.47484  0.65418  0.78424  1.0000
  H   H687      1.0  0.33401  0.65159  0.64862  1.0000
  H   H688      1.0  0.35635  0.67995  0.66379  1.0000
  H   H689      1.0  0.14351  0.70838  0.55173  1.0000
  C   C391      1.0  0.46105  0.68286  0.60549  1.0000
  C   C392      1.0  0.41034  0.68902  0.74005  1.0000
  H   H690      1.0  0.37497  0.69305  0.61609  1.0000
  H   H691      1.0  0.32794  0.64247  0.71797  1.0000
  C   C393      1.0  0.17046  0.72525  0.68077  1.0000
  H   H692      1.0  0.30560  0.72448  0.63717  1.0000
  C   C394      1.0  0.45220  0.73161  0.64636  1.0000
  C   C395      1.0  0.35393  0.68282  0.63670  1.0000
  H   H693      1.0  0.33938  0.64427  0.67917  1.0000
  H   H694      1.0  0.48940  0.53946  0.72873  1.0000
  C   C396      1.0  0.46587  0.66751  0.77229  1.0000
  C   C397      1.0  0.44862  0.71426  0.65203  1.0000
  H   H695      1.0  0.15992  0.72033  0.69175  1.0000
  Fe  Fe47      1.0  0.01642  0.67705  0.51558  1.0000
  H   H696      1.0  0.37526  0.69590  0.63778  1.0000
  H   H697      1.0  0.03723  0.72066  0.57321  1.0000
  H   H698      1.0  0.46162  0.66376  0.76192  1.0000
  H   H699      1.0  0.45947  0.68629  0.66016  1.0000
  H   H700      1.0  0.43411  0.57272  0.82053  1.0000
  H   H701      1.0  0.43615  0.66214  0.62787  1.0000
  H   H702      1.0  0.19309  0.70879  0.70473  1.0000
  H   H703      1.0  0.48609  0.68833  0.57620  1.0000
  H   H704      1.0  0.48098  0.57541  0.66968  1.0000
  H   H705      1.0  0.30691  0.64492  0.63841  1.0000
  H   H706      1.0  0.12290  0.69834  0.66782  1.0000
  H   H707      1.0  0.41008  0.63497  0.78665  1.0000
  H   H708      1.0  0.48056  0.65367  0.65641  1.0000
  C   C398      1.0  0.44752  0.53070  0.84666  1.0000
  H   H709      1.0  0.34638  0.65014  0.72192  1.0000
  S   S85       1.0  0.25136  0.72093  0.61557  1.0000
  H   H710      1.0  0.42054  0.55608  0.83155  1.0000
  H   H711      1.0  0.38017  0.71294  0.75275  1.0000
  H   H712      1.0  0.45920  0.70126  0.54007  1.0000
  C   C399      1.0  0.44934  0.54687  0.83091  1.0000
  H   H713      1.0  0.39270  0.73489  0.70860  1.0000
  H   H714      1.0  0.45513  0.68812  0.57178  1.0000
  H   H715      1.0  0.34496  0.69440  0.74210  1.0000
  H   H716      1.0  0.43286  0.69198  0.70707  1.0000
  H   H717      1.0  0.42807  0.65482  0.76383  1.0000
  H   H718      1.0  0.45132  0.50522  0.82971  1.0000
  H   H719      1.0  0.43517  0.52605  0.84648  1.0000
  H   H720      1.0  0.44442  0.53576  0.85923  1.0000
  H   H721      1.0  0.49221  0.51005  0.84506  1.0000
  C   C400      1.0  0.48340  0.69979  0.60651  1.0000
  C   C401      1.0  0.43912  0.73160  0.69833  1.0000
  C   C402      1.0  0.46070  0.50194  0.86369  1.0000
  H   H722      1.0  0.35086  0.63464  0.70722  1.0000
  H   H723      1.0  0.00017  0.71145  0.49111  1.0000
  H   H724      1.0  0.40760  0.67760  0.73574  1.0000
  H   H725      1.0  0.44560  0.73341  0.70858  1.0000
  C   C403      1.0  0.45292  0.71556  0.60097  1.0000
  C   C404      1.0  0.34916  0.72562  0.60138  1.0000
  C   C405      1.0  0.07349  0.73543  0.57846  1.0000
  H   H726      1.0  0.45154  0.54258  0.81809  1.0000
  H   H727      1.0  0.42679  0.72609  0.70491  1.0000
  H   H728      1.0  0.41069  0.72552  0.78597  1.0000
  S   S86       1.0  0.43899  0.73436  0.74954  1.0000
  H   H729      1.0  0.29563  0.66825  0.63514  1.0000
  C   C406      1.0  0.48066  0.65902  0.79743  1.0000
  H   H730      1.0  0.13803  0.65389  0.65639  1.0000
  H   H731      1.0  0.47792  0.70491  0.61905  1.0000
  H   H732      1.0  0.31950  0.72891  0.67987  1.0000
  H   H733      1.0  0.49065  0.68575  0.61048  1.0000
  H   H734      1.0  0.44831  0.71523  0.61543  1.0000
  H   H735      1.0  0.28455  0.65152  0.65076  1.0000
  H   H736      1.0  0.48765  0.64878  0.80663  1.0000
  H   H737      1.0  0.00551  0.63984  0.54579  1.0000
  H   H738      1.0  0.49083  0.69960  0.74940  1.0000
  H   H739      1.0  0.18898  0.73276  0.64888  1.0000
  S   S87       1.0  0.36698  0.71780  0.66418  1.0000
  H   H740      1.0  0.36118  0.72622  0.59120  1.0000
  H   H741      1.0  0.48081  0.52332  0.87176  1.0000
  H   H742      1.0  0.35083  0.71471  0.74381  1.0000
  H   H743      1.0  0.30437  0.72494  0.66798  1.0000
  H   H744      1.0  0.17933  0.71287  0.67660  1.0000
  H   H745      1.0  0.46011  0.72349  0.82835  1.0000
  H   H746      1.0  0.08423  0.71018  0.50309  1.0000
  H   H747      1.0  0.44087  0.71431  0.59655  1.0000
  C   C407      1.0  0.49298  0.59916  0.66093  1.0000
  C   C408      1.0  0.48069  0.52159  0.84449  1.0000
  H   H748      1.0  0.46070  0.55317  0.83073  1.0000
  H   H749      1.0  0.32319  0.67371  0.64001  1.0000
  Fe  Fe48      1.0  0.45127  0.73561  0.77185  1.0000
  H   H750      1.0  0.48401  0.53001  0.83118  1.0000
  C   C409      1.0  0.47775  0.70564  0.72032  1.0000
  C   C410      1.0  0.37300  0.68662  0.63034  1.0000
  H   H751      1.0  0.48493  0.55525  0.74315  1.0000
  S   S88       1.0  0.48681  0.59517  0.75653  1.0000
  C   C411      1.0  0.43118  0.72770  0.83379  1.0000
  C   C412      1.0  0.47510  0.70023  0.57804  1.0000
  H   H752      1.0  0.48049  0.68939  0.54580  1.0000
  H   H753      1.0  0.45907  0.50852  0.87508  1.0000
  H   H754      1.0  0.14642  0.69229  0.65838  1.0000
  H   H755      1.0  0.39691  0.66217  0.76292  1.0000
  H   H756      1.0  0.43778  0.67799  0.74570  1.0000
  C   C413      1.0  0.32041  0.71621  0.61292  1.0000
  H   H757      1.0  0.48505  0.65636  0.68631  1.0000
  H   H758      1.0  0.42607  0.66871  0.77960  1.0000
  H   H759      1.0  0.44996  0.71235  0.56807  1.0000
  H   H760      1.0  0.48207  0.68052  0.80919  1.0000
  H   H761      1.0  0.40724  0.64930  0.80238  1.0000
  C   C414      1.0  0.05572  0.73267  0.58109  1.0000
  C   C415      1.0  0.40846  0.70098  0.76686  1.0000
  H   H762      1.0  0.47508  0.71370  0.54194  1.0000
  Fe  Fe49      1.0  0.23990  0.70880  0.64342  1.0000
  H   H763      1.0  0.33603  0.70887  0.65937  1.0000
  H   H764      1.0  0.38595  0.71031  0.78738  1.0000
  H   H765      1.0  0.44924  0.73831  0.81112  1.0000
  C   C416      1.0  0.40095  0.67080  0.76994  1.0000
  N   N22       1.0  0.40069  0.68954  0.75898  1.0000
  H   H766      1.0  0.13208  0.71048  0.64643  1.0000
  H   H767      1.0  0.14223  0.70933  0.68189  1.0000
  C   C417      1.0  0.07902  0.73704  0.50843  1.0000
  H   H768      1.0  0.45393  0.68271  0.71442  1.0000
  H   H769      1.0  0.40406  0.71281  0.80778  1.0000
  C   C418      1.0  0.41053  0.71179  0.79387  1.0000
  H   H770      1.0  0.42928  0.63747  0.79418  1.0000
  H   H771      1.0  0.07148  0.73292  0.52195  1.0000
  H   H772      1.0  0.07079  0.66690  0.59118  1.0000
  H   H773      1.0  0.17341  0.72201  0.71629  1.0000
  H   H774      1.0  0.48420  0.60505  0.65107  1.0000
  C   C419      1.0  0.41906  0.66036  0.77520  1.0000
  H   H775      1.0  0.43402  0.70119  0.73517  1.0000
  C   C420      1.0  0.46954  0.70124  0.54756  1.0000
  H   H776      1.0  0.15408  0.70225  0.57072  1.0000
  H   H777      1.0  0.16575  0.71516  0.65225  1.0000
  C   C421      1.0  0.44867  0.73461  0.82559  1.0000
  C   C422      1.0  0.46097  0.70044  0.56715  1.0000
  C   C423      1.0  0.31766  0.72486  0.62713  1.0000
  H   H778      1.0  0.45897  0.64942  0.62713  1.0000
  H   H779      1.0  0.02368  0.62414  0.48550  1.0000
  H   H780      1.0  0.46274  0.65392  0.68612  1.0000
  N   N23       1.0  0.33154  0.67117  0.66477  1.0000
  C   C424      1.0  0.31911  0.68873  0.66788  1.0000
  C   C425      1.0  0.32746  0.70311  0.67169  1.0000
  C   C426      1.0  0.30562  0.65847  0.65986  1.0000
  C   C427      1.0  0.31301  0.71854  0.67793  1.0000
  C   C428      1.0  0.07811  0.72404  0.49721  1.0000
  Fe  Fe50      1.0  0.14331  0.73876  0.60043  1.0000
  H   H781      1.0  0.23046  0.71484  0.56813  1.0000
  H   H782      1.0  0.19522  0.73461  0.67937  1.0000
  H   H783      1.0  0.43149  0.50313  0.87037  1.0000
  Fe  Fe51      1.0  0.25824  0.72946  0.65945  1.0000
  H   H784      1.0  0.43000  0.72310  0.84834  1.0000
  H   H785      1.0  0.48434  0.63276  0.60647  1.0000
  H   H786      1.0  0.48685  0.73289  0.82776  1.0000
  H   H787      1.0  0.48577  0.49134  0.80194  1.0000
  C   C429      1.0  0.46945  0.73452  0.64539  1.0000
  H   H788      1.0  0.13024  0.73867  0.69239  1.0000
  H   H789      1.0  0.04554  0.73827  0.59127  1.0000
  H   H790      1.0  0.46490  0.73800  0.60120  1.0000
  H   H791      1.0  0.41939  0.73840  0.83097  1.0000
  Fe  Fe52      1.0  0.40945  0.73872  0.65018  1.0000
  H   H792      1.0  0.47392  0.73529  0.84892  1.0000
  H   H793      1.0  0.30794  0.88294  0.98672  1.0000
  C   C430      1.0  0.01482  0.91562  0.35861  1.0000
  H   H794      1.0  0.01141  0.79565  0.41861  1.0000
  H   H795      1.0  0.99579  0.75951  0.42651  1.0000
  C   C431      1.0  0.02510  0.93982  0.43325  1.0000
  C   C432      1.0  0.99514  0.92613  0.36090  1.0000
  H   H796      1.0  0.01487  0.90358  0.31268  1.0000
  S   S89       1.0  0.02898  0.82880  0.41505  1.0000
  H   H797      1.0  0.00528  0.85746  0.31810  1.0000
  C   C433      1.0  0.00950  0.76096  0.41876  1.0000
  H   H798      1.0  0.04392  0.85233  0.45287  1.0000
  H   H799      1.0  0.00406  0.74771  0.39115  1.0000
  H   H800      1.0  0.15799  0.97135  0.44678  1.0000
  H   H801      1.0  0.01752  0.79837  0.29957  1.0000
  H   H802      1.0  0.02798  0.94169  0.44564  1.0000
  S   S90       1.0  0.99748  0.96424  0.37620  1.0000
  H   H803      1.0  0.04591  0.75479  0.41638  1.0000
  N   N24       1.0  0.04279  0.90719  0.43518  1.0000
  H   H804      1.0  0.19528  0.96516  0.07184  1.0000
  H   H805      1.0  0.18355  0.82217  0.47371  1.0000
  H   H806      1.0  0.99484  0.80998  0.29810  1.0000
  H   H807      1.0  0.04543  0.74102  0.47052  1.0000
  C   C434      1.0  0.19688  0.88836  0.47387  1.0000
  N   N25       1.0  0.15695  0.97847  0.30149  1.0000
  C   C435      1.0  0.05723  0.91255  0.41957  1.0000
  H   H808      1.0  0.99593  0.94691  0.44121  1.0000
  C   C436      1.0  0.03828  0.76838  0.41815  1.0000
  H   H809      1.0  0.04815  0.90376  0.31226  1.0000
  C   C437      1.0  0.04843  0.90778  0.45189  1.0000
  H   H810      1.0  0.03531  0.94468  0.42195  1.0000
  S   S91       1.0  0.07579  0.82388  0.42004  1.0000
  Fe  Fe53      1.0  0.12876  0.92410  0.40539  1.0000
  H   H811      1.0  0.03499  0.81503  0.47317  1.0000
  S   S92       1.0  0.14215  0.92757  0.37686  1.0000
  H   H812      1.0  0.16753  0.97120  0.20161  1.0000
  C   C438      1.0  0.10209  0.85742  0.44227  1.0000
  S   S93       1.0  0.10230  0.91521  0.41614  1.0000
  Fe  Fe54      1.0  0.10076  0.93353  0.29113  1.0000
  H   H813      1.0  0.00758  0.89937  0.40331  1.0000
  S   S94       1.0  0.11214  0.90432  0.29944  1.0000
  Fe  Fe55      1.0  0.10275  0.96953  0.26620  1.0000
  C   C439      1.0  0.06267  0.96865  0.38873  1.0000
  C   C440      1.0  0.02072  0.75420  0.44646  1.0000
  H   H814      1.0  0.16474  0.84486  0.42623  1.0000
  H   H815      1.0  0.04684  0.90543  0.39905  1.0000
  H   H816      1.0  0.02709  0.93916  0.35323  1.0000
  H   H817      1.0  0.16943  0.92925  0.22437  1.0000
  S   S95       1.0  0.11538  0.95539  0.28959  1.0000
  S   S96       1.0  0.09089  0.94627  0.26585  1.0000
  C   C441      1.0  0.12664  0.94130  0.36421  1.0000
  H   H818      1.0  0.06513  0.92223  0.37314  1.0000
  H   H819      1.0  0.15507  0.95119  0.22258  1.0000
  H   H820      1.0  0.15083  0.98180  0.14583  1.0000
  C   C442      1.0  0.11326  0.94803  0.33819  1.0000
  C   C443      1.0  0.12516  0.93674  0.34872  1.0000
  H   H821      1.0  0.06398  0.78959  0.39966  1.0000
  H   H822      1.0  0.06945  0.90179  0.41945  1.0000
  H   H823      1.0  0.11191  0.94416  0.32649  1.0000
  H   H824      1.0  0.13302  0.92434  0.34497  1.0000
  C   C444      1.0  0.05081  0.77633  0.42534  1.0000
  H   H825      1.0  0.21244  0.89530  0.37660  1.0000
  C   C445      1.0  0.07666  0.90281  0.30592  1.0000
  C   C446      1.0  0.09314  0.89533  0.31118  1.0000
  C   C447      1.0  0.09391  0.88192  0.32649  1.0000
  H   H826      1.0  0.07599  0.91304  0.29404  1.0000
  H   H827      1.0  0.10664  0.87621  0.33065  1.0000
  C   C448      1.0  0.30736  0.97570  0.15356  1.0000
  H   H828      1.0  0.17114  0.97251  0.40182  1.0000
  S   S97       1.0  0.01428  0.85461  0.38088  1.0000
  C   C449      1.0  0.15851  0.84729  0.45385  1.0000
  C   C450      1.0  0.15701  0.93756  0.22001  1.0000
  C   C451      1.0  0.06766  0.77945  0.41136  1.0000
  H   H829      1.0  0.05532  0.76674  0.43696  1.0000
  S   S98       1.0  0.04294  0.86736  0.39724  1.0000
  H   H830      1.0  0.19533  0.97442  0.09921  1.0000
  H   H831      1.0  0.15531  0.95263  0.16693  1.0000
  H   H832      1.0  0.18373  0.87312  0.40620  1.0000
  C   C452      1.0  0.08629  0.85514  0.42020  1.0000
  H   H833      1.0  0.00476  0.92182  0.29724  1.0000
  C   C453      1.0  0.18652  0.88573  0.46294  1.0000
  C   C454      1.0  0.06150  0.88458  0.33180  1.0000
  C   C455      1.0  0.20588  0.97225  0.07221  1.0000
  H   H834      1.0  0.05904  0.81199  0.47013  1.0000
  H   H835      1.0  0.19326  0.96188  0.29938  1.0000
  C   C456      1.0  0.29730  0.87930  0.98186  1.0000
  H   H836      1.0  0.02225  0.81268  0.32955  1.0000
  C   C457      1.0  0.14925  0.96881  0.24888  1.0000
  C   C458      1.0  0.16802  0.96669  0.24617  1.0000
  H   H837      1.0  0.06298  0.87964  0.45810  1.0000
  S   S99       1.0  0.20568  0.97892  0.14730  1.0000
  H   H838      1.0  0.14272  0.95777  0.25618  1.0000
  H   H839      1.0  0.17595  0.95406  0.25153  1.0000
  H   H840      1.0  0.23479  0.89927  0.34902  1.0000
  C   C459      1.0  0.20792  0.92246  0.38171  1.0000
  H   H841      1.0  0.19819  0.96369  0.19755  1.0000
  C   C460      1.0  0.19127  0.93776  0.40583  1.0000
  H   H842      1.0  0.15810  0.95812  0.41886  1.0000
  C   C461      1.0  0.22013  0.90617  0.37420  1.0000
  C   C462      1.0  0.21907  0.91624  0.40951  1.0000
  H   H843      1.0  0.26036  0.95625  0.00860  1.0000
  S   S100      1.0  0.04125  0.87876  0.34433  1.0000
  H   H844      1.0  0.05394  0.87941  0.43312  1.0000
  H   H845      1.0  0.05198  0.92102  0.45082  1.0000
  H   H846      1.0  0.10642  0.83369  0.46241  1.0000
  H   H847      1.0  0.18122  0.90882  0.42104  1.0000
  H   H848      1.0  0.02024  0.85368  0.46235  1.0000
  Fe  Fe56      1.0  0.01679  0.85782  0.40725  1.0000
  Fe  Fe57      1.0  0.13453  0.92577  0.44104  1.0000
  H   H849      1.0  0.03485  0.88889  0.42343  1.0000
  H   H850      1.0  0.20375  0.91090  0.43691  1.0000
  N   N26       1.0  0.20244  0.92007  0.40161  1.0000
  C   C463      1.0  0.21552  0.91689  0.42949  1.0000
  S   S101      1.0  0.15223  0.93350  0.45530  1.0000
  H   H851      1.0  0.13655  0.97267  0.20268  1.0000
  C   C464      1.0  0.05239  0.91643  0.40095  1.0000
  C   C465      1.0  0.00248  0.84116  0.34465  1.0000
  C   C466      1.0  0.20637  0.97642  0.27517  1.0000
  H   H852      1.0  0.31821  0.98110  0.09827  1.0000
  H   H853      1.0  0.01986  0.91355  0.34481  1.0000
  H   H854      1.0  0.21809  0.96215  0.07490  1.0000
  C   C467      1.0  0.22505  0.96106  0.12118  1.0000
  C   C468      1.0  0.23722  0.95922  0.10526  1.0000
  H   H855      1.0  0.00312  0.96222  0.27832  1.0000
  C   C469      1.0  0.03108  0.74616  0.47589  1.0000
  H   H856      1.0  0.21846  0.95007  0.12860  1.0000
  H   H857      1.0  0.24007  0.94681  0.10048  1.0000
  C   C470      1.0  0.04061  0.88860  0.43500  1.0000
  C   C471      1.0  0.19113  0.90573  0.40898  1.0000
  H   H858      1.0  0.31787  0.96341  0.15558  1.0000
  C   C472      1.0  0.02294  0.76139  0.46227  1.0000
  C   C473      1.0  0.02806  0.87959  0.45131  1.0000
  H   H859      1.0  0.06963  0.96566  0.37591  1.0000
  H   H860      1.0  0.01379  0.88608  0.45098  1.0000
  C   C474      1.0  0.16490  0.96905  0.18922  1.0000
  H   H861      1.0  0.22787  0.92611  0.40238  1.0000
  C   C475      1.0  0.17937  0.91856  0.47380  1.0000
  C   C476      1.0  0.00844  0.96986  0.32315  1.0000
  C   C477      1.0  0.17260  0.98231  0.28670  1.0000
  H   H862      1.0  0.26801  0.88093  0.99084  1.0000
  H   H863      1.0  0.09620  0.87864  0.42023  1.0000
  H   H864      1.0  0.22538  0.93977  0.19255  1.0000
  H   H865      1.0  0.13419  0.84068  0.47076  1.0000
  H   H866      1.0  0.02011  0.91900  0.42238  1.0000
  H   H867      1.0  0.01588  0.90239  0.36775  1.0000
  C   C478      1.0  0.10085  0.83973  0.45064  1.0000
  C   C479      1.0  0.26652  0.97018  0.98157  1.0000
  H   H868      1.0  0.04428  0.78943  0.42909  1.0000
  H   H869      1.0  0.17755  0.94565  0.28803  1.0000
  C   C480      1.0  0.30377  0.97824  0.07958  1.0000
  C   C481      1.0  0.16069  0.92718  0.30367  1.0000
  H   H870      1.0  0.21263  0.93106  0.43120  1.0000
  C   C482      1.0  0.02503  0.91985  0.43409  1.0000
  H   H871      1.0  0.03111  0.74316  0.40386  1.0000
  Fe  Fe58      1.0  0.08961  0.96767  0.30554  1.0000
  N   N27       1.0  0.01969  0.76743  0.42919  1.0000
  H   H872      1.0  0.20595  0.96642  0.26752  1.0000
  H   H873      1.0  0.14384  0.83851  0.43837  1.0000
  H   H874      1.0  0.11706  0.96058  0.38133  1.0000
  H   H875      1.0  0.04228  0.92906  0.39901  1.0000
  H   H876      1.0  0.04145  0.91804  0.35989  1.0000
  S   S102      1.0  0.20008  0.97736  0.23082  1.0000
  H   H877      1.0  0.21289  0.88210  0.40419  1.0000
  H   H878      1.0  0.07667  0.78465  0.41697  1.0000
  H   H879      1.0  0.26496  0.89036  0.01882  1.0000
  C   C483      1.0  0.22166  0.97689  0.12769  1.0000
  H   H880      1.0  0.16501  0.82372  0.44169  1.0000
  H   H881      1.0  0.16243  0.93690  0.14125  1.0000
  C   C484      1.0  0.00461  0.96424  0.29087  1.0000
  H   H882      1.0  0.28834  0.89197  0.01394  1.0000
  H   H883      1.0  0.17719  0.87585  0.42901  1.0000
  H   H884      1.0  0.00837  0.74827  0.45129  1.0000
  H   H885      1.0  0.30786  0.97377  0.12701  1.0000
  H   H886      1.0  0.16473  0.91861  0.29352  1.0000
  S   S103      1.0  0.27577  0.98622  0.98652  1.0000
  S   S104      1.0  0.05638  0.83300  0.37634  1.0000
  H   H887      1.0  0.00062  0.80043  0.31953  1.0000
  S   S105      1.0  0.14304  0.90402  0.42519  1.0000
  H   H888      1.0  0.19973  0.94826  0.40192  1.0000
  S   S106      1.0  0.24100  0.98142  0.03272  1.0000
  H   H889      1.0  0.14441  0.98213  0.46448  1.0000
  C   C485      1.0  0.02371  0.96598  0.31009  1.0000
  H   H890      1.0  0.20931  0.98097  0.05913  1.0000
  H   H891      1.0  0.21876  0.94937  0.03209  1.0000
  H   H892      1.0  0.21278  0.95151  0.00251  1.0000
  H   H893      1.0  0.14457  0.94218  0.19721  1.0000
  H   H894      1.0  0.19623  0.85895  0.42253  1.0000
  S   S107      1.0  0.07010  0.95380  0.43929  1.0000
  C   C486      1.0  0.22637  0.91124  0.35414  1.0000
  S   S108      1.0  0.09056  0.97969  0.32822  1.0000
  H   H895      1.0  0.99487  0.93930  0.35154  1.0000
  C   C487      1.0  0.14469  0.97747  0.18953  1.0000
  C   C488      1.0  0.09269  0.82965  0.44366  1.0000
  H   H896      1.0  0.14631  0.92704  0.30981  1.0000
  Fe  Fe59      1.0  0.09692  0.93593  0.43290  1.0000
  H   H897      1.0  0.19514  0.95087  0.03295  1.0000
  H   H898      1.0  0.13937  0.97404  0.17934  1.0000
  H   H899      1.0  0.12822  0.93772  0.22838  1.0000
  C   C489      1.0  0.10340  0.96428  0.34270  1.0000
  H   H900      1.0  0.06163  0.92463  0.42083  1.0000
  H   H901      1.0  0.28204  0.87029  0.01767  1.0000
  H   H902      1.0  0.07525  0.92946  0.38759  1.0000
  H   H903      1.0  0.14099  0.97970  0.28227  1.0000
  C   C490      1.0  0.17444  0.94540  0.39721  1.0000
  C   C491      1.0  0.03014  0.85964  0.45127  1.0000
  H   H904      1.0  0.07513  0.76674  0.40707  1.0000
  N   N28       1.0  0.03050  0.83840  0.31926  1.0000
  C   C492      1.0  0.04402  0.83265  0.33129  1.0000
  C   C493      1.0  0.01415  0.85041  0.32776  1.0000
  C   C494      1.0  0.02574  0.82180  0.31658  1.0000
  C   C495      1.0  0.03808  0.84878  0.30144  1.0000
  C   C496      1.0  0.04612  0.86497  0.30184  1.0000
  C   C497      1.0  0.06264  0.82194  0.32368  1.0000
  C   C498      1.0  0.01045  0.82508  0.30611  1.0000
  C   C499      1.0  0.00997  0.78614  0.43160  1.0000
  C   C500      1.0  0.16889  0.91583  0.46301  1.0000
  C   C501      1.0  0.05315  0.87457  0.28312  1.0000
  C   C502      1.0  0.07560  0.81786  0.33641  1.0000
  C   C503      1.0  0.27858  0.88480  0.01184  1.0000
  H   H905      1.0  0.03866  0.82403  0.34392  1.0000
  H   H906      1.0  0.04626  0.84444  0.33539  1.0000
  H   H907      1.0  0.01825  0.86135  0.33167  1.0000
  H   H908      1.0  0.99655  0.93224  0.40169  1.0000
  H   H909      1.0  0.13391  0.98166  0.42965  1.0000
  H   H910      1.0  0.03764  0.81379  0.30916  1.0000
  H   H911      1.0  0.04855  0.83976  0.29363  1.0000
  H   H912      1.0  0.02744  0.85426  0.29337  1.0000
  H   H913      1.0  0.05753  0.86066  0.30893  1.0000
  H   H914      1.0  0.03579  0.87494  0.30848  1.0000
  H   H915      1.0  0.06128  0.80889  0.32148  1.0000
  H   H916      1.0  0.06906  0.82952  0.31098  1.0000
  H   H917      1.0  0.01474  0.83174  0.29217  1.0000
  H   H918      1.0  0.23235  0.90100  0.38005  1.0000
  H   H919      1.0  0.00749  0.77107  0.40653  1.0000
  H   H920      1.0  0.15137  0.96733  0.39776  1.0000
  H   H921      1.0  0.21971  0.97309  0.27904  1.0000
  C   C504      1.0  0.16329  0.94632  0.29492  1.0000
  C   C505      1.0  0.14843  0.83842  0.47205  1.0000
  H   H922      1.0  0.04209  0.87990  0.27557  1.0000
  H   H923      1.0  0.05884  0.88605  0.28382  1.0000
  H   H924      1.0  0.06397  0.86530  0.27598  1.0000
  H   H925      1.0  0.07025  0.80951  0.34920  1.0000
  H   H926      1.0  0.08880  0.81031  0.33060  1.0000
  H   H927      1.0  0.07778  0.83054  0.33881  1.0000
  H   H928      1.0  0.17483  0.98731  0.11840  1.0000
  H   H929      1.0  0.03697  0.96523  0.31245  1.0000
  C   C506      1.0  0.06114  0.96433  0.42031  1.0000
  Fe  Fe60      1.0  0.11591  0.89725  0.43764  1.0000
  H   H930      1.0  0.14554  0.95583  0.31752  1.0000
  H   H931      1.0  0.99931  0.89737  0.34385  1.0000
  H   H932      1.0  0.07852  0.86652  0.34891  1.0000
  S   S109      1.0  0.12215  0.94654  0.42021  1.0000
  H   H933      1.0  0.21511  0.92448  0.21123  1.0000
  C   C507      1.0  0.19302  0.97718  0.00177  1.0000
  H   H934      1.0  0.14095  0.92855  0.24570  1.0000
  H   H935      1.0  0.17657  0.95916  0.15895  1.0000
  H   H936      1.0  0.01037  0.83572  0.35525  1.0000
  N   N29       1.0  0.17066  0.94961  0.18734  1.0000
  C   C508      1.0  0.06088  0.89751  0.31623  1.0000
  H   H937      1.0  0.18621  0.93650  0.42039  1.0000
  H   H938      1.0  0.24646  0.93424  0.00127  1.0000
  C   C509      1.0  0.06499  0.89350  0.45671  1.0000
  H   H939      1.0  0.19933  0.94623  0.17641  1.0000
  H   H940      1.0  0.07711  0.89555  0.44637  1.0000
  H   H941      1.0  0.09421  0.98677  0.39531  1.0000
  C   C510      1.0  0.09033  0.98147  0.45288  1.0000
  Fe  Fe61      1.0  0.04158  0.86145  0.37121  1.0000
  C   C511      1.0  0.09490  0.86513  0.42698  1.0000
  H   H942      1.0  0.15308  0.82360  0.47394  1.0000
  H   H943      1.0  0.18474  0.94225  0.13470  1.0000
  C   C512      1.0  0.20124  0.88616  0.41445  1.0000
  H   H944      1.0  0.16584  0.93523  0.39992  1.0000
  S   S110      1.0  0.11610  0.98689  0.24217  1.0000
  C   C513      1.0  0.17222  0.89924  0.45798  1.0000
  H   H945      1.0  0.08092  0.86101  0.40828  1.0000
  H   H946      1.0  0.14227  0.91548  0.22942  1.0000
  H   H947      1.0  0.18204  0.91923  0.13931  1.0000
  C   C514      1.0  0.17653  0.93244  0.14331  1.0000
  C   C515      1.0  0.14114  0.92929  0.23149  1.0000
  C   C516      1.0  0.08536  0.83732  0.42849  1.0000
  H   H948      1.0  0.29393  0.97199  0.15896  1.0000
  H   H949      1.0  0.19155  0.92574  0.16400  1.0000
  C   C517      1.0  0.19008  0.94256  0.18929  1.0000
  H   H950      1.0  0.16940  0.92038  0.17071  1.0000
  H   H951      1.0  0.29878  0.86448  0.98650  1.0000
  H   H952      1.0  0.09210  0.81585  0.45001  1.0000
  H   H953      1.0  0.22045  0.94445  0.21454  1.0000
  C   C518      1.0  0.03659  0.98363  0.40690  1.0000
  C   C519      1.0  0.18879  0.87274  0.41826  1.0000
  H   H954      1.0  0.07910  0.90588  0.38688  1.0000
  C   C520      1.0  0.99861  0.80527  0.38506  1.0000
  H   H955      1.0  0.22753  0.90301  0.40766  1.0000
  C   C521      1.0  0.15839  0.93801  0.20016  1.0000
  H   H956      1.0  0.01455  0.91582  0.44572  1.0000
  S   S111      1.0  0.10860  0.91735  0.45529  1.0000
  H   H957      1.0  0.23457  0.92185  0.35079  1.0000
  S   S112      1.0  0.07573  0.94483  0.30893  1.0000
  H   H958      1.0  0.18793  0.94857  0.21581  1.0000
  C   C522      1.0  0.07040  0.96085  0.40370  1.0000
  C   C523      1.0  0.27863  0.88750  0.99211  1.0000
  H   H959      1.0  0.19280  0.92761  0.19266  1.0000
  H   H960      1.0  0.18962  0.87326  0.45827  1.0000
  H   H961      1.0  0.16286  0.92381  0.19851  1.0000
  H   H962      1.0  0.19587  0.92551  0.37555  1.0000
  C   C524      1.0  0.16948  0.94900  0.16874  1.0000
  Fe  Fe62      1.0  0.05515  0.83793  0.40338  1.0000
  C   C525      1.0  0.21563  0.93880  0.20537  1.0000
  C   C526      1.0  0.19698  0.94942  0.20271  1.0000
  H   H963      1.0  0.20641  0.88471  0.42668  1.0000
  H   H964      1.0  0.16402  0.89687  0.45002  1.0000
  C   C527      1.0  0.02175  0.96346  0.29385  1.0000
  H   H965      1.0  0.08342  0.95204  0.40233  1.0000
  Fe  Fe63      1.0  0.06683  0.95927  0.28351  1.0000
  C   C528      1.0  0.17727  0.93070  0.16276  1.0000
  S   S113      1.0  0.11280  0.86925  0.45145  1.0000
  C   C529      1.0  0.06900  0.91862  0.38632  1.0000
  C   C530      1.0  0.15846  0.95855  0.30880  1.0000
  H   H966      1.0  0.16902  0.92136  0.31398  1.0000
  C   C531      1.0  0.20642  0.95828  0.02805  1.0000
  H   H967      1.0  0.21474  0.93420  0.37636  1.0000
  S   S114      1.0  0.23057  0.98212  0.18350  1.0000
  H   H968      1.0  0.22150  0.97052  0.00371  1.0000
  H   H969      1.0  0.23427  0.89236  0.43776  1.0000
  C   C532      1.0  0.15798  0.83796  0.43919  1.0000
  H   H970      1.0  0.00107  0.93059  0.32567  1.0000
  H   H971      1.0  0.99801  0.83360  0.31201  1.0000
  C   C533      1.0  0.07802  0.87657  0.33689  1.0000
  C   C534      1.0  0.10468  0.96871  0.35838  1.0000
  S   S115      1.0  0.04028  0.96046  0.27663  1.0000
  C   C535      1.0  0.24540  0.97353  0.09529  1.0000
  C   C536      1.0  0.11607  0.95709  0.36929  1.0000
  H   H972      1.0  0.15476  0.95138  0.28481  1.0000
  H   H973      1.0  0.15203  0.86158  0.45022  1.0000
  H   H974      1.0  0.14933  0.87268  0.47396  1.0000
  C   C537      1.0  0.20962  0.96395  0.00789  1.0000
  H   H975      1.0  0.00997  0.97212  0.33558  1.0000
  H   H976      1.0  0.03101  0.88045  0.46401  1.0000
  H   H977      1.0  0.01606  0.79147  0.43997  1.0000
  S   S116      1.0  0.02196  0.80389  0.37956  1.0000
  H   H978      1.0  0.18273  0.90578  0.39941  1.0000
  H   H979      1.0  0.17278  0.84681  0.45392  1.0000
  C   C538      1.0  0.23168  0.90692  0.43796  1.0000
  H   H980      1.0  0.02766  0.85783  0.43868  1.0000
  C   C539      1.0  0.06879  0.89497  0.47428  1.0000
  Fe  Fe64      1.0  0.02908  0.82651  0.38754  1.0000
  H   H981      1.0  0.03718  0.77623  0.40460  1.0000
  H   H982      1.0  0.20326  0.97021  0.03429  1.0000
  H   H983      1.0  0.22884  0.90837  0.45202  1.0000
  H   H984      1.0  0.21463  0.91610  0.34745  1.0000
  H   H985      1.0  0.24388  0.91251  0.43092  1.0000
  H   H986      1.0  0.00700  0.96572  0.43161  1.0000
  H   H987      1.0  0.00953  0.76784  0.46892  1.0000
  H   H988      1.0  0.17835  0.94982  0.38267  1.0000
  C   C540      1.0  0.02747  0.92583  0.36227  1.0000
  H   H989      1.0  0.02379  0.92762  0.37624  1.0000
  H   H990      1.0  0.17321  0.97734  0.17838  1.0000
  H   H991      1.0  0.29523  0.98668  0.07009  1.0000
  H   H992      1.0  0.18091  0.97109  0.00807  1.0000
  H   H993      1.0  0.16846  0.95358  0.31764  1.0000
  C   C541      1.0  0.19146  0.97583  0.29169  1.0000
  C   C542      1.0  0.17658  0.98064  0.23585  1.0000
  H   H994      1.0  0.03161  0.77152  0.45831  1.0000
  C   C543      1.0  0.16311  0.96188  0.40438  1.0000
  C   C544      1.0  0.00563  0.80734  0.30584  1.0000
  C   C545      1.0  0.99557  0.90428  0.41229  1.0000
  H   H995      1.0  0.99752  0.82998  0.34228  1.0000
  H   H996      1.0  0.18439  0.95865  0.98321  1.0000
  H   H997      1.0  0.27446  0.90205  0.98715  1.0000
  H   H998      1.0  0.29615  0.96838  0.08904  1.0000
  H   H999      1.0  0.19125  0.98888  0.00796  1.0000
  C   C546      1.0  0.25958  0.95696  0.99502  1.0000
  C   C547      1.0  0.00698  0.95176  0.43077  1.0000
  H   H1000     1.0  0.99938  0.78279  0.37350  1.0000
  C   C548      1.0  0.04441  0.97604  0.42186  1.0000
  H   H1001     1.0  0.21096  0.98884  0.08756  1.0000
  S   S117      1.0  0.07791  0.98364  0.28200  1.0000
  H   H1002     1.0  0.03181  0.74250  0.44426  1.0000
  C   C549      1.0  0.25179  0.94448  0.99087  1.0000
  C   C550      1.0  0.04569  0.97982  0.39035  1.0000
  H   H1003     1.0  0.09818  0.96964  0.44709  1.0000
  H   H1004     1.0  0.31593  0.97075  0.07202  1.0000
  C   C551      1.0  0.14715  0.98288  0.44993  1.0000
  H   H1005     1.0  0.14099  0.97202  0.33871  1.0000
  H   H1006     1.0  0.10806  0.98600  0.42011  1.0000
  S   S118      1.0  0.26047  0.97085  0.07532  1.0000
  H   H1007     1.0  0.03725  0.97880  0.43470  1.0000
  H   H1008     1.0  0.09685  0.98111  0.36208  1.0000
  C   C552      1.0  0.13023  0.98194  0.44399  1.0000
  H   H1009     1.0  0.03701  0.90687  0.46340  1.0000
  C   C553      1.0  0.00186  0.91193  0.30973  1.0000
  H   H1010     1.0  0.30897  0.98533  0.16107  1.0000
  H   H1011     1.0  0.19343  0.98472  0.29978  1.0000
  Fe  Fe65      1.0  0.00680  0.98918  0.37617  1.0000
  C   C554      1.0  0.30924  0.98403  0.13382  1.0000
  H   H1012     1.0  0.16900  0.98179  0.32201  1.0000
  H   H1013     1.0  0.12832  0.98014  0.30391  1.0000
  C   C555      1.0  0.19938  0.98354  0.08656  1.0000
  C   C556      1.0  0.08983  0.97647  0.47314  1.0000
  H   H1014     1.0  0.07633  0.98268  0.45122  1.0000
  N   N30       1.0  0.19395  0.98282  0.98201  1.0000
  S   S119      1.0  0.03628  0.98925  0.37147  1.0000
  C   C557      1.0  0.14057  0.98623  0.33191  1.0000
  H   H1015     1.0  0.32290  0.98720  0.12914  1.0000
  H   H1016     1.0  0.13336  0.98771  0.13281  1.0000
  H   H1017     1.0  0.00449  0.95204  0.41751  1.0000
  H   H1018     1.0  0.12610  0.96909  0.45120  1.0000
  H   H1019     1.0  0.17250  0.97659  0.27521  1.0000
  C   C558      1.0  0.01803  0.74262  0.41314  1.0000
  C   C559      1.0  0.15675  0.98766  0.31619  1.0000
  C   C560      1.0  0.13914  0.98476  0.24103  1.0000
  H   H1020     1.0  0.07114  0.90861  0.47356  1.0000
  C   C561      1.0  0.13982  0.98520  0.29425  1.0000
  H   H1021     1.0  0.09110  0.94786  0.47546  1.0000
  H   H1022     1.0  0.10346  0.97403  0.47615  1.0000
  H   H1023     1.0  0.16631  0.98868  0.97830  1.0000
  H   H1024     1.0  0.08101  0.88502  0.47721  1.0000
  H   H1025     1.0  0.11576  0.83311  0.49535  1.0000
  C   C562      1.0  0.45862  0.80492  0.67368  1.0000
  H   H1026     1.0  0.22329  0.76225  0.70008  1.0000
  C   C563      1.0  0.26582  0.97083  0.96397  1.0000
  S   S120      1.0  0.12994  0.74623  0.57694  1.0000
  Fe  Fe66      1.0  0.41627  0.75477  0.76053  1.0000
  S   S121      1.0  0.38695  0.75399  0.76478  1.0000
  H   H1027     1.0  0.30081  0.86648  0.74199  1.0000
  H   H1028     1.0  0.15255  0.92357  0.55727  1.0000
  S   S122      1.0  0.42752  0.75417  0.78421  1.0000
  C   C564      1.0  0.36536  0.74588  0.71930  1.0000
  H   H1029     1.0  0.03021  0.75109  0.48810  1.0000
  H   H1030     1.0  0.47149  0.80347  0.66391  1.0000
  H   H1031     1.0  0.31446  0.74738  0.58520  1.0000
  H   H1032     1.0  0.44855  0.79197  0.87279  1.0000
  Fe  Fe67      1.0  0.13593  0.77339  0.57422  1.0000
  S   S123      1.0  0.14536  0.78918  0.54741  1.0000
  H   H1033     1.0  0.11875  0.85978  0.62627  1.0000
  C   C565      1.0  0.31529  0.77496  0.65738  1.0000
  H   H1034     1.0  0.44443  0.79761  0.65744  1.0000
  H   H1035     1.0  0.46182  0.80073  0.68717  1.0000
  H   H1036     1.0  0.31821  0.76140  0.56356  1.0000
  C   C566      1.0  0.11927  0.83719  0.50633  1.0000
  S   S124      1.0  0.22866  0.77274  0.61499  1.0000
  H   H1037     1.0  0.42782  0.74637  0.67619  1.0000
  H   H1038     1.0  0.13325  0.76596  0.72786  1.0000
  H   H1039     1.0  0.02339  0.74813  0.55089  1.0000
  H   H1040     1.0  0.08166  0.76136  0.48898  1.0000
  C   C567      1.0  0.21840  0.76523  0.71360  1.0000
  Fe  Fe68      1.0  0.19727  0.84392  0.66744  1.0000
  S   S125      1.0  0.22028  0.84659  0.64416  1.0000
  S   S126      1.0  0.17302  0.83192  0.66534  1.0000
  Fe  Fe69      1.0  0.21513  0.86285  0.68930  1.0000
  S   S127      1.0  0.23799  0.86628  0.66651  1.0000
  S   S128      1.0  0.21763  0.87075  0.71510  1.0000
  Fe  Fe70      1.0  0.21752  0.87430  0.64915  1.0000
  S   S129      1.0  0.21636  0.90081  0.63004  1.0000
  Fe  Fe71      1.0  0.23811  0.83826  0.66439  1.0000
  S   S130      1.0  0.26491  0.81946  0.66479  1.0000
  S   S131      1.0  0.19401  0.87229  0.67194  1.0000
  S   S132      1.0  0.21569  0.83405  0.68771  1.0000
  Fe  Fe72      1.0  0.21681  0.86937  0.50815  1.0000
  S   S133      1.0  0.19650  0.88636  0.52561  1.0000
  C   C568      1.0  0.16904  0.84274  0.48954  1.0000
  Fe  Fe73      1.0  0.23489  0.84677  0.53823  1.0000
  S   S134      1.0  0.21558  0.86153  0.55833  1.0000
  S   S135      1.0  0.25730  0.82332  0.54447  1.0000
  Fe  Fe74      1.0  0.19424  0.86043  0.54452  1.0000
  S   S136      1.0  0.16698  0.85661  0.56037  1.0000
  Fe  Fe75      1.0  0.21958  0.88612  0.53796  1.0000
  S   S137      1.0  0.22101  0.91043  0.54750  1.0000
  S   S138      1.0  0.21304  0.84315  0.52637  1.0000
  S   S139      1.0  0.24044  0.87170  0.51843  1.0000
  Fe  Fe76      1.0  0.26253  0.95453  0.90441  1.0000
  S   S140      1.0  0.27362  0.93171  0.92444  1.0000
  C   C569      1.0  0.04640  0.81176  0.48023  1.0000
  Fe  Fe77      1.0  0.23078  0.93882  0.90506  1.0000
  S   S141      1.0  0.23818  0.91483  0.92577  1.0000
  S   S142      1.0  0.20630  0.94347  0.89322  1.0000
  Fe  Fe78      1.0  0.24496  0.93405  0.93872  1.0000
  S   S143      1.0  0.35630  0.74390  0.70181  1.0000
  Fe  Fe79      1.0  0.26622  0.91407  0.91004  1.0000
  S   S144      1.0  0.28153  0.88708  0.90481  1.0000
  S   S145      1.0  0.23436  0.95842  0.91980  1.0000
  S   S146      1.0  0.25838  0.93663  0.88830  1.0000
  Fe  Fe80      1.0  0.27013  0.92425  0.76158  1.0000
  S   S147      1.0  0.25711  0.90948  0.78755  1.0000
  S   S148      1.0  0.26509  0.91790  0.73597  1.0000
  Fe  Fe81      1.0  0.28847  0.94479  0.78164  1.0000
  S   S149      1.0  0.27571  0.93039  0.80803  1.0000
  H   H1041     1.0  0.13866  0.84301  0.62992  1.0000
  Fe  Fe82      1.0  0.28346  0.90605  0.79564  1.0000
  S   S150      1.0  0.29629  0.87983  0.81061  1.0000
  Fe  Fe83      1.0  0.25088  0.93565  0.79676  1.0000
  S   S151      1.0  0.22309  0.94705  0.81046  1.0000
  S   S152      1.0  0.29743  0.91966  0.76937  1.0000
  S   S153      1.0  0.26275  0.95112  0.77052  1.0000
  Fe  Fe84      1.0  0.40328  0.84061  0.85671  1.0000
  S   S154      1.0  0.41177  0.86271  0.83460  1.0000
  Fe  Fe85      1.0  0.24457  0.74651  0.62578  1.0000
  Fe  Fe86      1.0  0.38103  0.86636  0.88037  1.0000
  S   S155      1.0  0.38694  0.89046  0.85985  1.0000
  S   S156      1.0  0.36414  0.87281  0.90611  1.0000
  Fe  Fe87      1.0  0.38294  0.87590  0.84067  1.0000
  S   S157      1.0  0.37057  0.89162  0.81776  1.0000
  Fe  Fe88      1.0  0.41517  0.87528  0.85584  1.0000
  S   S158      1.0  0.43848  0.88895  0.85235  1.0000
  S   S159      1.0  0.37391  0.85325  0.86150  1.0000
  S   S160      1.0  0.40970  0.85166  0.87763  1.0000
  C   C570      1.0  0.43432  0.91251  0.85000  1.0000
  C   C571      1.0  0.41690  0.92251  0.85386  1.0000
  N   N31       1.0  0.30093  0.79229  0.61121  1.0000
  H   H1042     1.0  0.40563  0.91587  0.85844  1.0000
  H   H1043     1.0  0.04820  0.78353  0.48369  1.0000
  C   C572      1.0  0.31609  0.88347  0.81450  1.0000
  C   C573      1.0  0.32149  0.89986  0.80686  1.0000
  C   C574      1.0  0.33788  0.90258  0.80873  1.0000
  C   C575      1.0  0.34875  0.88909  0.81866  1.0000
  C   C576      1.0  0.34288  0.87307  0.82733  1.0000
  C   C577      1.0  0.32660  0.87015  0.82505  1.0000
  H   H1044     1.0  0.31329  0.91039  0.79912  1.0000
  H   H1045     1.0  0.34223  0.91505  0.80209  1.0000
  H   H1046     1.0  0.35124  0.86264  0.83506  1.0000
  H   H1047     1.0  0.32225  0.85758  0.83128  1.0000
  C   C578      1.0  0.30478  0.88394  0.90341  1.0000
  C   C579      1.0  0.31212  0.89684  0.90722  1.0000
  C   C580      1.0  0.33032  0.89329  0.90826  1.0000
  C   C581      1.0  0.34149  0.87727  0.90442  1.0000
  C   C582      1.0  0.33437  0.86472  0.89968  1.0000
  C   C583      1.0  0.31594  0.86793  0.89946  1.0000
  H   H1048     1.0  0.30374  0.90938  0.90979  1.0000
  H   H1049     1.0  0.33564  0.90299  0.91206  1.0000
  H   H1050     1.0  0.34297  0.85231  0.89669  1.0000
  H   H1051     1.0  0.31034  0.85797  0.89634  1.0000
  H   H1052     1.0  0.14647  0.76513  0.74386  1.0000
  H   H1053     1.0  0.11340  0.76473  0.70521  1.0000
  H   H1054     1.0  0.28368  0.86101  0.94841  1.0000
  H   H1055     1.0  0.13914  0.75785  0.66087  1.0000
  C   C584      1.0  0.31528  0.97093  0.91515  1.0000
  C   C585      1.0  0.29856  0.97073  0.91162  1.0000
  Fe  Fe89      1.0  0.44087  0.77635  0.76706  1.0000
  H   H1056     1.0  0.31804  0.96571  0.92832  1.0000
  H   H1057     1.0  0.28832  0.96552  0.92213  1.0000
  C   C586      1.0  0.21110  0.94384  0.87030  1.0000
  C   C587      1.0  0.22804  0.93594  0.86188  1.0000
  C   C588      1.0  0.23194  0.93704  0.84348  1.0000
  C   C589      1.0  0.21874  0.94564  0.83347  1.0000
  C   C590      1.0  0.20167  0.95323  0.84191  1.0000
  C   C591      1.0  0.19786  0.95235  0.86028  1.0000
  H   H1058     1.0  0.23808  0.92875  0.86950  1.0000
  H   H1059     1.0  0.24517  0.93128  0.83709  1.0000
  H   H1060     1.0  0.19137  0.95985  0.83422  1.0000
  H   H1061     1.0  0.18467  0.95838  0.86669  1.0000
  C   C592      1.0  0.23034  0.88467  0.72052  1.0000
  C   C593      1.0  0.23038  0.88406  0.73847  1.0000
  C   C594      1.0  0.24056  0.89422  0.74346  1.0000
  C   C595      1.0  0.25107  0.90528  0.73058  1.0000
  C   C596      1.0  0.25095  0.90596  0.71263  1.0000
  C   C597      1.0  0.24069  0.89589  0.70765  1.0000
  H   H1062     1.0  0.22245  0.87562  0.74868  1.0000
  H   H1063     1.0  0.24032  0.89342  0.75731  1.0000
  H   H1064     1.0  0.25886  0.91443  0.70243  1.0000
  H   H1065     1.0  0.24082  0.89684  0.69378  1.0000
  C   C598      1.0  0.21796  0.90261  0.60721  1.0000
  C   C599      1.0  0.21213  0.91948  0.59718  1.0000
  C   C600      1.0  0.21322  0.92167  0.57892  1.0000
  C   C601      1.0  0.22024  0.90704  0.57046  1.0000
  C   C602      1.0  0.22644  0.89017  0.58043  1.0000
  C   C603      1.0  0.22515  0.88791  0.59884  1.0000
  H   H1066     1.0  0.20677  0.93092  0.60356  1.0000
  H   H1067     1.0  0.20862  0.93476  0.57132  1.0000
  H   H1068     1.0  0.23277  0.87901  0.57391  1.0000
  H   H1069     1.0  0.23013  0.87497  0.60645  1.0000
  C   C604      1.0  0.23820  0.78662  0.59617  1.0000
  C   C605      1.0  0.22772  0.80324  0.59077  1.0000
  C   C606      1.0  0.23369  0.81438  0.57494  1.0000
  C   C607      1.0  0.25054  0.80936  0.56469  1.0000
  C   C608      1.0  0.26140  0.79278  0.57023  1.0000
  C   C609      1.0  0.25511  0.78122  0.58597  1.0000
  H   H1070     1.0  0.21472  0.80737  0.59873  1.0000
  H   H1071     1.0  0.22501  0.82668  0.57056  1.0000
  H   H1072     1.0  0.27433  0.78870  0.56207  1.0000
  H   H1073     1.0  0.26311  0.76815  0.59005  1.0000
  C   C610      1.0  0.26321  0.75974  0.67829  1.0000
  C   C611      1.0  0.25442  0.77118  0.66512  1.0000
  C   C612      1.0  0.25438  0.78968  0.66133  1.0000
  C   C613      1.0  0.26353  0.79667  0.67039  1.0000
  C   C614      1.0  0.27255  0.78518  0.68335  1.0000
  C   C615      1.0  0.27227  0.76677  0.68740  1.0000
  H   H1074     1.0  0.24742  0.76584  0.65801  1.0000
  H   H1075     1.0  0.24750  0.79846  0.65120  1.0000
  H   H1076     1.0  0.27987  0.79046  0.69022  1.0000
  N   N32       1.0  0.14971  0.84520  0.48785  1.0000
  C   C616      1.0  0.15037  0.80869  0.55043  1.0000
  C   C617      1.0  0.16338  0.81688  0.53789  1.0000
  C   C618      1.0  0.16807  0.83207  0.54058  1.0000
  C   C619      1.0  0.15984  0.83897  0.55587  1.0000
  C   C620      1.0  0.14646  0.83106  0.56820  1.0000
  C   C621      1.0  0.14187  0.81580  0.56557  1.0000
  H   H1077     1.0  0.17022  0.81111  0.52646  1.0000
  H   H1078     1.0  0.17817  0.83835  0.53097  1.0000
  H   H1079     1.0  0.14013  0.83632  0.58011  1.0000
  H   H1080     1.0  0.13187  0.80953  0.57537  1.0000
  C   C622      1.0  0.19118  0.75896  0.54940  1.0000
  C   C623      1.0  0.13469  0.80795  0.65778  1.0000
  C   C624      1.0  0.14447  0.81701  0.66446  1.0000
  C   C625      1.0  0.16174  0.81996  0.65564  1.0000
  C   C626      1.0  0.16902  0.81334  0.63980  1.0000
  C   C627      1.0  0.15908  0.80425  0.63301  1.0000
  H   H1081     1.0  0.12135  0.80620  0.66489  1.0000
  H   H1082     1.0  0.13842  0.82198  0.67656  1.0000
  H   H1083     1.0  0.18232  0.81522  0.63270  1.0000
  H   H1084     1.0  0.42883  0.77608  0.65920  1.0000
  H   H1085     1.0  0.24485  0.81450  0.61369  1.0000
  C   C628      1.0  0.49317  0.77230  0.77935  1.0000
  C   C629      1.0  0.43453  0.74937  0.68560  1.0000
  H   H1086     1.0  0.45447  0.77922  0.67263  1.0000
  H   H1087     1.0  0.49414  0.75852  0.72253  1.0000
  H   H1088     1.0  0.28842  0.81910  0.68950  1.0000
  H   H1089     1.0  0.43968  0.77594  0.85454  1.0000
  H   H1090     1.0  0.18866  0.79967  0.55634  1.0000
  S   S161      1.0  0.40982  0.81170  0.85376  1.0000
  C   C630      1.0  0.30797  0.77491  0.60453  1.0000
  H   H1091     1.0  0.16481  0.79957  0.62074  1.0000
  H   H1092     1.0  0.28008  0.82763  0.60924  1.0000
  H   H1093     1.0  0.20584  0.94159  0.95245  1.0000
  H   H1094     1.0  0.47084  0.79099  0.85928  1.0000
  H   H1095     1.0  0.37935  0.83497  0.76420  1.0000
  C   C631      1.0  0.36328  0.86967  0.76682  1.0000
  C   C632      1.0  0.37906  0.75070  0.74712  1.0000
  S   S162      1.0  0.21465  0.87123  0.47994  1.0000
  H   H1096     1.0  0.15472  0.76482  0.66927  1.0000
  C   C633      1.0  0.32474  0.98479  0.88456  1.0000
  C   C634      1.0  0.35375  0.75289  0.73348  1.0000
  C   C635      1.0  0.36056  0.75511  0.74743  1.0000
  H   H1097     1.0  0.20632  0.83320  0.48373  1.0000
  H   H1098     1.0  0.48978  0.78051  0.80387  1.0000
  H   H1099     1.0  0.33945  0.75666  0.73364  1.0000
  H   H1100     1.0  0.35147  0.76053  0.75836  1.0000
  C   C636      1.0  0.25774  0.95860  0.95987  1.0000
  H   H1101     1.0  0.45145  0.80423  0.85030  1.0000
  Fe  Fe90      1.0  0.10484  0.75563  0.59543  1.0000
  H   H1102     1.0  0.48194  0.78272  0.77474  1.0000
  C   C637      1.0  0.13995  0.83461  0.50437  1.0000
  H   H1103     1.0  0.30752  0.78592  0.66439  1.0000
  H   H1104     1.0  0.17470  0.81299  0.49619  1.0000
  C   C638      1.0  0.48059  0.74303  0.83632  1.0000
  H   H1105     1.0  0.25068  0.80416  0.51693  1.0000
  H   H1106     1.0  0.35971  0.92234  0.95915  1.0000
  C   C639      1.0  0.08238  0.95928  0.48132  1.0000
  C   C640      1.0  0.33336  0.86591  0.95717  1.0000
  H   H1107     1.0  0.19097  0.77337  0.62781  1.0000
  C   C641      1.0  0.14173  0.80141  0.64198  1.0000
  Fe  Fe91      1.0  0.39781  0.98919  0.85213  1.0000
  H   H1108     1.0  0.12777  0.86747  0.48256  1.0000
  H   H1109     1.0  0.17577  0.85301  0.47973  1.0000
  H   H1110     1.0  0.34031  0.87658  0.94825  1.0000
  C   C642      1.0  0.18105  0.82410  0.48755  1.0000
  H   H1111     1.0  0.13257  0.86720  0.51386  1.0000
  H   H1112     1.0  0.49055  0.75613  0.85264  1.0000
  H   H1113     1.0  0.19154  0.74910  0.52581  1.0000
  H   H1114     1.0  0.30801  0.76358  0.66128  1.0000
  H   H1115     1.0  0.14237  0.83783  0.51637  1.0000
  H   H1116     1.0  0.30913  0.85609  0.95991  1.0000
  H   H1117     1.0  0.35618  0.94901  0.81734  1.0000
  C   C643      1.0  0.32836  0.97801  0.90159  1.0000
  S   S163      1.0  0.37235  0.97891  0.85654  1.0000
  H   H1118     1.0  0.47652  0.78007  0.83123  1.0000
  H   H1119     1.0  0.45182  0.81925  0.67163  1.0000
  H   H1120     1.0  0.40503  0.73984  0.73287  1.0000
  H   H1121     1.0  0.11263  0.85138  0.50659  1.0000
  C   C644      1.0  0.30842  0.90093  0.95512  1.0000
  C   C645      1.0  0.20649  0.76967  0.54152  1.0000
  H   H1122     1.0  0.39512  0.95121  0.77865  1.0000
  H   H1123     1.0  0.42613  0.79447  0.62999  1.0000
  H   H1124     1.0  0.16967  0.84525  0.50257  1.0000
  H   H1125     1.0  0.41368  0.81047  0.65535  1.0000
  H   H1126     1.0  0.17016  0.75120  0.54099  1.0000
  H   H1127     1.0  0.43202  0.79217  0.69817  1.0000
  C   C646      1.0  0.06207  0.78854  0.50294  1.0000
  H   H1128     1.0  0.45970  0.76297  0.86209  1.0000
  H   H1129     1.0  0.22297  0.79676  0.53911  1.0000
  H   H1130     1.0  0.28354  0.92132  0.95935  1.0000
  C   C647      1.0  0.25358  0.97972  0.81641  1.0000
  C   C648      1.0  0.45434  0.77529  0.85310  1.0000
  C   C649      1.0  0.39323  0.96254  0.81047  1.0000
  C   C650      1.0  0.18827  0.76299  0.62196  1.0000
  H   H1131     1.0  0.19643  0.74506  0.55565  1.0000
  H   H1132     1.0  0.33356  0.86591  0.97110  1.0000
  H   H1133     1.0  0.08523  0.75433  0.52975  1.0000
  H   H1134     1.0  0.03106  0.76549  0.51142  1.0000
  H   H1135     1.0  0.19781  0.82304  0.50631  1.0000
  H   H1136     1.0  0.44003  0.90851  0.78891  1.0000
  H   H1137     1.0  0.20796  0.80919  0.49004  1.0000
  C   C651      1.0  0.16326  0.83251  0.71950  1.0000
  H   H1138     1.0  0.18824  0.81453  0.69632  1.0000
  H   H1139     1.0  0.20260  0.80551  0.67200  1.0000
  H   H1140     1.0  0.24258  0.75374  0.56149  1.0000
  H   H1141     1.0  0.15096  0.83352  0.71434  1.0000
  H   H1142     1.0  0.15924  0.83761  0.73207  1.0000
  H   H1143     1.0  0.17201  0.84119  0.70976  1.0000
  C   C652      1.0  0.29996  0.78835  0.63100  1.0000
  C   C653      1.0  0.31811  0.78184  0.63738  1.0000
  H   H1144     1.0  0.21556  0.77686  0.57956  1.0000
  H   H1145     1.0  0.30038  0.76438  0.61277  1.0000
  H   H1146     1.0  0.32209  0.76932  0.60604  1.0000
  H   H1147     1.0  0.29351  0.80053  0.63668  1.0000
  H   H1148     1.0  0.29124  0.77826  0.63759  1.0000
  H   H1149     1.0  0.33897  0.79044  0.60641  1.0000
  H   H1150     1.0  0.32686  0.77083  0.63112  1.0000
  H   H1151     1.0  0.32532  0.79319  0.63432  1.0000
  H   H1152     1.0  0.13836  0.90113  0.48569  1.0000
  H   H1153     1.0  0.04334  0.77768  0.53348  1.0000
  C   C654      1.0  0.38521  0.94732  0.79085  1.0000
  H   H1154     1.0  0.20055  0.75249  0.61996  1.0000
  C   C655      1.0  0.44675  0.79310  0.67122  1.0000
  C   C656      1.0  0.14720  0.76357  0.73014  1.0000
  N   N33       1.0  0.25012  0.87928  0.86332  1.0000
  C   C657      1.0  0.26587  0.88843  0.85426  1.0000
  C   C658      1.0  0.23410  0.88740  0.85439  1.0000
  C   C659      1.0  0.24470  0.88281  0.88201  1.0000
  C   C660      1.0  0.25508  0.85924  0.86440  1.0000
  C   C661      1.0  0.26199  0.85285  0.84655  1.0000
  C   C662      1.0  0.28407  0.87929  0.86020  1.0000
  C   C663      1.0  0.22785  0.87565  0.89369  1.0000
  C   C664      1.0  0.23767  0.89316  0.83389  1.0000
  C   C665      1.0  0.22002  0.89846  0.82707  1.0000
  C   C666      1.0  0.27149  0.83316  0.84922  1.0000
  C   C667      1.0  0.29656  0.89261  0.85674  1.0000
  C   C668      1.0  0.22231  0.88227  0.91119  1.0000
  H   H1155     1.0  0.26241  0.90272  0.85583  1.0000
  H   H1156     1.0  0.26886  0.88928  0.83976  1.0000
  H   H1157     1.0  0.22454  0.87798  0.85807  1.0000
  H   H1158     1.0  0.22637  0.89981  0.85931  1.0000
  H   H1159     1.0  0.24219  0.89751  0.88173  1.0000
  H   H1160     1.0  0.25573  0.87687  0.88949  1.0000
  H   H1161     1.0  0.26524  0.85316  0.87297  1.0000
  H   H1162     1.0  0.24327  0.85287  0.87106  1.0000
  H   H1163     1.0  0.27160  0.86077  0.83733  1.0000
  H   H1164     1.0  0.25043  0.85397  0.84023  1.0000
  H   H1165     1.0  0.28249  0.87295  0.87437  1.0000
  H   H1166     1.0  0.29098  0.86844  0.85270  1.0000
  H   H1167     1.0  0.23074  0.86075  0.89692  1.0000
  H   H1168     1.0  0.21609  0.88020  0.88708  1.0000
  H   H1169     1.0  0.24418  0.90504  0.82964  1.0000
  H   H1170     1.0  0.24655  0.88253  0.82714  1.0000
  H   H1171     1.0  0.22272  0.90327  0.81250  1.0000
  H   H1172     1.0  0.21328  0.88679  0.83010  1.0000
  H   H1173     1.0  0.21083  0.90955  0.83315  1.0000
  H   H1174     1.0  0.26231  0.82449  0.85820  1.0000
  H   H1175     1.0  0.27578  0.82885  0.83624  1.0000
  H   H1176     1.0  0.28367  0.83140  0.85485  1.0000
  H   H1177     1.0  0.29121  0.90221  0.86589  1.0000
  H   H1178     1.0  0.31009  0.88531  0.85916  1.0000
  H   H1179     1.0  0.29793  0.90015  0.84286  1.0000
  H   H1180     1.0  0.21805  0.89714  0.90869  1.0000
  H   H1181     1.0  0.21077  0.87636  0.91965  1.0000
  H   H1182     1.0  0.23364  0.87827  0.91842  1.0000
  C   C669      1.0  0.19660  0.79749  0.56667  1.0000
  H   H1183     1.0  0.33708  0.82524  0.57821  1.0000
  H   H1184     1.0  0.39978  0.77792  0.72155  1.0000
  H   H1185     1.0  0.23434  0.97013  0.86946  1.0000
  C   C670      1.0  0.44913  0.75129  0.83260  1.0000
  C   C671      1.0  0.03584  0.75753  0.52351  1.0000
  C   C672      1.0  0.23280  0.98486  0.86444  1.0000
  S   S164      1.0  0.38186  0.75592  0.65289  1.0000
  H   H1186     1.0  0.11405  0.82948  0.53521  1.0000
  C   C673      1.0  0.34362  0.96614  0.96729  1.0000
  C   C674      1.0  0.14033  0.87389  0.50142  1.0000
  H   H1187     1.0  0.34927  0.96914  0.97760  1.0000
  C   C675      1.0  0.38380  0.74076  0.71930  1.0000
  N   N34       1.0  0.46692  0.75751  0.82765  1.0000
  C   C676      1.0  0.49008  0.76798  0.79956  1.0000
  H   H1188     1.0  0.13073  0.89983  0.50917  1.0000
  H   H1189     1.0  0.31115  0.90399  0.94039  1.0000
  H   H1190     1.0  0.31456  0.87119  0.93972  1.0000
  C   C677      1.0  0.31379  0.86905  0.95427  1.0000
  H   H1191     1.0  0.18475  0.76939  0.60889  1.0000
  S   S165      1.0  0.11813  0.74721  0.61954  1.0000
  C   C678      1.0  0.34431  0.84803  0.95264  1.0000
  H   H1192     1.0  0.14496  0.74850  0.69950  1.0000
  H   H1193     1.0  0.43840  0.76225  0.82780  1.0000
  H   H1194     1.0  0.08198  0.95598  0.49582  1.0000
  C   C679      1.0  0.42156  0.76381  0.69543  1.0000
  H   H1195     1.0  0.09479  0.78709  0.55115  1.0000
  C   C680      1.0  0.19500  0.96617  0.97500  1.0000
  N   N35       1.0  0.06603  0.76954  0.51326  1.0000
  C   C681      1.0  0.19319  0.90473  0.47946  1.0000
  H   H1196     1.0  0.22666  0.98199  0.84077  1.0000
  H   H1197     1.0  0.01301  0.77051  0.54109  1.0000
  H   H1198     1.0  0.33867  0.83661  0.96169  1.0000
  H   H1199     1.0  0.44273  0.76236  0.58893  1.0000
  H   H1200     1.0  0.34437  0.84754  0.93873  1.0000
  N   N36       1.0  0.16422  0.88504  0.60318  1.0000
  C   C682      1.0  0.14905  0.87610  0.61454  1.0000
  C   C683      1.0  0.16682  0.89907  0.61200  1.0000
  C   C684      1.0  0.15851  0.89490  0.58591  1.0000
  C   C685      1.0  0.18152  0.87181  0.59911  1.0000
  C   C686      1.0  0.18573  0.85510  0.61373  1.0000
  C   C687      1.0  0.17201  0.90574  0.57245  1.0000
  C   C688      1.0  0.17086  0.89287  0.63095  1.0000
  C   C689      1.0  0.16898  0.90912  0.63927  1.0000
  C   C690      1.0  0.20393  0.84356  0.60765  1.0000
  C   C691      1.0  0.16538  0.91378  0.55506  1.0000
  H   H1201     1.0  0.17831  0.90544  0.60412  1.0000
  H   H1202     1.0  0.15470  0.91007  0.61242  1.0000
  H   H1203     1.0  0.14534  0.90425  0.58847  1.0000
  H   H1204     1.0  0.15632  0.88531  0.57874  1.0000
  H   H1205     1.0  0.18175  0.86643  0.58726  1.0000
  H   H1206     1.0  0.19317  0.87875  0.59534  1.0000
  H   H1207     1.0  0.17558  0.84652  0.61656  1.0000
  H   H1208     1.0  0.18592  0.85873  0.62628  1.0000
  H   H1209     1.0  0.18538  0.89700  0.56935  1.0000
  H   H1210     1.0  0.17370  0.91711  0.57756  1.0000
  H   H1211     1.0  0.16170  0.88432  0.64000  1.0000
  H   H1212     1.0  0.18494  0.88544  0.63037  1.0000
  H   H1213     1.0  0.15481  0.91647  0.64126  1.0000
  H   H1214     1.0  0.17307  0.90463  0.65234  1.0000
  H   H1215     1.0  0.17777  0.91841  0.63072  1.0000
  H   H1216     1.0  0.21485  0.85132  0.60462  1.0000
  H   H1217     1.0  0.20685  0.83165  0.61819  1.0000
  H   H1218     1.0  0.20370  0.83888  0.59560  1.0000
  H   H1219     1.0  0.17561  0.92084  0.54548  1.0000
  H   H1220     1.0  0.16332  0.90305  0.54922  1.0000
  C   C692      1.0  0.04675  0.79321  0.49231  1.0000
  H   H1221     1.0  0.18326  0.75320  0.65676  1.0000
  S   S166      1.0  0.46585  0.75778  0.75672  1.0000
  H   H1222     1.0  0.31029  0.81636  0.61051  1.0000
  C   C693      1.0  0.41140  0.79746  0.63522  1.0000
  H   H1223     1.0  0.41936  0.78221  0.80361  1.0000
  H   H1224     1.0  0.31956  0.95483  0.81621  1.0000
  H   H1225     1.0  0.10916  0.77665  0.53349  1.0000
  H   H1226     1.0  0.15432  0.85461  0.59914  1.0000
  H   H1227     1.0  0.26857  0.81493  0.62891  1.0000
  H   H1228     1.0  0.08043  0.79528  0.52542  1.0000
  H   H1229     1.0  0.45538  0.78582  0.82522  1.0000
  H   H1230     1.0  0.11696  0.81124  0.52385  1.0000
  C   C694      1.0  0.36412  0.90896  0.95535  1.0000
  C   C695      1.0  0.33265  0.79987  0.59580  1.0000
  C   C696      1.0  0.20678  0.77776  0.57010  1.0000
  C   C697      1.0  0.13668  0.75047  0.68940  1.0000
  H   H1231     1.0  0.35289  0.90152  0.96056  1.0000
  S   S167      1.0  0.12804  0.78975  0.63479  1.0000
  C   C698      1.0  0.17334  0.81304  0.72281  1.0000
  H   H1232     1.0  0.16745  0.80836  0.69902  1.0000
  H   H1233     1.0  0.13707  0.88643  0.61842  1.0000
  H   H1234     1.0  0.15271  0.86813  0.62721  1.0000
  H   H1235     1.0  0.25684  0.95950  0.94630  1.0000
  C   C699      1.0  0.31210  0.80645  0.60192  1.0000
  C   C700      1.0  0.34249  0.81565  0.58939  1.0000
  H   H1236     1.0  0.34105  0.82276  0.60035  1.0000
  H   H1237     1.0  0.40054  0.97654  0.78278  1.0000
  H   H1238     1.0  0.44629  0.82635  0.79452  1.0000
  S   S168      1.0  0.11022  0.78375  0.59165  1.0000
  H   H1239     1.0  0.21837  0.79248  0.64646  1.0000
  C   C701      1.0  0.17932  0.80574  0.70536  1.0000
  H   H1240     1.0  0.18518  0.81287  0.72830  1.0000
  H   H1241     1.0  0.27343  0.78885  0.61447  1.0000
  C   C702      1.0  0.28189  0.79922  0.60806  1.0000
  C   C703      1.0  0.27189  0.81701  0.61430  1.0000
  C   C704      1.0  0.23487  0.76434  0.72120  1.0000
  C   C705      1.0  0.29980  0.82372  0.69180  1.0000
  N   N37       1.0  0.25502  0.98335  0.83387  1.0000
  H   H1242     1.0  0.16429  0.80506  0.73294  1.0000
  H   H1243     1.0  0.13454  0.87140  0.59600  1.0000
  H   H1244     1.0  0.33524  0.79281  0.58462  1.0000
  H   H1245     1.0  0.06777  0.78164  0.54360  1.0000
  C   C706      1.0  0.28761  0.86325  0.74942  1.0000
  H   H1246     1.0  0.35118  0.81245  0.84363  1.0000
  C   C707      1.0  0.20656  0.79074  0.67442  1.0000
  C   C708      1.0  0.14274  0.86342  0.60594  1.0000
  H   H1247     1.0  0.35704  0.81061  0.58475  1.0000
  H   H1248     1.0  0.37273  0.89735  0.93216  1.0000
  C   C709      1.0  0.20904  0.78495  0.65681  1.0000
  H   H1249     1.0  0.21376  0.79434  0.70553  1.0000
  H   H1250     1.0  0.21978  0.78725  0.67837  1.0000
  H   H1251     1.0  0.19604  0.78765  0.65243  1.0000
  H   H1252     1.0  0.24215  0.77525  0.71361  1.0000
  H   H1253     1.0  0.30717  0.81442  0.58973  1.0000
  H   H1254     1.0  0.24759  0.83712  0.61200  1.0000
  H   H1255     1.0  0.17756  0.77101  0.52705  1.0000
  Fe  Fe92      1.0  0.45146  0.75832  0.73545  1.0000
  H   H1256     1.0  0.44421  0.91008  0.80996  1.0000
  C   C710      1.0  0.25770  0.78998  0.52033  1.0000
  H   H1257     1.0  0.41540  0.93135  0.88931  1.0000
  C   C711      1.0  0.41874  0.80908  0.83181  1.0000
  H   H1258     1.0  0.34065  0.94144  0.89915  1.0000
  H   H1259     1.0  0.25187  0.76364  0.53080  1.0000
  H   H1260     1.0  0.37576  0.90129  0.96150  1.0000
  H   H1261     1.0  0.28447  0.86580  0.65748  1.0000
  C   C712      1.0  0.41255  0.93422  0.80432  1.0000
  C   C713      1.0  0.36283  0.81906  0.83702  1.0000
  H   H1262     1.0  0.37540  0.80897  0.83831  1.0000
  H   H1263     1.0  0.36235  0.82995  0.84392  1.0000
  N   N38       1.0  0.18866  0.78635  0.70681  1.0000
  H   H1264     1.0  0.20274  0.78621  0.72721  1.0000
  C   C714      1.0  0.25410  0.82414  0.60785  1.0000
  H   H1265     1.0  0.28175  0.80191  0.59367  1.0000
  C   C715      1.0  0.19242  0.78156  0.68877  1.0000
  C   C716      1.0  0.20583  0.78395  0.71339  1.0000
  H   H1266     1.0  0.17988  0.78518  0.68330  1.0000
  H   H1267     1.0  0.17623  0.77537  0.73354  1.0000
  H   H1268     1.0  0.06852  0.96097  0.47904  1.0000
  C   C717      1.0  0.30698  0.77599  0.58499  1.0000
  H   H1269     1.0  0.05980  0.75663  0.49471  1.0000
  H   H1270     1.0  0.25636  0.82650  0.59317  1.0000
  H   H1271     1.0  0.26680  0.78615  0.50817  1.0000
  H   H1272     1.0  0.42650  0.89725  0.90985  1.0000
  H   H1273     1.0  0.39368  0.96022  0.89681  1.0000
  N   N39       1.0  0.21794  0.77055  0.55400  1.0000
  C   C718      1.0  0.42871  0.79455  0.68480  1.0000
  H   H1274     1.0  0.31073  0.78847  0.57627  1.0000
  H   H1275     1.0  0.43208  0.74700  0.58329  1.0000
  H   H1276     1.0  0.37367  0.95896  0.79085  1.0000
  H   H1277     1.0  0.42514  0.87486  0.89330  1.0000
  C   C719      1.0  0.36193  0.82662  0.81753  1.0000
  H   H1278     1.0  0.37740  0.84677  0.81499  1.0000
  H   H1279     1.0  0.39069  0.82625  0.81025  1.0000
  H   H1280     1.0  0.17531  0.74765  0.69031  1.0000
  C   C720      1.0  0.17696  0.77419  0.71966  1.0000
  S   S169      1.0  0.15271  0.76484  0.59526  1.0000
  H   H1281     1.0  0.26710  0.97680  0.80788  1.0000
  C   C721      1.0  0.31904  0.75993  0.57763  1.0000
  H   H1282     1.0  0.29305  0.77584  0.58423  1.0000
  C   C722      1.0  0.40816  0.93207  0.90317  1.0000
  H   H1283     1.0  0.40649  0.78641  0.83447  1.0000
  H   H1284     1.0  0.40511  0.90563  0.88874  1.0000
  H   H1285     1.0  0.38507  0.94063  0.88409  1.0000
  H   H1286     1.0  0.28616  0.89199  0.94013  1.0000
  C   C723      1.0  0.37810  0.83592  0.80786  1.0000
  H   H1287     1.0  0.34901  0.83625  0.81701  1.0000
  H   H1288     1.0  0.39072  0.87733  0.78282  1.0000
  H   H1289     1.0  0.18311  0.75991  0.71912  1.0000
  S   S170      1.0  0.43503  0.74938  0.64027  1.0000
  H   H1290     1.0  0.34961  0.92081  0.83598  1.0000
  C   C724      1.0  0.41406  0.89165  0.91309  1.0000
  H   H1291     1.0  0.42978  0.86453  0.91502  1.0000
  C   C725      1.0  0.19938  0.82232  0.49220  1.0000
  H   H1292     1.0  0.38962  0.80515  0.79558  1.0000
  H   H1293     1.0  0.36168  0.81525  0.81161  1.0000
  H   H1294     1.0  0.42108  0.88007  0.78367  1.0000
  H   H1295     1.0  0.42140  0.87179  0.76423  1.0000
  H   H1296     1.0  0.21479  0.77043  0.65808  1.0000
  H   H1297     1.0  0.15401  0.87343  0.50351  1.0000
  S   S171      1.0  0.27110  0.74344  0.63303  1.0000
  C   C726      1.0  0.13103  0.85148  0.61973  1.0000
  H   H1298     1.0  0.26818  0.88468  0.66476  1.0000
  H   H1299     1.0  0.44479  0.74801  0.84725  1.0000
  C   C727      1.0  0.39944  0.90421  0.90317  1.0000
  C   C728      1.0  0.41940  0.87334  0.90772  1.0000
  H   H1300     1.0  0.36409  0.86906  0.79406  1.0000
  H   H1301     1.0  0.37931  0.93515  0.93036  1.0000
  C   C729      1.0  0.42990  0.82036  0.82047  1.0000
  H   H1302     1.0  0.35696  0.91856  0.92993  1.0000
  C   C730      1.0  0.39039  0.81145  0.78140  1.0000
  C   C731      1.0  0.40031  0.86484  0.78687  1.0000
  C   C732      1.0  0.41926  0.86851  0.77892  1.0000
  H   H1303     1.0  0.39954  0.85181  0.76585  1.0000
  H   H1304     1.0  0.40440  0.81326  0.77556  1.0000
  H   H1305     1.0  0.39879  0.86210  0.80147  1.0000
  H   H1306     1.0  0.24420  0.75126  0.72027  1.0000
  Fe  Fe93      1.0  0.12693  0.77422  0.61332  1.0000
  H   H1307     1.0  0.19694  0.76680  0.68971  1.0000
  H   H1308     1.0  0.46147  0.76998  0.80152  1.0000
  H   H1309     1.0  0.16938  0.74612  0.62652  1.0000
  N   N40       1.0  0.39240  0.92257  0.90789  1.0000
  C   C733      1.0  0.37850  0.93355  0.89710  1.0000
  H   H1310     1.0  0.40909  0.88937  0.92762  1.0000
  C   C734      1.0  0.08037  0.78152  0.53344  1.0000
  H   H1311     1.0  0.34089  0.92844  0.88329  1.0000
  H   H1312     1.0  0.38767  0.78232  0.69286  1.0000
  N   N41       1.0  0.37905  0.84341  0.78829  1.0000
  C   C735      1.0  0.39712  0.84875  0.78058  1.0000
  H   H1313     1.0  0.37233  0.79590  0.77753  1.0000
  H   H1314     1.0  0.41935  0.96754  0.79386  1.0000
  H   H1315     1.0  0.38856  0.89662  0.90544  1.0000
  H   H1316     1.0  0.36987  0.94439  0.90387  1.0000
  H   H1317     1.0  0.18153  0.94564  0.95838  1.0000
  C   C736      1.0  0.36386  0.85933  0.78607  1.0000
  C   C737      1.0  0.37714  0.82971  0.77873  1.0000
  C   C738      1.0  0.38631  0.79819  0.77233  1.0000
  H   H1318     1.0  0.14540  0.81997  0.50530  1.0000
  H   H1319     1.0  0.35063  0.85516  0.79142  1.0000
  H   H1320     1.0  0.20037  0.78343  0.53526  1.0000
  C   C739      1.0  0.13101  0.89360  0.49790  1.0000
  H   H1321     1.0  0.12780  0.77899  0.69007  1.0000
  H   H1322     1.0  0.40756  0.86677  0.91089  1.0000
  H   H1323     1.0  0.36191  0.91263  0.90334  1.0000
  H   H1324     1.0  0.36314  0.82719  0.78243  1.0000
  H   H1325     1.0  0.40812  0.83725  0.78392  1.0000
  H   H1326     1.0  0.12693  0.84245  0.61322  1.0000
  C   C740      1.0  0.08215  0.76793  0.52141  1.0000
  H   H1327     1.0  0.23829  0.78517  0.55330  1.0000
  H   H1328     1.0  0.43771  0.89030  0.80775  1.0000
  C   C741      1.0  0.36607  0.92339  0.89239  1.0000
  C   C742      1.0  0.34899  0.93598  0.88748  1.0000
  H   H1329     1.0  0.39555  0.91564  0.93526  1.0000
  H   H1330     1.0  0.37341  0.91710  0.88093  1.0000
  H   H1331     1.0  0.35232  0.94724  0.87647  1.0000
  C   C743      1.0  0.38475  0.92145  0.92742  1.0000
  H   H1332     1.0  0.38828  0.80317  0.75778  1.0000
  H   H1333     1.0  0.34761  0.89318  0.75264  1.0000
  S   S172      1.0  0.34923  0.97848  0.90579  1.0000
  H   H1334     1.0  0.15386  0.74961  0.72874  1.0000
  H   H1335     1.0  0.35114  0.89602  0.77331  1.0000
  H   H1336     1.0  0.37613  0.87412  0.76019  1.0000
  C   C744      1.0  0.34835  0.88640  0.76654  1.0000
  H   H1337     1.0  0.39562  0.78512  0.77499  1.0000
  S   S173      1.0  0.24016  0.93046  0.96823  1.0000
  H   H1338     1.0  0.25285  0.83083  0.69982  1.0000
  H   H1339     1.0  0.42707  0.76431  0.70693  1.0000
  C   C745      1.0  0.41508  0.79521  0.82571  1.0000
  H   H1340     1.0  0.28876  0.85727  0.76340  1.0000
  H   H1341     1.0  0.19255  0.95380  0.93612  1.0000
  C   C746      1.0  0.42243  0.79276  0.80827  1.0000
  H   H1342     1.0  0.46238  0.91383  0.84113  1.0000
  H   H1343     1.0  0.36048  0.86110  0.75892  1.0000
  H   H1344     1.0  0.33508  0.88278  0.77321  1.0000
  H   H1345     1.0  0.43335  0.83064  0.82525  1.0000
  H   H1346     1.0  0.39286  0.80278  0.65893  1.0000
  C   C747      1.0  0.17763  0.74406  0.65171  1.0000
  H   H1347     1.0  0.25003  0.84685  0.72545  1.0000
  C   C748      1.0  0.36915  0.91102  0.93520  1.0000
  H   H1348     1.0  0.05812  0.79831  0.51196  1.0000
  C   C749      1.0  0.40768  0.79924  0.65461  1.0000
  C   C750      1.0  0.15743  0.77707  0.71673  1.0000
  C   C751      1.0  0.43368  0.80399  0.79699  1.0000
  C   C752      1.0  0.43738  0.81779  0.80312  1.0000
  H   H1349     1.0  0.35739  0.94812  0.77373  1.0000
  S   S174      1.0  0.42756  0.77870  0.74434  1.0000
  H   H1350     1.0  0.22292  0.98023  0.97438  1.0000
  H   H1351     1.0  0.40535  0.78649  0.63387  1.0000
  C   C753      1.0  0.46381  0.77518  0.83351  1.0000
  C   C754      1.0  0.44884  0.92142  0.84414  1.0000
  H   H1352     1.0  0.28218  0.93120  0.84831  1.0000
  C   C755      1.0  0.39073  0.74348  0.73306  1.0000
  H   H1353     1.0  0.30663  0.83769  0.70855  1.0000
  H   H1354     1.0  0.22799  0.82853  0.72593  1.0000
  C   C756      1.0  0.29109  0.94079  0.84695  1.0000
  H   H1355     1.0  0.30479  0.93513  0.84028  1.0000
  H   H1356     1.0  0.29185  0.94234  0.86029  1.0000
  H   H1357     1.0  0.32744  0.81172  0.69495  1.0000
  H   H1358     1.0  0.23571  0.80795  0.71760  1.0000
  H   H1359     1.0  0.24207  0.80958  0.73746  1.0000
  H   H1360     1.0  0.18075  0.76569  0.55921  1.0000
  H   H1361     1.0  0.41217  0.90877  0.82368  1.0000
  C   C757      1.0  0.14145  0.86494  0.48563  1.0000
  H   H1362     1.0  0.37934  0.97072  0.81229  1.0000
  C   C758      1.0  0.09615  0.77687  0.54308  1.0000
  H   H1363     1.0  0.29147  0.86464  0.71532  1.0000
  C   C759      1.0  0.23946  0.81709  0.72424  1.0000
  H   H1364     1.0  0.40548  0.81021  0.62713  1.0000
  H   H1365     1.0  0.16101  0.76580  0.63596  1.0000
  H   H1366     1.0  0.25636  0.95543  0.84611  1.0000
  H   H1367     1.0  0.26452  0.96753  0.85760  1.0000
  C   C760      1.0  0.22932  0.75227  0.55961  1.0000
  H   H1368     1.0  0.21142  0.75440  0.72194  1.0000
  C   C761      1.0  0.25629  0.87415  0.95489  1.0000
  H   H1369     1.0  0.40326  0.80065  0.71478  1.0000
  C   C762      1.0  0.17268  0.75481  0.63386  1.0000
  H   H1370     1.0  0.40681  0.77159  0.66696  1.0000
  C   C763      1.0  0.26419  0.96612  0.84411  1.0000
  C   C764      1.0  0.28392  0.95891  0.83601  1.0000
  C   C765      1.0  0.30797  0.98499  0.88113  1.0000
  H   H1371     1.0  0.28540  0.95701  0.82234  1.0000
  C   C766      1.0  0.49175  0.74495  0.68568  1.0000
  H   H1372     1.0  0.36792  0.92721  0.79939  1.0000
  H   H1373     1.0  0.26529  0.82805  0.73454  1.0000
  H   H1374     1.0  0.23701  0.77829  0.51689  1.0000
  H   H1375     1.0  0.35845  0.84657  0.95399  1.0000
  H   H1376     1.0  0.25665  0.98826  0.77962  1.0000
  C   C767      1.0  0.25622  0.82387  0.71287  1.0000
  H   H1377     1.0  0.26697  0.81189  0.71132  1.0000
  H   H1378     1.0  0.29156  0.88613  0.65745  1.0000
  H   H1379     1.0  0.39839  0.95351  0.91882  1.0000
  H   H1380     1.0  0.27740  0.87590  0.74926  1.0000
  C   C768      1.0  0.14840  0.75310  0.67049  1.0000
  S   S175      1.0  0.46336  0.76215  0.70662  1.0000
  H   H1381     1.0  0.27118  0.98103  0.95353  1.0000
  H   H1382     1.0  0.32020  0.93191  0.95467  1.0000
  H   H1383     1.0  0.40057  0.94881  0.85486  1.0000
  C   C769      1.0  0.26207  0.83645  0.72182  1.0000
  H   H1384     1.0  0.41815  0.92531  0.91175  1.0000
  H   H1385     1.0  0.38937  0.92008  0.78566  1.0000
  C   C770      1.0  0.18210  0.75751  0.53487  1.0000
  H   H1386     1.0  0.42027  0.93801  0.81256  1.0000
  C   C771      1.0  0.32146  0.96838  0.81033  1.0000
  H   H1387     1.0  0.42949  0.85664  0.78310  1.0000
  C   C772      1.0  0.22186  0.74026  0.57731  1.0000
  S   S176      1.0  0.30418  0.96669  0.78281  1.0000
  H   H1388     1.0  0.31938  0.80293  0.67999  1.0000
  H   H1389     1.0  0.36457  0.92548  0.76999  1.0000
  H   H1390     1.0  0.26781  0.86945  0.72255  1.0000
  H   H1391     1.0  0.27212  0.84779  0.68515  1.0000
  C   C773      1.0  0.27272  0.85644  0.69410  1.0000
  N   N42       1.0  0.27755  0.84543  0.71137  1.0000
  S   S177      1.0  0.44348  0.80108  0.77526  1.0000
  C   C774      1.0  0.29490  0.83177  0.70883  1.0000
  H   H1392     1.0  0.14980  0.79068  0.71840  1.0000
  H   H1393     1.0  0.25882  0.86447  0.69654  1.0000
  H   H1394     1.0  0.26909  0.84697  0.74970  1.0000
  C   C775      1.0  0.40373  0.95212  0.90484  1.0000
  H   H1395     1.0  0.37067  0.81164  0.71478  1.0000
  C   C776      1.0  0.37558  0.79773  0.72150  1.0000
  C   C777      1.0  0.36929  0.93711  0.77180  1.0000
  C   C778      1.0  0.41586  0.91336  0.80912  1.0000
  C   C779      1.0  0.37825  0.93155  0.78795  1.0000
  H   H1396     1.0  0.36707  0.78873  0.72029  1.0000
  H   H1397     1.0  0.03354  0.79367  0.50156  1.0000
  C   C780      1.0  0.27965  0.85824  0.72196  1.0000
  C   C781      1.0  0.28203  0.85005  0.74132  1.0000
  H   H1398     1.0  0.33256  0.97140  0.83195  1.0000
  H   H1399     1.0  0.29487  0.82041  0.72044  1.0000
  N   N43       1.0  0.41618  0.78250  0.68481  1.0000
  C   C782      1.0  0.28214  0.87696  0.66466  1.0000
  H   H1400     1.0  0.48212  0.74482  0.67795  1.0000
  H   H1401     1.0  0.37421  0.79752  0.73580  1.0000
  C   C783      1.0  0.18378  0.80248  0.58339  1.0000
  C   C784      1.0  0.43569  0.90515  0.80352  1.0000
  C   C785      1.0  0.41402  0.94125  0.85192  1.0000
  H   H1402     1.0  0.27926  0.75794  0.69744  1.0000
  C   C786      1.0  0.28524  0.86976  0.68360  1.0000
  H   H1403     1.0  0.26601  0.78897  0.53022  1.0000
  H   H1404     1.0  0.05505  0.75551  0.53945  1.0000
  H   H1405     1.0  0.30383  0.83394  0.67999  1.0000
  H   H1406     1.0  0.28245  0.88152  0.69008  1.0000
  H   H1407     1.0  0.29961  0.86331  0.68310  1.0000
  H   H1408     1.0  0.31172  0.79652  0.70350  1.0000
  H   H1409     1.0  0.09642  0.82784  0.52494  1.0000
  S   S178      1.0  0.27393  0.97878  0.89001  1.0000
  C   C787      1.0  0.44596  0.94017  0.84198  1.0000
  N   N44       1.0  0.39321  0.94430  0.80717  1.0000
  C   C788      1.0  0.31583  0.97669  0.79416  1.0000
  H   H1410     1.0  0.30688  0.93652  0.93774  1.0000
  C   C789      1.0  0.19330  0.95144  0.95034  1.0000
  H   H1411     1.0  0.19056  0.79818  0.59490  1.0000
  H   H1412     1.0  0.17181  0.79619  0.58635  1.0000
  H   H1413     1.0  0.32853  0.77015  0.66151  1.0000
  C   C790      1.0  0.12185  0.76698  0.69174  1.0000
  C   C791      1.0  0.23054  0.78322  0.54411  1.0000
  H   H1414     1.0  0.37893  0.94160  0.75963  1.0000
  C   C792      1.0  0.39527  0.79121  0.71348  1.0000
  H   H1415     1.0  0.19665  0.76945  0.57742  1.0000
  H   H1416     1.0  0.07453  0.79185  0.49353  1.0000
  H   H1417     1.0  0.40949  0.75783  0.70126  1.0000
  H   H1418     1.0  0.20613  0.80689  0.56236  1.0000
  C   C793      1.0  0.47251  0.76063  0.80769  1.0000
  C   C794      1.0  0.31556  0.80776  0.69269  1.0000
  H   H1419     1.0  0.33811  0.93873  0.84751  1.0000
  C   C795      1.0  0.35158  0.93115  0.84237  1.0000
  H   H1420     1.0  0.35839  0.92439  0.85364  1.0000
  H   H1421     1.0  0.17923  0.81726  0.58150  1.0000
  C   C796      1.0  0.42064  0.96033  0.89842  1.0000
  H   H1422     1.0  0.39288  0.80422  0.68686  1.0000
  C   C797      1.0  0.42854  0.95014  0.84590  1.0000
  C   C798      1.0  0.39746  0.79026  0.69373  1.0000
  C   C799      1.0  0.07131  0.75676  0.50052  1.0000
  S   S179      1.0  0.42538  0.97363  0.84286  1.0000
  H   H1423     1.0  0.29241  0.83755  0.74200  1.0000
  H   H1424     1.0  0.45727  0.94696  0.83731  1.0000
  C   C800      1.0  0.29745  0.91812  0.96172  1.0000
  H   H1425     1.0  0.41950  0.93818  0.79037  1.0000
  C   C801      1.0  0.36267  0.94394  0.82899  1.0000
  H   H1426     1.0  0.38891  0.93242  0.83503  1.0000
  H   H1427     1.0  0.32866  0.74005  0.63978  1.0000
  H   H1428     1.0  0.38218  0.92093  0.82199  1.0000
  H   H1429     1.0  0.00942  0.75113  0.53495  1.0000
  C   C802      1.0  0.30633  0.93419  0.95222  1.0000
  H   H1430     1.0  0.39789  0.96112  0.82304  1.0000
  C   C803      1.0  0.11122  0.82573  0.52364  1.0000
  H   H1431     1.0  0.42192  0.80891  0.68227  1.0000
  C   C804      1.0  0.38239  0.93457  0.82351  1.0000
  H   H1432     1.0  0.29843  0.94642  0.95715  1.0000
  H   H1433     1.0  0.33327  0.75900  0.57836  1.0000
  C   C805      1.0  0.41528  0.78142  0.66636  1.0000
  H   H1434     1.0  0.41742  0.97440  0.90043  1.0000
  H   H1435     1.0  0.36225  0.95534  0.83523  1.0000
  H   H1436     1.0  0.40792  0.90772  0.80281  1.0000
  C   C806      1.0  0.43955  0.74868  0.59287  1.0000
  H   H1437     1.0  0.24774  0.96749  0.81866  1.0000
  C   C807      1.0  0.28354  0.88689  0.95471  1.0000
  H   H1438     1.0  0.33291  0.97934  0.94420  1.0000
  C   C808      1.0  0.29490  0.97793  0.89462  1.0000
  H   H1439     1.0  0.09439  0.76932  0.51085  1.0000
  H   H1440     1.0  0.20477  0.97471  0.94634  1.0000
  H   H1441     1.0  0.47220  0.74799  0.64127  1.0000
  C   C809      1.0  0.05029  0.76542  0.52801  1.0000
  H   H1442     1.0  0.43130  0.95267  0.90593  1.0000
  H   H1443     1.0  0.35406  0.95661  0.96012  1.0000
  H   H1444     1.0  0.11308  0.76964  0.68187  1.0000
  H   H1445     1.0  0.29245  0.96837  0.83594  1.0000
  C   C810      1.0  0.40493  0.97415  0.79558  1.0000
  C   C811      1.0  0.01945  0.75683  0.53859  1.0000
  H   H1446     1.0  0.35042  0.98884  0.94772  1.0000
  H   H1447     1.0  0.25608  0.88005  0.94073  1.0000
  H   H1448     1.0  0.42584  0.96041  0.88406  1.0000
  C   C812      1.0  0.32943  0.97760  0.81906  1.0000
  H   H1449     1.0  0.33186  0.95963  0.97377  1.0000
  H   H1450     1.0  0.09633  0.76361  0.55217  1.0000
  C   C813      1.0  0.33808  0.98332  0.95417  1.0000
  H   H1451     1.0  0.11695  0.89478  0.49644  1.0000
  C   C814      1.0  0.45650  0.79162  0.85918  1.0000
  H   H1452     1.0  0.18068  0.97847  0.95261  1.0000
  H   H1453     1.0  0.21502  0.76343  0.53034  1.0000
  H   H1454     1.0  0.47470  0.74792  0.80283  1.0000
  C   C815      1.0  0.19330  0.96915  0.95532  1.0000
  S   S180      1.0  0.36167  0.74720  0.61604  1.0000
  H   H1455     1.0  0.05731  0.89218  0.48525  1.0000
  H   H1456     1.0  0.44723  0.75363  0.67830  1.0000
  H   H1457     1.0  0.15735  0.77541  0.70326  1.0000
  H   H1458     1.0  0.08107  0.98724  0.47989  1.0000
  C   C816      1.0  0.24414  0.77750  0.52765  1.0000
  H   H1459     1.0  0.43073  0.74748  0.60619  1.0000
  H   H1460     1.0  0.20750  0.73993  0.57888  1.0000
  C   C817      1.0  0.48604  0.75244  0.70089  1.0000
  S   S181      1.0  0.07882  0.74793  0.59231  1.0000
  H   H1461     1.0  0.32157  0.89889  0.95907  1.0000
  H   H1462     1.0  0.23085  0.76560  0.73533  1.0000
  N   N45       1.0  0.30046  0.88418  0.96185  1.0000
  H   H1463     1.0  0.20369  0.98809  0.86818  1.0000
  H   H1464     1.0  0.20132  0.90693  0.48772  1.0000
  H   H1465     1.0  0.27288  0.89755  0.95998  1.0000
  C   C818      1.0  0.27558  0.86971  0.95787  1.0000
  C   C819      1.0  0.23608  0.98901  0.84387  1.0000
  H   H1466     1.0  0.23666  0.97866  0.78920  1.0000
  H   H1467     1.0  0.23263  0.74438  0.54891  1.0000
  C   C820      1.0  0.25064  0.94547  0.97333  1.0000
  H   H1468     1.0  0.17683  0.93135  0.47782  1.0000
  H   H1469     1.0  0.25074  0.86166  0.95831  1.0000
  H   H1470     1.0  0.22327  0.74543  0.58870  1.0000
  H   H1471     1.0  0.04133  0.74358  0.52139  1.0000
  H   H1472     1.0  0.04464  0.82228  0.48806  1.0000
  H   H1473     1.0  0.24759  0.88367  0.96326  1.0000
  H   H1474     1.0  0.29706  0.91661  0.97608  1.0000
  H   H1475     1.0  0.27577  0.86178  0.97147  1.0000
  H   H1476     1.0  0.20806  0.95683  0.97602  1.0000
  Fe  Fe94      1.0  0.92137  0.12708  0.30590  1.0000
  S   S182      1.0  0.89786  0.11342  0.31635  1.0000
  S   S183      1.0  0.92988  0.13597  0.32690  1.0000
  S   S184      1.0  0.90334  0.10462  0.27701  1.0000
  Fe  Fe95      1.0  0.88914  0.12734  0.29083  1.0000
  S   S185      1.0  0.85957  0.13803  0.29252  1.0000
  Fe  Fe96      1.0  0.91418  0.09210  0.30174  1.0000
  S   S186      1.0  0.91571  0.06294  0.31376  1.0000
  S   S187      1.0  0.91138  0.14301  0.28134  1.0000
  Fe  Fe97      1.0  0.76351  0.22496  0.09218  1.0000
  H   H1477     1.0  0.72788  0.19954  0.17636  1.0000
  C   C821      1.0  0.87540  0.16337  0.32500  1.0000
  H   H1478     1.0  0.86600  0.09821  0.24668  1.0000
  Fe  Fe98      1.0  0.84611  0.20631  0.21158  1.0000
  S   S188      1.0  0.83446  0.18140  0.22156  1.0000
  H   H1479     1.0  0.83586  0.18663  0.29329  1.0000
  H   H1480     1.0  0.73883  0.21346  0.15706  1.0000
  H   H1481     1.0  0.80677  0.18050  0.20007  1.0000
  C   C822      1.0  0.70517  0.19168  0.14943  1.0000
  H   H1482     1.0  0.94777  0.10416  0.18171  1.0000
  N   N46       1.0  0.97219  0.03887  0.28943  1.0000
  Fe  Fe99      1.0  0.96928  0.01157  0.38048  1.0000
  S   S189      1.0  0.95483  0.04027  0.37899  1.0000
  C   C823      1.0  0.82054  0.16514  0.18030  1.0000
  C   C824      1.0  0.92336  0.21010  0.20346  1.0000
  C   C825      1.0  0.73693  0.20942  0.17172  1.0000
  H   H1483     1.0  0.69629  0.22104  0.05463  1.0000
  C   C826      1.0  0.88715  0.20179  0.27199  1.0000
  H   H1484     1.0  0.93856  0.17286  0.24706  1.0000
  H   H1485     1.0  0.95270  0.07800  0.24698  1.0000
  H   H1486     1.0  0.94417  0.99678  0.31605  1.0000
  H   H1487     1.0  0.95165  0.18978  0.23537  1.0000
  H   H1488     1.0  0.69437  0.18689  0.09649  1.0000
  C   C827      1.0  0.94279  0.18051  0.33325  1.0000
  C   C828      1.0  0.97971  0.19684  0.27466  1.0000
  H   H1489     1.0  0.85618  0.15347  0.34814  1.0000
  C   C829      1.0  0.95581  0.20547  0.19468  1.0000
  C   C830      1.0  0.95220  0.17603  0.24348  1.0000
  Fe  Fe100     1.0  0.54407  0.20678  0.01907  1.0000
  S   S190      1.0  0.51715  0.22231  0.02985  1.0000
  S   S191      1.0  0.56965  0.21246  0.02551  1.0000
  N   N47       1.0  0.98655  0.17800  0.27124  1.0000
  H   H1490     1.0  0.76071  0.18900  0.17109  1.0000
  Fe  Fe101     1.0  0.51163  0.22594  0.00265  1.0000
  H   H1491     1.0  0.79852  0.19124  0.16228  1.0000
  S   S192      1.0  0.53453  0.18019  0.02508  1.0000
  H   H1492     1.0  0.72107  0.23715  0.05181  1.0000
  H   H1493     1.0  0.72753  0.18368  0.08788  1.0000
  C   C831      1.0  0.90629  0.19612  0.26211  1.0000
  H   H1494     1.0  0.86377  0.13821  0.22966  1.0000
  H   H1495     1.0  0.84899  0.18096  0.32515  1.0000
  H   H1496     1.0  0.85666  0.07287  0.31890  1.0000
  H   H1497     1.0  0.98031  0.18849  0.24508  1.0000
  C   C832      1.0  0.69696  0.21063  0.14095  1.0000
  H   H1498     1.0  0.91642  0.15881  0.23970  1.0000
  H   H1499     1.0  0.91041  0.20754  0.25179  1.0000
  H   H1500     1.0  0.87713  0.12581  0.24572  1.0000
  C   C833      1.0  0.94023  0.16293  0.33552  1.0000
  H   H1501     1.0  0.91031  0.02557  0.38329  1.0000
  Fe  Fe102     1.0  0.52564  0.18705  0.99843  1.0000
  H   H1502     1.0  0.80511  0.20760  0.20496  1.0000
  H   H1503     1.0  0.96896  0.00176  0.28966  1.0000
  C   C834      1.0  0.84612  0.21679  0.15127  1.0000
  C   C835      1.0  0.57424  0.22466  0.04019  1.0000
  C   C836      1.0  0.97276  0.05155  0.30087  1.0000
  C   C837      1.0  0.79430  0.19127  0.17677  1.0000
  C   C838      1.0  0.69249  0.22381  0.15398  1.0000
  C   C839      1.0  0.97303  0.11843  0.25193  1.0000
  C   C840      1.0  0.71651  0.22821  0.08902  1.0000
  H   H1504     1.0  0.52176  0.14743  0.01966  1.0000
  H   H1505     1.0  0.96479  0.19952  0.27872  1.0000
  C   C841      1.0  0.93063  0.18878  0.30647  1.0000
  H   H1506     1.0  0.92751  0.12937  0.19550  1.0000
  C   C842      1.0  0.92837  0.17101  0.30857  1.0000
  H   H1507     1.0  0.94390  0.15300  0.34684  1.0000
  C   C843      1.0  0.75501  0.20100  0.17726  1.0000
  C   C844      1.0  0.70049  0.19848  0.09425  1.0000
  N   N48       1.0  0.86737  0.19306  0.30289  1.0000
  H   H1508     1.0  0.87773  0.13864  0.34448  1.0000
  H   H1509     1.0  0.98612  0.01402  0.26547  1.0000
  H   H1510     1.0  0.86491  0.22064  0.35089  1.0000
  H   H1511     1.0  0.90987  0.20001  0.18836  1.0000
  S   S193      1.0  0.90394  0.21888  0.21746  1.0000
  C   C845      1.0  0.93993  0.21191  0.20577  1.0000
  C   C846      1.0  0.78562  0.20970  0.22879  1.0000
  H   H1512     1.0  0.87785  0.17667  0.28278  1.0000
  H   H1513     1.0  0.88865  0.19526  0.31511  1.0000
  C   C847      1.0  0.89327  0.14263  0.19301  1.0000
  H   H1514     1.0  0.97400  0.08494  0.23807  1.0000
  S   S194      1.0  0.49856  0.20210  0.00874  1.0000
  H   H1515     1.0  0.92722  0.19863  0.29510  1.0000
  H   H1516     1.0  0.85510  0.09632  0.30859  1.0000
  H   H1517     1.0  0.85660  0.16895  0.30776  1.0000
  S   S195      1.0  0.93869  0.10436  0.29330  1.0000
  Fe  Fe103     1.0  0.92655  0.11888  0.26963  1.0000
  H   H1518     1.0  0.92324  0.16720  0.29883  1.0000
  H   H1519     1.0  0.61052  0.23239  0.05293  1.0000
  Fe  Fe104     1.0  0.92546  0.23765  0.29954  1.0000
  C   C848      1.0  0.92636  0.05693  0.33198  1.0000
  C   C849      1.0  0.93014  0.03887  0.34017  1.0000
  C   C850      1.0  0.93900  0.03377  0.35450  1.0000
  C   C851      1.0  0.94364  0.04672  0.36108  1.0000
  C   C852      1.0  0.93956  0.06485  0.35311  1.0000
  C   C853      1.0  0.93120  0.06994  0.33835  1.0000
  H   H1520     1.0  0.92639  0.02875  0.33534  1.0000
  H   H1521     1.0  0.94206  0.01979  0.36052  1.0000
  H   H1522     1.0  0.94327  0.07490  0.35806  1.0000
  H   H1523     1.0  0.92841  0.08393  0.33203  1.0000
  C   C854      1.0  0.85313  0.15001  0.27255  1.0000
  C   C855      1.0  0.86448  0.15999  0.25952  1.0000
  C   C856      1.0  0.85850  0.17023  0.24410  1.0000
  C   C857      1.0  0.84163  0.16965  0.24126  1.0000
  C   C858      1.0  0.83054  0.15930  0.25408  1.0000
  C   C859      1.0  0.83611  0.14984  0.26986  1.0000
  H   H1524     1.0  0.87772  0.16005  0.26139  1.0000
  H   H1525     1.0  0.86714  0.17818  0.23417  1.0000
  H   H1526     1.0  0.81751  0.15884  0.25195  1.0000
  H   H1527     1.0  0.82732  0.14213  0.27990  1.0000
  C   C860      1.0  0.93295  0.15815  0.32327  1.0000
  S   S196      1.0  0.79273  0.22609  0.08192  1.0000
  H   H1528     1.0  0.96841  0.20769  0.19610  1.0000
  C   C861      1.0  0.91909  0.10617  0.19297  1.0000
  S   S197      1.0  0.53884  0.21168  0.99108  1.0000
  S   S198      1.0  0.94114  0.21544  0.31680  1.0000
  C   C862      1.0  0.93777  0.19355  0.31889  1.0000
  H   H1529     1.0  0.91119  0.16527  0.20129  1.0000
  C   C863      1.0  0.91436  0.16745  0.22672  1.0000
  H   H1530     1.0  0.92881  0.14873  0.21038  1.0000
  H   H1531     1.0  0.90135  0.17709  0.22853  1.0000
  H   H1532     1.0  0.94956  0.05579  0.27848  1.0000
  H   H1533     1.0  0.92541  0.17510  0.22173  1.0000
  H   H1534     1.0  0.88104  0.16992  0.33277  1.0000
  H   H1535     1.0  0.97180  0.06286  0.23697  1.0000
  C   C864      1.0  0.92264  0.20161  0.19009  1.0000
  C   C865      1.0  0.97918  0.04268  0.31857  1.0000
  C   C866      1.0  0.86720  0.14813  0.33785  1.0000
  S   S199      1.0  0.75071  0.20885  0.08067  1.0000
  H   H1536     1.0  0.93814  0.18820  0.16883  1.0000
  H   H1537     1.0  0.86400  0.14913  0.20186  1.0000
  Fe  Fe105     1.0  0.85580  0.23593  0.18087  1.0000
  C   C867      1.0  0.94137  0.00303  0.30261  1.0000
  C   C868      1.0  0.87128  0.16774  0.17811  1.0000
  H   H1538     1.0  0.96897  0.22768  0.28774  1.0000
  C   C869      1.0  0.85876  0.11176  0.24131  1.0000
  H   H1539     1.0  0.83381  0.22338  0.26806  1.0000
  H   H1540     1.0  0.94044  0.21857  0.21607  1.0000
  C   C870      1.0  0.71924  0.19665  0.08946  1.0000
  H   H1541     1.0  0.87564  0.16560  0.20418  1.0000
  S   S200      1.0  0.87123  0.20870  0.19106  1.0000
  C   C871      1.0  0.88732  0.11848  0.21954  1.0000
  C   C872      1.0  0.87168  0.12490  0.23432  1.0000
  H   H1542     1.0  0.89131  0.13383  0.18482  1.0000
  H   H1543     1.0  0.83243  0.15969  0.18670  1.0000
  C   C873      1.0  0.90156  0.14289  0.22148  1.0000
  C   C874      1.0  0.84717  0.23450  0.14279  1.0000
  C   C875      1.0  0.87533  0.20299  0.31229  1.0000
  C   C876      1.0  0.93821  0.09525  0.18934  1.0000
  C   C877      1.0  0.76808  0.21442  0.17102  1.0000
  H   H1544     1.0  0.87665  0.08266  0.31157  1.0000
  C   C878      1.0  0.79113  0.21465  0.20866  1.0000
  H   H1545     1.0  0.83744  0.06980  0.39058  1.0000
  H   H1546     1.0  0.79501  0.21361  0.23506  1.0000
  C   C879      1.0  0.72728  0.21146  0.08704  1.0000
  C   C880      1.0  0.95665  0.01229  0.29127  1.0000
  H   H1547     1.0  0.85146  0.21099  0.16317  1.0000
  H   H1548     1.0  0.90694  0.18477  0.25577  1.0000
  H   H1549     1.0  0.88147  0.11410  0.21017  1.0000
  H   H1550     1.0  0.85994  0.19609  0.33957  1.0000
  H   H1551     1.0  0.84808  0.11655  0.25215  1.0000
  H   H1552     1.0  0.60291  0.21513  0.03409  1.0000
  S   S201      1.0  0.52524  0.16704  0.98071  1.0000
  H   H1553     1.0  0.83715  0.19292  0.15097  1.0000
  C   C881      1.0  0.69769  0.23021  0.09284  1.0000
  N   N49       1.0  0.87003  0.07952  0.36569  1.0000
  C   C882      1.0  0.87487  0.06248  0.37877  1.0000
  C   C883      1.0  0.85257  0.09026  0.37390  1.0000
  C   C884      1.0  0.86845  0.07465  0.34890  1.0000
  C   C885      1.0  0.88431  0.09086  0.36102  1.0000
  C   C886      1.0  0.89067  0.09438  0.37674  1.0000
  C   C887      1.0  0.89325  0.05040  0.37306  1.0000
  C   C888      1.0  0.85919  0.09013  0.33569  1.0000
  C   C889      1.0  0.83607  0.08093  0.37896  1.0000
  C   C890      1.0  0.81865  0.09411  0.38402  1.0000
  C   C891      1.0  0.90471  0.10642  0.37007  1.0000
  C   C892      1.0  0.89725  0.03421  0.38780  1.0000
  H   H1554     1.0  0.95295  0.01830  0.27820  1.0000
  H   H1555     1.0  0.86468  0.05390  0.38132  1.0000
  H   H1556     1.0  0.87448  0.06554  0.39188  1.0000
  H   H1557     1.0  0.85390  0.09354  0.38633  1.0000
  H   H1558     1.0  0.84922  0.10352  0.36507  1.0000
  H   H1559     1.0  0.86111  0.06336  0.35191  1.0000
  H   H1560     1.0  0.88205  0.06934  0.34159  1.0000
  H   H1561     1.0  0.89644  0.08487  0.35215  1.0000
  H   H1562     1.0  0.87948  0.10426  0.35320  1.0000
  H   H1563     1.0  0.89700  0.08170  0.38458  1.0000
  H   H1564     1.0  0.87931  0.10120  0.38570  1.0000
  H   H1565     1.0  0.89328  0.04527  0.36117  1.0000
  H   H1566     1.0  0.90438  0.05782  0.36995  1.0000
  H   H1567     1.0  0.86437  0.10260  0.33363  1.0000
  H   H1568     1.0  0.84447  0.09325  0.34076  1.0000
  H   H1569     1.0  0.78643  0.19495  0.23310  1.0000
  C   C893      1.0  0.97310  0.06608  0.26319  1.0000
  H   H1570     1.0  0.95920  0.06012  0.30412  1.0000
  H   H1571     1.0  0.81624  0.10520  0.37257  1.0000
  H   H1572     1.0  0.83459  0.07529  0.36797  1.0000
  H   H1573     1.0  0.89890  0.11982  0.36294  1.0000
  H   H1574     1.0  0.90953  0.10831  0.38144  1.0000
  H   H1575     1.0  0.91648  0.10025  0.36096  1.0000
  H   H1576     1.0  0.88661  0.02603  0.39134  1.0000
  H   H1577     1.0  0.71823  0.19151  0.15274  1.0000
  C   C894      1.0  0.99051  0.12166  0.24912  1.0000
  C   C895      1.0  0.83003  0.21429  0.12959  1.0000
  Fe  Fe106     1.0  0.87770  0.22291  0.20934  1.0000
  H   H1578     1.0  0.96113  0.16630  0.23552  1.0000
  H   H1579     1.0  0.86185  0.14068  0.33063  1.0000
  C   C896      1.0  0.86111  0.17683  0.31521  1.0000
  C   C897      1.0  0.90367  0.22406  0.14774  1.0000
  H   H1580     1.0  0.64858  0.23654  0.16792  1.0000
  H   H1581     1.0  0.75243  0.19658  0.19187  1.0000
  C   C898      1.0  0.85153  0.20553  0.29594  1.0000
  C   C899      1.0  0.50938  0.14714  0.03009  1.0000
  C   C900      1.0  0.96308  0.12479  0.23841  1.0000
  H   H1582     1.0  0.91530  0.11262  0.17996  1.0000
  H   H1583     1.0  0.98196  0.06095  0.29356  1.0000
  C   C901      1.0  0.86209  0.08510  0.31762  1.0000
  H   H1584     1.0  0.89409  0.17958  0.29316  1.0000
  H   H1585     1.0  0.94645  0.03435  0.30522  1.0000
  H   H1586     1.0  0.78419  0.23281  0.03152  1.0000
  H   H1587     1.0  0.85546  0.21822  0.28781  1.0000
  S   S202      1.0  0.94127  0.12092  0.24153  1.0000
  H   H1588     1.0  0.91008  0.09660  0.20006  1.0000
  H   H1589     1.0  0.70553  0.22419  0.15703  1.0000
  H   H1590     1.0  0.84083  0.20971  0.30706  1.0000
  H   H1591     1.0  0.50759  0.15813  0.03730  1.0000
  H   H1592     1.0  0.88667  0.15726  0.31542  1.0000
  N   N50       1.0  0.78433  0.20977  0.17964  1.0000
  C   C902      1.0  0.95525  0.19684  0.18140  1.0000
  S   S203      1.0  0.85400  0.21804  0.23088  1.0000
  C   C903      1.0  0.98778  0.13817  0.21957  1.0000
  H   H1593     1.0  0.82088  0.19218  0.18147  1.0000
  H   H1594     1.0  0.80713  0.08701  0.38798  1.0000
  H   H1595     1.0  0.88847  0.15109  0.22632  1.0000
  H   H1596     1.0  0.90376  0.15006  0.18442  1.0000
  C   C904      1.0  0.93863  0.19487  0.17911  1.0000
  H   H1597     1.0  0.77174  0.21680  0.23338  1.0000
  N   N51       1.0  0.89970  0.13143  0.20949  1.0000
  C   C905      1.0  0.95890  0.17483  0.26032  1.0000
  H   H1598     1.0  0.95026  0.18561  0.26712  1.0000
  H   H1599     1.0  0.80847  0.22075  0.17569  1.0000
  H   H1600     1.0  0.87009  0.15920  0.16928  1.0000
  H   H1601     1.0  0.88202  0.17557  0.17137  1.0000
  H   H1602     1.0  0.90592  0.13412  0.23363  1.0000
  C   C906      1.0  0.91815  0.12052  0.20386  1.0000
  C   C907      1.0  0.98188  0.23519  0.20730  1.0000
  H   H1603     1.0  0.77237  0.21591  0.15635  1.0000
  H   H1604     1.0  0.81140  0.15533  0.18486  1.0000
  S   S204      1.0  0.76618  0.21740  0.12065  1.0000
  C   C908      1.0  0.88176  0.18685  0.28799  1.0000
  H   H1605     1.0  0.51116  0.13409  0.03953  1.0000
  H   H1606     1.0  0.93866  0.08514  0.18145  1.0000
  C   C909      1.0  0.91476  0.15606  0.21349  1.0000
  H   H1607     1.0  0.89000  0.22083  0.15125  1.0000
  C   C910      1.0  0.68966  0.21529  0.09579  1.0000
  H   H1608     1.0  0.96302  0.13926  0.21160  1.0000
  H   H1609     1.0  0.91596  0.19210  0.27120  1.0000
  H   H1610     1.0  0.92414  0.11355  0.21574  1.0000
  H   H1611     1.0  0.88643  0.21454  0.27599  1.0000
  H   H1612     1.0  0.78542  0.18127  0.18225  1.0000
  H   H1613     1.0  0.96873  0.03603  0.32810  1.0000
  H   H1614     1.0  0.89509  0.10599  0.22654  1.0000
  H   H1615     1.0  0.85226  0.11090  0.23061  1.0000
  S   S205      1.0  0.81650  0.20260  0.12367  1.0000
  C   C911      1.0  0.83795  0.20657  0.14441  1.0000
  C   C912      1.0  0.87532  0.15628  0.19579  1.0000
  H   H1616     1.0  0.85833  0.17735  0.18051  1.0000
  S   S206      1.0  0.66626  0.21706  0.10228  1.0000
  H   H1617     1.0  0.82517  0.16673  0.16572  1.0000
  C   C913      1.0  0.59662  0.23352  0.05220  1.0000
  C   C914      1.0  0.98066  0.16493  0.28783  1.0000
  C   C915      1.0  0.77802  0.21013  0.19917  1.0000
  C   C916      1.0  0.95982  0.02635  0.30036  1.0000
  H   H1618     1.0  0.69586  0.18647  0.16155  1.0000
  Fe  Fe107     1.0  0.50749  0.19641  0.03460  1.0000
  H   H1619     1.0  0.87833  0.21578  0.30360  1.0000
  H   H1620     1.0  0.89826  0.03867  0.39974  1.0000
  H   H1621     1.0  0.96583  0.16816  0.29240  1.0000
  H   H1622     1.0  0.94843  0.18407  0.34281  1.0000
  H   H1623     1.0  0.93997  0.99232  0.29634  1.0000
  H   H1624     1.0  0.95707  0.16166  0.26894  1.0000
  H   H1625     1.0  0.87791  0.20475  0.26254  1.0000
  H   H1626     1.0  0.80139  0.22135  0.15608  1.0000
  S   S207      1.0  0.82992  0.23229  0.19976  1.0000
  H   H1627     1.0  0.90664  0.22942  0.13326  1.0000
  H   H1628     1.0  0.81928  0.09982  0.39534  1.0000
  H   H1629     1.0  0.77448  0.19698  0.20647  1.0000
  C   C917      1.0  0.79625  0.22314  0.17003  1.0000
  H   H1630     1.0  0.98115  0.11868  0.30053  1.0000
  H   H1631     1.0  0.94257  0.08809  0.20197  1.0000
  C   C918      1.0  0.96404  0.05005  0.27387  1.0000
  S   S208      1.0  0.99035  0.00658  0.35658  1.0000
  C   C919      1.0  0.65293  0.23135  0.15544  1.0000
  C   C920      1.0  0.81099  0.18318  0.18543  1.0000
  C   C921      1.0  0.82784  0.21212  0.27701  1.0000
  H   H1632     1.0  0.98623  0.16629  0.29898  1.0000
  H   H1633     1.0  0.85217  0.19261  0.27376  1.0000
  C   C922      1.0  0.86353  0.20807  0.32979  1.0000
  H   H1634     1.0  0.68463  0.21778  0.16680  1.0000
  C   C923      1.0  0.84239  0.19777  0.28489  1.0000
  H   H1635     1.0  0.68482  0.20969  0.13659  1.0000
  C   C924      1.0  0.98661  0.14486  0.28635  1.0000
  H   H1636     1.0  0.81725  0.21741  0.28764  1.0000
  H   H1637     1.0  0.99170  0.03248  0.31663  1.0000
  S   S209      1.0  0.98663  0.99604  0.40013  1.0000
  H   H1638     1.0  0.91346  0.21146  0.15104  1.0000
  H   H1639     1.0  0.63951  0.22651  0.13653  1.0000
  C   C925      1.0  0.97894  0.17654  0.25595  1.0000
  C   C926      1.0  0.97558  0.13305  0.30103  1.0000
  S   S210      1.0  0.97518  0.18907  0.16730  1.0000
  H   H1640     1.0  0.96148  0.13606  0.29906  1.0000
  Fe  Fe108     1.0  0.79467  0.22128  0.11043  1.0000
  H   H1641     1.0  0.98506  0.14271  0.27360  1.0000
  H   H1642     1.0  0.97108  0.06806  0.32789  1.0000
  H   H1643     1.0  0.70690  0.21500  0.12902  1.0000
  C   C927      1.0  0.97063  0.13432  0.22211  1.0000
  H   H1644     1.0  0.59603  0.22156  0.98210  1.0000
  H   H1645     1.0  0.96500  0.01832  0.31236  1.0000
  C   C928      1.0  0.63598  0.23228  0.14869  1.0000
  H   H1646     1.0  0.96739  0.11084  0.26444  1.0000
  H   H1647     1.0  0.96393  0.04168  0.26447  1.0000
  C   C929      1.0  0.87353  0.21715  0.33839  1.0000
  H   H1648     1.0  0.49567  0.13766  0.01538  1.0000
  H   H1649     1.0  0.70768  0.18263  0.13987  1.0000
  H   H1650     1.0  0.75987  0.22769  0.17338  1.0000
  S   S211      1.0  0.91153  0.23342  0.27975  1.0000
  H   H1651     1.0  0.93194  0.22887  0.15977  1.0000
  H   H1652     1.0  0.76533  0.22019  0.20149  1.0000
  C   C930      1.0  0.59222  0.22366  0.04147  1.0000
  H   H1653     1.0  0.82156  0.20625  0.26915  1.0000
  H   H1654     1.0  0.75177  0.23342  0.03490  1.0000
  H   H1655     1.0  0.77245  0.23395  0.05382  1.0000
  H   H1656     1.0  0.73044  0.22144  0.17767  1.0000
  C   C931      1.0  0.98330  0.22175  0.28820  1.0000
  H   H1657     1.0  0.92845  0.01286  0.30386  1.0000
  H   H1658     1.0  0.65925  0.21695  0.15850  1.0000
  H   H1659     1.0  0.85096  0.21760  0.32725  1.0000
  H   H1660     1.0  0.90023  0.23241  0.17234  1.0000
  H   H1661     1.0  0.98680  0.16495  0.24978  1.0000
  H   H1662     1.0  0.79118  0.22925  0.20518  1.0000
  H   H1663     1.0  0.87685  0.22971  0.32943  1.0000
  H   H1664     1.0  0.98643  0.22461  0.30005  1.0000
  H   H1665     1.0  0.96888  0.07728  0.27057  1.0000
  H   H1666     1.0  0.97856  0.22863  0.16667  1.0000
  C   C932      1.0  0.98693  0.20146  0.28926  1.0000
  C   C933      1.0  0.96752  0.07333  0.24521  1.0000
  C   C934      1.0  0.98272  0.05668  0.32713  1.0000
  H   H1667     1.0  0.97572  0.13535  0.31428  1.0000
  H   H1668     1.0  0.82618  0.23760  0.10889  1.0000
  H   H1669     1.0  0.98798  0.06223  0.26099  1.0000
  C   C935      1.0  0.56072  0.23579  0.05004  1.0000
  C   C936      1.0  0.69105  0.23185  0.04410  1.0000
  H   H1670     1.0  0.98245  0.20687  0.26221  1.0000
  H   H1671     1.0  0.88618  0.20805  0.34147  1.0000
  H   H1672     1.0  0.54681  0.23675  0.04947  1.0000
  H   H1673     1.0  0.62688  0.22435  0.15888  1.0000
  H   H1674     1.0  0.98479  0.05044  0.34082  1.0000
  C   C937      1.0  0.83167  0.23178  0.12073  1.0000
  H   H1675     1.0  0.98007  0.19527  0.30254  1.0000
  H   H1676     1.0  0.99239  0.05024  0.37363  1.0000
  H   H1677     1.0  0.69665  0.22789  0.03103  1.0000
  H   H1678     1.0  0.66909  0.23736  0.12898  1.0000
  H   H1679     1.0  0.98707  0.23104  0.19469  1.0000
  H   H1680     1.0  0.67620  0.23330  0.04672  1.0000
  C   C938      1.0  0.90441  0.23797  0.15804  1.0000
  C   C939      1.0  0.99342  0.23294  0.21899  1.0000
  H   H1681     1.0  0.95892  0.23648  0.14467  1.0000
  H   H1682     1.0  0.99186  0.22822  0.27619  1.0000
  C   C940      1.0  0.99105  0.02857  0.28409  1.0000
  H   H1683     1.0  0.98982  0.23832  0.14518  1.0000
  C   C941      1.0  0.98674  0.23836  0.23527  1.0000
  H   H1684     1.0  0.99322  0.14607  0.20713  1.0000
  H   H1685     1.0  0.99405  0.01654  0.29462  1.0000
  C   C942      1.0  0.53471  0.18517  0.92631  1.0000
  H   H1686     1.0  0.54956  0.18307  0.92206  1.0000
  H   H1687     1.0  0.50871  0.12968  0.83990  1.0000
  H   H1688     1.0  0.53065  0.18472  0.90064  1.0000
  H   H1689     1.0  0.53142  0.17828  0.94035  1.0000
  C   C943      1.0  0.55615  0.22315  0.93071  1.0000
  H   H1690     1.0  0.51907  0.15764  0.89660  1.0000
  H   H1691     1.0  0.56723  0.20850  0.95415  1.0000
  H   H1692     1.0  0.51116  0.18704  0.88203  1.0000
  C   C944      1.0  0.52681  0.17765  0.91450  1.0000
  H   H1693     1.0  0.52925  0.19977  0.92529  1.0000
  H   H1694     1.0  0.53311  0.16319  0.91561  1.0000
  H   H1695     1.0  0.51686  0.12016  0.95332  1.0000
  H   H1696     1.0  0.50558  0.14807  0.91655  1.0000
  H   H1697     1.0  0.54637  0.22113  0.92368  1.0000
  H   H1698     1.0  0.53347  0.13538  0.96607  1.0000
  H   H1699     1.0  0.54501  0.20513  0.95422  1.0000
  H   H1700     1.0  0.56449  0.19456  0.94038  1.0000
  H   H1701     1.0  0.51945  0.12944  0.88617  1.0000
  H   H1702     1.0  0.56935  0.22324  0.92157  1.0000
  H   H1703     1.0  0.49791  0.15782  0.87868  1.0000
  C   C945      1.0  0.50493  0.15793  0.90380  1.0000
  C   C946      1.0  0.55835  0.20693  0.94583  1.0000
  C   C947      1.0  0.50998  0.13232  0.95813  1.0000
  C   C948      1.0  0.51951  0.14106  0.96543  1.0000
  H   H1704     1.0  0.50315  0.12233  0.90563  1.0000
  C   C949      1.0  0.50608  0.17988  0.92038  1.0000
  N   N52       1.0  0.49626  0.17639  0.90767  1.0000
  H   H1705     1.0  0.51066  0.22021  0.97175  1.0000
  H   H1706     1.0  0.50032  0.20224  0.85432  1.0000
  C   C950      1.0  0.51137  0.15685  0.97200  1.0000
  C   C951      1.0  0.50487  0.13066  0.89204  1.0000
  H   H1707     1.0  0.50405  0.21284  0.94585  1.0000
  H   H1708     1.0  0.50343  0.17081  0.93345  1.0000
  C   C952      1.0  0.50142  0.22980  0.96435  1.0000
  H   H1709     1.0  0.50100  0.19377  0.92294  1.0000
  C   C953      1.0  0.49775  0.22565  0.94955  1.0000
  C   C954      1.0  0.49603  0.15028  0.89254  1.0000
  C   C955      1.0  0.59295  0.23106  0.96981  1.0000
  H   H1710     1.0  0.49844  0.12534  0.88390  1.0000
  H   H1711     1.0  0.58123  0.22795  0.96635  1.0000
  C   C956      1.0  0.49815  0.19078  0.89108  1.0000
  H   H1712     1.0  0.60476  0.22905  0.95891  1.0000
  H   H1713     1.0  0.49879  0.20368  0.89435  1.0000
  H   H1714     1.0  0.54863  0.23832  0.89728  1.0000
  H   H1715     1.0  0.51725  0.23732  0.89908  1.0000
  H   H1716     1.0  0.49462  0.10486  0.85818  1.0000
  H   H1717     1.0  0.53566  0.23939  0.94642  1.0000
  H   H1718     1.0  0.89333  0.44676  0.35990  1.0000
  S   S212      1.0  0.85941  0.25324  0.29899  1.0000
  H   H1719     1.0  0.79946  0.31524  0.17721  1.0000
  H   H1720     1.0  0.96707  0.34769  0.35293  1.0000
  N   N53       1.0  0.95805  0.32423  0.35084  1.0000
  C   C957      1.0  0.78657  0.45639  0.47741  1.0000
  S   S213      1.0  0.90185  0.25635  0.31184  1.0000
  H   H1721     1.0  0.99371  0.35994  0.33548  1.0000
  S   S214      1.0  0.58783  0.25832  0.07529  1.0000
  C   C958      1.0  0.53469  0.26773  0.00547  1.0000
  H   H1722     1.0  0.69052  0.29144  0.23364  1.0000
  C   C959      1.0  0.68726  0.26896  0.18179  1.0000
  C   C960      1.0  0.96596  0.30791  0.34249  1.0000
  N   N54       1.0  0.72374  0.26470  0.03981  1.0000
  H   H1723     1.0  0.95636  0.33284  0.31416  1.0000
  Fe  Fe109     1.0  0.78360  0.25514  0.08384  1.0000
  H   H1724     1.0  0.80731  0.25390  0.14754  1.0000
  S   S215      1.0  0.79569  0.27585  0.06242  1.0000
  H   H1725     1.0  0.92567  0.29451  0.23949  1.0000
  S   S216      1.0  0.74075  0.25746  0.14284  1.0000
  H   H1726     1.0  0.89519  0.32459  0.22046  1.0000
  H   H1727     1.0  0.95170  0.27430  0.33019  1.0000
  H   H1728     1.0  0.95014  0.28795  0.20930  1.0000
  H   H1729     1.0  0.72251  0.24234  0.02862  1.0000
  S   S217      1.0  0.65963  0.26951  0.09026  1.0000
  Fe  Fe110     1.0  0.64680  0.27798  0.06644  1.0000
  S   S218      1.0  0.66034  0.29283  0.04095  1.0000
  Fe  Fe111     1.0  0.73060  0.35617  0.02326  1.0000
  S   S219      1.0  0.71910  0.35909  0.05145  1.0000
  S   S220      1.0  0.74847  0.33265  0.01231  1.0000
  Fe  Fe112     1.0  0.71063  0.39309  0.00800  1.0000
  S   S221      1.0  0.69761  0.39966  0.03471  1.0000
  H   H1730     1.0  0.97151  0.27210  0.33897  1.0000
  Fe  Fe113     1.0  0.72457  0.38710  0.04190  1.0000
  S   S222      1.0  0.73701  0.40032  0.05680  1.0000
  Fe  Fe114     1.0  0.69318  0.37139  0.04185  1.0000
  S   S223      1.0  0.66650  0.36548  0.05735  1.0000
  S   S224      1.0  0.73821  0.38327  0.01432  1.0000
  S   S225      1.0  0.70424  0.36567  0.01468  1.0000
  Fe  Fe115     1.0  0.73190  0.34584  0.16196  1.0000
  S   S226      1.0  0.71525  0.33591  0.18814  1.0000
  S   S227      1.0  0.75797  0.32895  0.15201  1.0000
  Fe  Fe116     1.0  0.70514  0.37953  0.15483  1.0000
  S   S228      1.0  0.68662  0.37223  0.18077  1.0000
  S   S229      1.0  0.69796  0.40508  0.13571  1.0000
  Fe  Fe117     1.0  0.71190  0.36427  0.19262  1.0000
  S   S230      1.0  0.71569  0.36933  0.21930  1.0000
  Fe  Fe118     1.0  0.69212  0.34483  0.17321  1.0000
  S   S231      1.0  0.67010  0.32887  0.17401  1.0000
  S   S232      1.0  0.72977  0.37334  0.16681  1.0000
  S   S233      1.0  0.70947  0.35300  0.14700  1.0000
  Fe  Fe119     1.0  0.76863  0.42076  0.26830  1.0000
  S   S234      1.0  0.75417  0.40767  0.29439  1.0000
  S   S235      1.0  0.76313  0.41472  0.24270  1.0000
  Fe  Fe120     1.0  0.78709  0.44118  0.28833  1.0000
  S   S236      1.0  0.77290  0.42860  0.31482  1.0000
  H   H1731     1.0  0.89434  0.25016  0.15450  1.0000
  Fe  Fe121     1.0  0.78011  0.40346  0.30363  1.0000
  S   S237      1.0  0.79151  0.37737  0.32006  1.0000
  Fe  Fe122     1.0  0.74875  0.43438  0.30237  1.0000
  S   S238      1.0  0.72084  0.44818  0.31322  1.0000
  S   S239      1.0  0.79541  0.41536  0.27723  1.0000
  S   S240      1.0  0.76216  0.44815  0.27603  1.0000
  Fe  Fe123     1.0  0.71820  0.44370  0.41123  1.0000
  S   S241      1.0  0.71868  0.42518  0.43766  1.0000
  S   S242      1.0  0.69673  0.44794  0.39539  1.0000
  Fe  Fe124     1.0  0.75110  0.45726  0.41198  1.0000
  S   S243      1.0  0.75531  0.43941  0.43793  1.0000
  H   H1732     1.0  0.78556  0.29001  0.25820  1.0000
  Fe  Fe125     1.0  0.74840  0.41849  0.42725  1.0000
  S   S244      1.0  0.76265  0.38981  0.43009  1.0000
  Fe  Fe126     1.0  0.72547  0.44781  0.44600  1.0000
  S   S245      1.0  0.64016  0.25143  0.06779  1.0000
  S   S246      1.0  0.74741  0.43541  0.40026  1.0000
  S   S247      1.0  0.72178  0.46709  0.42071  1.0000
  C   C961      1.0  0.95007  0.34403  0.32129  1.0000
  H   H1733     1.0  0.94453  0.31327  0.40639  1.0000
  C   C962      1.0  0.62544  0.34955  0.19721  1.0000
  C   C963      1.0  0.90583  0.30074  0.13153  1.0000
  C   C964      1.0  0.67296  0.47183  0.27738  1.0000
  Fe  Fe127     1.0  0.88894  0.34019  0.37766  1.0000
  S   S248      1.0  0.90113  0.35998  0.35539  1.0000
  S   S249      1.0  0.89856  0.31106  0.37607  1.0000
  Fe  Fe128     1.0  0.86453  0.36925  0.39600  1.0000
  S   S250      1.0  0.87407  0.39128  0.37459  1.0000
  S   S251      1.0  0.84659  0.37844  0.42010  1.0000
  Fe  Fe129     1.0  0.87285  0.37445  0.35600  1.0000
  S   S252      1.0  0.86661  0.38633  0.32911  1.0000
  Fe  Fe130     1.0  0.90153  0.37475  0.37589  1.0000
  S   S253      1.0  0.92667  0.38497  0.37381  1.0000
  S   S254      1.0  0.86024  0.35394  0.37722  1.0000
  S   S255      1.0  0.89218  0.35348  0.39847  1.0000
  H   H1734     1.0  0.77180  0.37653  0.03278  1.0000
  C   C965      1.0  0.90783  0.41961  0.36595  1.0000
  C   C966      1.0  0.92420  0.40852  0.36892  1.0000
  H   H1735     1.0  0.73488  0.37517  0.97900  1.0000
  C   C967      1.0  0.56514  0.24579  0.06062  1.0000
  H   H1736     1.0  0.89662  0.41386  0.36624  1.0000
  C   C968      1.0  0.78613  0.38718  0.42502  1.0000
  C   C969      1.0  0.79445  0.40197  0.42152  1.0000
  C   C970      1.0  0.81322  0.39934  0.41923  1.0000
  C   C971      1.0  0.82366  0.38201  0.41983  1.0000
  C   C972      1.0  0.81540  0.36736  0.42228  1.0000
  C   C973      1.0  0.79661  0.36993  0.42504  1.0000
  H   H1737     1.0  0.78644  0.41534  0.42123  1.0000
  H   H1738     1.0  0.81960  0.41069  0.41739  1.0000
  H   H1739     1.0  0.82344  0.35394  0.42298  1.0000
  H   H1740     1.0  0.91489  0.24538  0.18840  1.0000
  C   C974      1.0  0.81965  0.47495  0.41175  1.0000
  C   C975      1.0  0.80894  0.28794  0.18798  1.0000
  C   C976      1.0  0.94715  0.33053  0.22621  1.0000
  C   C977      1.0  0.92714  0.30866  0.23355  1.0000
  C   C978      1.0  0.80563  0.46851  0.42450  1.0000
  C   C979      1.0  0.78927  0.46914  0.41973  1.0000
  H   H1741     1.0  0.53830  0.30453  0.98689  1.0000
  H   H1742     1.0  0.80729  0.46340  0.43802  1.0000
  H   H1743     1.0  0.77822  0.46486  0.42970  1.0000
  H   H1744     1.0  0.68135  0.48219  0.27465  1.0000
  C   C980      1.0  0.81233  0.37956  0.32301  1.0000
  C   C981      1.0  0.81923  0.39493  0.31415  1.0000
  C   C982      1.0  0.83603  0.39670  0.31589  1.0000
  C   C983      1.0  0.84573  0.38345  0.32714  1.0000
  C   C984      1.0  0.83872  0.36820  0.33647  1.0000
  C   C985      1.0  0.82200  0.36621  0.33433  1.0000
  H   H1745     1.0  0.81166  0.40559  0.30594  1.0000
  H   H1746     1.0  0.84133  0.40854  0.30867  1.0000
  H   H1747     1.0  0.84629  0.35784  0.34505  1.0000
  H   H1748     1.0  0.81647  0.35452  0.34159  1.0000
  C   C986      1.0  0.71459  0.44724  0.33619  1.0000
  C   C987      1.0  0.69729  0.45579  0.34308  1.0000
  C   C988      1.0  0.69192  0.45564  0.36129  1.0000
  C   C989      1.0  0.70384  0.44708  0.37275  1.0000
  C   C990      1.0  0.72109  0.43827  0.36591  1.0000
  C   C991      1.0  0.72648  0.43839  0.34763  1.0000
  H   H1749     1.0  0.68802  0.46262  0.33432  1.0000
  H   H1750     1.0  0.67853  0.46236  0.36649  1.0000
  H   H1751     1.0  0.73021  0.43127  0.37469  1.0000
  H   H1752     1.0  0.73984  0.43176  0.34238  1.0000
  C   C992      1.0  0.74983  0.40190  0.23656  1.0000
  C   C993      1.0  0.74888  0.40406  0.21858  1.0000
  C   C994      1.0  0.73865  0.39435  0.21307  1.0000
  C   C995      1.0  0.72907  0.38211  0.22543  1.0000
  C   C996      1.0  0.72992  0.38004  0.24344  1.0000
  C   C997      1.0  0.74023  0.38969  0.24892  1.0000
  H   H1753     1.0  0.75615  0.41337  0.20874  1.0000
  H   H1754     1.0  0.73820  0.39640  0.19918  1.0000
  H   H1755     1.0  0.72271  0.37069  0.25327  1.0000
  H   H1756     1.0  0.74102  0.38749  0.26271  1.0000
  C   C998      1.0  0.80126  0.48203  0.38945  1.0000
  S   S256      1.0  0.80374  0.46225  0.28889  1.0000
  H   H1757     1.0  0.79860  0.30272  0.22476  1.0000
  C   C999      1.0  0.57226  0.25370  0.98733  1.0000
  C   C1000     1.0  0.67122  0.40017  0.99536  1.0000
  C   C1001     1.0  0.65516  0.39610  0.99386  1.0000
  H   H1758     1.0  0.68980  0.45390  0.29492  1.0000
  H   H1759     1.0  0.90816  0.31032  0.13865  1.0000
  H   H1760     1.0  0.67425  0.39852  0.00832  1.0000
  H   H1761     1.0  0.67777  0.35069  0.24050  1.0000
  C   C1002     1.0  0.72523  0.40175  0.07841  1.0000
  C   C1003     1.0  0.71699  0.38776  0.08914  1.0000
  C   C1004     1.0  0.70898  0.38853  0.10689  1.0000
  C   C1005     1.0  0.70840  0.40364  0.11368  1.0000
  C   C1006     1.0  0.71614  0.41785  0.10275  1.0000
  C   C1007     1.0  0.72490  0.41672  0.08529  1.0000
  H   H1762     1.0  0.71741  0.37610  0.08392  1.0000
  H   H1763     1.0  0.70310  0.37756  0.11525  1.0000
  H   H1764     1.0  0.71576  0.42956  0.10791  1.0000
  H   H1765     1.0  0.73130  0.42754  0.07704  1.0000
  C   C1008     1.0  0.64473  0.30344  0.14006  1.0000
  C   C1009     1.0  0.64469  0.31332  0.16729  1.0000
  C   C1010     1.0  0.66107  0.31921  0.16015  1.0000
  C   C1011     1.0  0.66939  0.31697  0.14273  1.0000
  C   C1012     1.0  0.66122  0.30927  0.13273  1.0000
  H   H1766     1.0  0.63803  0.31465  0.18066  1.0000
  H   H1767     1.0  0.68212  0.32116  0.13699  1.0000
  H   H1768     1.0  0.66764  0.30793  0.11930  1.0000
  C   C1013     1.0  0.66122  0.31335  0.04534  1.0000
  C   C1014     1.0  0.65498  0.31683  0.06248  1.0000
  C   C1015     1.0  0.65585  0.33321  0.06604  1.0000
  C   C1016     1.0  0.66315  0.34608  0.05246  1.0000
  C   C1017     1.0  0.66870  0.34286  0.03521  1.0000
  C   C1018     1.0  0.66797  0.32640  0.03168  1.0000
  H   H1769     1.0  0.64982  0.30682  0.07316  1.0000
  H   H1770     1.0  0.65132  0.33562  0.07939  1.0000
  H   H1771     1.0  0.67326  0.35318  0.02456  1.0000
  H   H1772     1.0  0.67274  0.32369  0.01847  1.0000
  C   C1019     1.0  0.74573  0.27697  0.14613  1.0000
  C   C1020     1.0  0.76323  0.28035  0.14083  1.0000
  C   C1021     1.0  0.76702  0.29614  0.14309  1.0000
  C   C1022     1.0  0.75323  0.30884  0.15028  1.0000
  C   C1023     1.0  0.73568  0.30553  0.15570  1.0000
  C   C1024     1.0  0.73199  0.28949  0.15387  1.0000
  H   H1773     1.0  0.77401  0.27072  0.13533  1.0000
  H   H1774     1.0  0.78061  0.29861  0.13910  1.0000
  H   H1775     1.0  0.72486  0.31534  0.16110  1.0000
  H   H1776     1.0  0.71837  0.28715  0.15784  1.0000
  C   C1025     1.0  0.78168  0.29078  0.04882  1.0000
  C   C1026     1.0  0.76417  0.29882  0.05581  1.0000
  C   C1027     1.0  0.75414  0.31242  0.04485  1.0000
  C   C1028     1.0  0.76113  0.31695  0.02671  1.0000
  C   C1029     1.0  0.77832  0.30835  0.01968  1.0000
  C   C1030     1.0  0.78874  0.29567  0.03078  1.0000
  H   H1777     1.0  0.75863  0.29495  0.06972  1.0000
  H   H1778     1.0  0.74086  0.31912  0.05028  1.0000
  H   H1779     1.0  0.78378  0.31181  0.00567  1.0000
  H   H1780     1.0  0.80229  0.28952  0.02535  1.0000
  C   C1031     1.0  0.78510  0.40326  0.46763  1.0000
  C   C1032     1.0  0.61480  0.37631  0.02725  1.0000
  H   H1781     1.0  0.94014  0.29642  0.26250  1.0000
  H   H1782     1.0  0.97292  0.29895  0.22970  1.0000
  C   C1033     1.0  0.78971  0.41967  0.47151  1.0000
  H   H1783     1.0  0.86981  0.42750  0.45982  1.0000
  C   C1034     1.0  0.98944  0.33316  0.33632  1.0000
  H   H1784     1.0  0.77332  0.40721  0.46104  1.0000
  C   C1035     1.0  0.55242  0.30474  0.97987  1.0000
  C   C1036     1.0  0.64653  0.35167  0.21624  1.0000
  H   H1785     1.0  0.64619  0.33136  0.00667  1.0000
  C   C1037     1.0  0.90051  0.30880  0.35417  1.0000
  C   C1038     1.0  0.89486  0.32372  0.34160  1.0000
  H   H1786     1.0  0.64892  0.38208  0.22683  1.0000
  H   H1787     1.0  0.97090  0.30780  0.28540  1.0000
  H   H1788     1.0  0.88748  0.33606  0.34563  1.0000
  C   C1039     1.0  0.89685  0.43980  0.40681  1.0000
  C   C1040     1.0  0.84925  0.25628  0.28085  1.0000
  C   C1041     1.0  0.83049  0.26059  0.28316  1.0000
  C   C1042     1.0  0.82212  0.26316  0.26874  1.0000
  C   C1043     1.0  0.83251  0.26101  0.25209  1.0000
  C   C1044     1.0  0.85130  0.25647  0.24983  1.0000
  C   C1045     1.0  0.85969  0.25429  0.26417  1.0000
  H   H1789     1.0  0.82242  0.26201  0.29609  1.0000
  H   H1790     1.0  0.80762  0.26627  0.27062  1.0000
  H   H1791     1.0  0.79394  0.26964  0.16090  1.0000
  H   H1792     1.0  0.97570  0.29839  0.35024  1.0000
  C   C1046     1.0  0.66968  0.38641  0.23753  1.0000
  H   H1793     1.0  0.84850  0.41250  0.44018  1.0000
  H   H1794     1.0  0.61734  0.34078  0.19485  1.0000
  H   H1795     1.0  0.64403  0.32717  0.20835  1.0000
  N   N55       1.0  0.76455  0.37430  0.38102  1.0000
  C   C1047     1.0  0.77160  0.39116  0.37920  1.0000
  C   C1048     1.0  0.74937  0.37275  0.39693  1.0000
  C   C1049     1.0  0.77968  0.35858  0.38472  1.0000
  C   C1050     1.0  0.75856  0.37338  0.36456  1.0000
  C   C1051     1.0  0.75050  0.39149  0.35349  1.0000
  C   C1052     1.0  0.78850  0.39369  0.36437  1.0000
  C   C1053     1.0  0.77495  0.33965  0.38878  1.0000
  C   C1054     1.0  0.73295  0.38849  0.39733  1.0000
  C   C1055     1.0  0.71960  0.38583  0.41491  1.0000
  C   C1056     1.0  0.74036  0.38864  0.34048  1.0000
  C   C1057     1.0  0.80544  0.39165  0.37172  1.0000
  C   C1058     1.0  0.79192  0.32500  0.38892  1.0000
  H   H1796     1.0  0.77446  0.39183  0.39209  1.0000
  H   H1797     1.0  0.76128  0.40339  0.37651  1.0000
  H   H1798     1.0  0.74375  0.36061  0.39824  1.0000
  H   H1799     1.0  0.75461  0.37073  0.40926  1.0000
  H   H1800     1.0  0.78509  0.35968  0.39614  1.0000
  H   H1801     1.0  0.79120  0.35869  0.37331  1.0000
  H   H1802     1.0  0.76999  0.36694  0.35523  1.0000
  H   H1803     1.0  0.74859  0.36441  0.36802  1.0000
  H   H1804     1.0  0.76144  0.39864  0.34570  1.0000
  H   H1805     1.0  0.74108  0.40050  0.36181  1.0000
  H   H1806     1.0  0.79109  0.38443  0.35515  1.0000
  H   H1807     1.0  0.78614  0.40726  0.35592  1.0000
  H   H1808     1.0  0.76794  0.33820  0.37875  1.0000
  H   H1809     1.0  0.76619  0.33717  0.40208  1.0000
  H   H1810     1.0  0.73691  0.40151  0.39586  1.0000
  H   H1811     1.0  0.72560  0.38917  0.38678  1.0000
  H   H1812     1.0  0.71451  0.37323  0.41703  1.0000
  H   H1813     1.0  0.72604  0.38533  0.42612  1.0000
  H   H1814     1.0  0.70799  0.39729  0.41481  1.0000
  H   H1815     1.0  0.73492  0.40185  0.33274  1.0000
  H   H1816     1.0  0.74953  0.38031  0.33118  1.0000
  H   H1817     1.0  0.72889  0.38197  0.34769  1.0000
  H   H1818     1.0  0.80362  0.40193  0.37984  1.0000
  H   H1819     1.0  0.80872  0.37811  0.37999  1.0000
  H   H1820     1.0  0.81699  0.39351  0.36057  1.0000
  H   H1821     1.0  0.78817  0.31158  0.39235  1.0000
  H   H1822     1.0  0.80093  0.32633  0.37567  1.0000
  H   H1823     1.0  0.79932  0.32587  0.39893  1.0000
  H   H1824     1.0  0.61624  0.36200  0.20059  1.0000
  C   C1059     1.0  0.63537  0.33961  0.21227  1.0000
  C   C1060     1.0  0.70979  0.28879  0.01497  1.0000
  H   H1825     1.0  0.67793  0.39043  0.22423  1.0000
  C   C1061     1.0  0.89867  0.32276  0.32368  1.0000
  C   C1062     1.0  0.65734  0.37431  0.23660  1.0000
  N   N56       1.0  0.65567  0.37277  0.11080  1.0000
  C   C1063     1.0  0.63590  0.37405  0.11151  1.0000
  C   C1064     1.0  0.66203  0.38836  0.09729  1.0000
  C   C1065     1.0  0.66546  0.35572  0.10431  1.0000
  C   C1066     1.0  0.65994  0.37197  0.12861  1.0000
  C   C1067     1.0  0.64512  0.38207  0.14169  1.0000
  C   C1068     1.0  0.62824  0.35708  0.12211  1.0000
  C   C1069     1.0  0.68619  0.35312  0.09882  1.0000
  C   C1070     1.0  0.65349  0.40739  0.10100  1.0000
  C   C1071     1.0  0.66028  0.42168  0.08554  1.0000
  C   C1072     1.0  0.65235  0.38325  0.15749  1.0000
  C   C1073     1.0  0.60772  0.36114  0.12673  1.0000
  C   C1074     1.0  0.69422  0.33467  0.09413  1.0000
  H   H1826     1.0  0.63331  0.37642  0.09781  1.0000
  H   H1827     1.0  0.62759  0.38588  0.11686  1.0000
  H   H1828     1.0  0.67667  0.38747  0.09610  1.0000
  H   H1829     1.0  0.66011  0.38788  0.08394  1.0000
  H   H1830     1.0  0.66036  0.35468  0.09280  1.0000
  H   H1831     1.0  0.66250  0.34379  0.11451  1.0000
  H   H1832     1.0  0.66295  0.35783  0.13588  1.0000
  H   H1833     1.0  0.67254  0.37706  0.12679  1.0000
  H   H1834     1.0  0.63375  0.37484  0.14695  1.0000
  H   H1835     1.0  0.63963  0.39590  0.13541  1.0000
  H   H1836     1.0  0.63229  0.34645  0.11402  1.0000
  H   H1837     1.0  0.63346  0.35143  0.13455  1.0000
  H   H1838     1.0  0.69217  0.35445  0.10967  1.0000
  H   H1839     1.0  0.69011  0.36306  0.08671  1.0000
  H   H1840     1.0  0.63863  0.41000  0.10291  1.0000
  H   H1841     1.0  0.65755  0.40918  0.11285  1.0000
  H   H1842     1.0  0.65658  0.42077  0.07316  1.0000
  H   H1843     1.0  0.65418  0.43526  0.08848  1.0000
  H   H1844     1.0  0.67517  0.41999  0.08343  1.0000
  H   H1845     1.0  0.64137  0.38984  0.16699  1.0000
  H   H1846     1.0  0.65780  0.36958  0.16434  1.0000
  H   H1847     1.0  0.66313  0.39132  0.15302  1.0000
  H   H1848     1.0  0.60205  0.36644  0.11449  1.0000
  H   H1849     1.0  0.60279  0.34857  0.13370  1.0000
  H   H1850     1.0  0.60291  0.37106  0.13558  1.0000
  H   H1851     1.0  0.70846  0.33423  0.08735  1.0000
  H   H1852     1.0  0.69365  0.32402  0.10622  1.0000
  H   H1853     1.0  0.68680  0.33205  0.08500  1.0000
  N   N57       1.0  0.76940  0.33320  0.08660  1.0000
  C   C1075     1.0  0.75007  0.33244  0.08743  1.0000
  C   C1076     1.0  0.77786  0.33982  0.06758  1.0000
  C   C1077     1.0  0.77928  0.31420  0.09209  1.0000
  C   C1078     1.0  0.77131  0.34466  0.09868  1.0000
  C   C1079     1.0  0.75580  0.36089  0.10191  1.0000
  C   C1080     1.0  0.73979  0.32378  0.10566  1.0000
  C   C1081     1.0  0.79992  0.31175  0.09053  1.0000
  C   C1082     1.0  0.76953  0.35888  0.05858  1.0000
  C   C1083     1.0  0.73673  0.30512  0.10582  1.0000
  C   C1084     1.0  0.80793  0.29290  0.09956  1.0000
  H   H1854     1.0  0.74922  0.32553  0.07704  1.0000
  H   H1855     1.0  0.74199  0.34602  0.08384  1.0000
  H   H1856     1.0  0.77775  0.33021  0.05926  1.0000
  H   H1857     1.0  0.77718  0.30521  0.08415  1.0000
  H   H1858     1.0  0.77379  0.30861  0.10608  1.0000
  H   H1859     1.0  0.77256  0.33643  0.11209  1.0000
  H   H1860     1.0  0.78407  0.34985  0.09361  1.0000
  H   H1861     1.0  0.74343  0.35620  0.10990  1.0000
  H   H1862     1.0  0.75257  0.36940  0.08935  1.0000
  H   H1863     1.0  0.74649  0.32312  0.11665  1.0000
  H   H1864     1.0  0.72636  0.33247  0.10877  1.0000
  H   H1865     1.0  0.80319  0.32158  0.09668  1.0000
  H   H1866     1.0  0.75482  0.36079  0.05986  1.0000
  H   H1867     1.0  0.77257  0.36913  0.06436  1.0000
  H   H1868     1.0  0.62500  0.33577  0.22401  1.0000
  H   H1869     1.0  0.72756  0.30058  0.11831  1.0000
  H   H1870     1.0  0.73036  0.30544  0.09463  1.0000
  H   H1871     1.0  0.74956  0.29519  0.10500  1.0000
  H   H1872     1.0  0.67197  0.31246  0.99010  1.0000
  H   H1873     1.0  0.82268  0.29154  0.09807  1.0000
  N   N58       1.0  0.84923  0.32155  0.30231  1.0000
  C   C1085     1.0  0.85675  0.30329  0.31234  1.0000
  C   C1086     1.0  0.84973  0.32083  0.28327  1.0000
  C   C1087     1.0  0.86132  0.33412  0.30203  1.0000
  C   C1088     1.0  0.83049  0.32905  0.31121  1.0000
  C   C1089     1.0  0.81617  0.31745  0.31411  1.0000
  C   C1090     1.0  0.85609  0.30192  0.33236  1.0000
  C   C1091     1.0  0.85688  0.35352  0.29123  1.0000
  C   C1092     1.0  0.84668  0.30332  0.27952  1.0000
  C   C1093     1.0  0.84399  0.30604  0.26052  1.0000
  C   C1094     1.0  0.79867  0.32504  0.32574  1.0000
  C   C1095     1.0  0.86403  0.28293  0.34101  1.0000
  C   C1096     1.0  0.87180  0.36377  0.28944  1.0000
  H   H1874     1.0  0.87102  0.29876  0.30596  1.0000
  H   H1875     1.0  0.84962  0.29286  0.31170  1.0000
  H   H1876     1.0  0.83979  0.33221  0.27757  1.0000
  H   H1877     1.0  0.86313  0.32269  0.27490  1.0000
  H   H1878     1.0  0.87554  0.32829  0.29671  1.0000
  H   H1879     1.0  0.86099  0.33579  0.31563  1.0000
  H   H1880     1.0  0.83077  0.33192  0.32418  1.0000
  H   H1881     1.0  0.82517  0.34232  0.30339  1.0000
  H   H1882     1.0  0.82072  0.30340  0.32064  1.0000
  H   H1883     1.0  0.81295  0.31755  0.30120  1.0000
  C   C1097     1.0  0.63667  0.30569  0.15745  1.0000
  H   H1884     1.0  0.84202  0.30520  0.33954  1.0000
  H   H1885     1.0  0.84422  0.36105  0.29803  1.0000
  H   H1886     1.0  0.85536  0.35368  0.27766  1.0000
  H   H1887     1.0  0.85868  0.29252  0.28116  1.0000
  H   H1888     1.0  0.83488  0.29847  0.28855  1.0000
  H   H1889     1.0  0.84233  0.29326  0.25799  1.0000
  H   H1890     1.0  0.83172  0.31629  0.25836  1.0000
  H   H1891     1.0  0.85585  0.31025  0.25090  1.0000
  H   H1892     1.0  0.80099  0.32528  0.33896  1.0000
  H   H1893     1.0  0.79309  0.33889  0.31936  1.0000
  H   H1894     1.0  0.78858  0.31652  0.32763  1.0000
  H   H1895     1.0  0.87852  0.27946  0.33517  1.0000
  H   H1896     1.0  0.88449  0.35763  0.28140  1.0000
  H   H1897     1.0  0.86778  0.37797  0.28289  1.0000
  C   C1098     1.0  0.91096  0.37517  0.42638  1.0000
  H   H1898     1.0  0.79018  0.35848  0.42778  1.0000
  H   H1899     1.0  0.90137  0.36613  0.42824  1.0000
  H   H1900     1.0  0.57916  0.30634  0.05682  1.0000
  H   H1901     1.0  0.98895  0.29462  0.19925  1.0000
  H   H1902     1.0  0.79968  0.48726  0.37586  1.0000
  H   H1903     1.0  0.97289  0.32716  0.20721  1.0000
  C   C1099     1.0  0.75230  0.47924  0.32675  1.0000
  H   H1904     1.0  0.97281  0.30138  0.25634  1.0000
  H   H1905     1.0  0.69401  0.43805  0.22044  1.0000
  H   H1906     1.0  0.86286  0.46849  0.25774  1.0000
  H   H1907     1.0  0.90196  0.46275  0.41464  1.0000
  H   H1908     1.0  0.73674  0.44135  0.25536  1.0000
  N   N59       1.0  0.68306  0.24259  0.14726  1.0000
  C   C1100     1.0  0.51948  0.27069  0.02133  1.0000
  C   C1101     1.0  0.96720  0.35362  0.21272  1.0000
  C   C1102     1.0  0.60916  0.26886  0.01276  1.0000
  C   C1103     1.0  0.81525  0.46516  0.31961  1.0000
  H   H1909     1.0  0.95812  0.30658  0.37652  1.0000
  H   H1910     1.0  0.68984  0.26002  0.03406  1.0000
  H   H1911     1.0  0.57655  0.33540  0.98307  1.0000
  C   C1104     1.0  0.63644  0.32985  0.99928  1.0000
  H   H1912     1.0  0.65825  0.25631  0.13836  1.0000
  H   H1913     1.0  0.95537  0.29342  0.28718  1.0000
  H   H1914     1.0  0.78566  0.46889  0.35146  1.0000
  H   H1915     1.0  0.71484  0.46270  0.27228  1.0000
  H   H1916     1.0  0.90713  0.45745  0.31554  1.0000
  H   H1917     1.0  0.74778  0.46655  0.32744  1.0000
  H   H1918     1.0  0.92892  0.33405  0.40869  1.0000
  S   S257      1.0  0.70437  0.40926  0.98191  1.0000
  S   S258      1.0  0.86450  0.25047  0.19747  1.0000
  H   H1919     1.0  0.61925  0.26962  0.00017  1.0000
  H   H1920     1.0  0.66919  0.26636  0.15794  1.0000
  C   C1105     1.0  0.95229  0.29730  0.34065  1.0000
  H   H1921     1.0  0.75401  0.36257  0.19658  1.0000
  H   H1922     1.0  0.57908  0.28979  0.00116  1.0000
  C   C1106     1.0  0.96179  0.28165  0.33130  1.0000
  H   H1923     1.0  0.64437  0.30024  0.00471  1.0000
  H   H1924     1.0  0.60025  0.29227  0.04967  1.0000
  H   H1925     1.0  0.73190  0.26660  0.01136  1.0000
  H   H1926     1.0  0.69888  0.27111  0.18623  1.0000
  C   C1107     1.0  0.69156  0.42601  0.23080  1.0000
  H   H1927     1.0  0.66817  0.47232  0.26516  1.0000
  H   H1928     1.0  0.91127  0.33521  0.23828  1.0000
  C   C1108     1.0  0.77707  0.34327  0.18657  1.0000
  C   C1109     1.0  0.78708  0.47609  0.40220  1.0000
  C   C1110     1.0  0.80097  0.30742  0.19067  1.0000
  H   H1929     1.0  0.94244  0.30608  0.33271  1.0000
  C   C1111     1.0  0.71154  0.27557  0.05292  1.0000
  C   C1112     1.0  0.77830  0.33001  0.20447  1.0000
  H   H1930     1.0  0.77555  0.36704  0.19716  1.0000
  H   H1931     1.0  0.53005  0.27616  0.99342  1.0000
  C   C1113     1.0  0.76573  0.28535  0.20459  1.0000
  C   C1114     1.0  0.94412  0.33726  0.34141  1.0000
  H   H1932     1.0  0.80028  0.28364  0.18126  1.0000
  H   H1933     1.0  0.61514  0.38577  0.01429  1.0000
  H   H1934     1.0  0.67398  0.44401  0.28966  1.0000
  S   S259      1.0  0.49869  0.25176  0.98735  1.0000
  H   H1935     1.0  0.75037  0.45501  0.35762  1.0000
  Fe  Fe131     1.0  0.64973  0.24413  0.09354  1.0000
  H   H1936     1.0  0.52327  0.26201  0.03372  1.0000
  H   H1937     1.0  0.80173  0.41493  0.47769  1.0000
  H   H1938     1.0  0.67998  0.28227  0.17584  1.0000
  C   C1115     1.0  0.71663  0.24799  0.04082  1.0000
  H   H1939     1.0  0.75534  0.46800  0.37059  1.0000
  H   H1940     1.0  0.96196  0.36068  0.22405  1.0000
  C   C1116     1.0  0.75334  0.28092  0.19470  1.0000
  C   C1117     1.0  0.89535  0.46659  0.31067  1.0000
  C   C1118     1.0  0.68989  0.44167  0.25600  1.0000
  Fe  Fe132     1.0  0.89078  0.48549  0.36546  1.0000
  C   C1119     1.0  0.96371  0.24319  0.21177  1.0000
  C   C1120     1.0  0.90987  0.32093  0.24167  1.0000
  C   C1121     1.0  0.93402  0.35478  0.31297  1.0000
  H   H1941     1.0  0.76907  0.33913  0.17904  1.0000
  S   S260      1.0  0.75417  0.25444  0.09205  1.0000
  S   S261      1.0  0.86541  0.47553  0.36867  1.0000
  H   H1942     1.0  0.98284  0.27313  0.20969  1.0000
  C   C1122     1.0  0.72402  0.48822  0.37222  1.0000
  H   H1943     1.0  0.71704  0.43139  0.28732  1.0000
  H   H1944     1.0  0.60713  0.31379  0.00131  1.0000
  C   C1123     1.0  0.60439  0.32833  0.00172  1.0000
  C   C1124     1.0  0.59248  0.26318  0.01065  1.0000
  C   C1125     1.0  0.73821  0.46795  0.24047  1.0000
  H   H1945     1.0  0.74046  0.25135  0.05923  1.0000
  H   H1946     1.0  0.77846  0.27539  0.20318  1.0000
  H   H1947     1.0  0.55918  0.30938  0.98821  1.0000
  C   C1126     1.0  0.68971  0.27117  0.12428  1.0000
  C   C1127     1.0  0.70341  0.27769  0.10811  1.0000
  H   H1948     1.0  0.94035  0.33486  0.21461  1.0000
  C   C1128     1.0  0.66274  0.31082  0.98219  1.0000
  C   C1129     1.0  0.96675  0.33362  0.21884  1.0000
  H   H1949     1.0  0.75739  0.30502  0.23429  1.0000
  H   H1950     1.0  0.65530  0.35665  0.20350  1.0000
  H   H1951     1.0  0.91346  0.28633  0.18052  1.0000
  H   H1952     1.0  0.69932  0.29237  0.10360  1.0000
  H   H1953     1.0  0.71694  0.27495  0.11149  1.0000
  H   H1954     1.0  0.70414  0.27087  0.09715  1.0000
  H   H1955     1.0  0.90217  0.28318  0.21294  1.0000
  H   H1956     1.0  0.87651  0.45688  0.33334  1.0000
  H   H1957     1.0  0.69787  0.41261  0.25611  1.0000
  C   C1130     1.0  0.95838  0.30708  0.28153  1.0000
  H   H1958     1.0  0.73045  0.47898  0.23195  1.0000
  C   C1131     1.0  0.97870  0.28628  0.20114  1.0000
  H   H1959     1.0  0.81181  0.47875  0.45952  1.0000
  C   C1132     1.0  0.80084  0.25545  0.16130  1.0000
  C   C1133     1.0  0.97876  0.24119  0.15651  1.0000
  H   H1960     1.0  0.75125  0.46283  0.23220  1.0000
  Fe  Fe133     1.0  0.85615  0.48861  0.39240  1.0000
  H   H1961     1.0  0.95960  0.35320  0.31901  1.0000
  H   H1962     1.0  0.68813  0.45393  0.24545  1.0000
  C   C1134     1.0  0.64506  0.33813  0.24761  1.0000
  H   H1963     1.0  0.91834  0.27864  0.32691  1.0000
  H   H1964     1.0  0.76490  0.33295  0.21324  1.0000
  H   H1965     1.0  0.74902  0.38396  0.11452  1.0000
  H   H1966     1.0  0.66855  0.47976  0.43475  1.0000
  C   C1135     1.0  0.68393  0.45295  0.28374  1.0000
  H   H1967     1.0  0.77066  0.31758  0.24032  1.0000
  H   H1968     1.0  0.90698  0.31673  0.25633  1.0000
  H   H1969     1.0  0.65792  0.47177  0.45722  1.0000
  C   C1136     1.0  0.78410  0.44230  0.36518  1.0000
  H   H1970     1.0  0.98128  0.35542  0.20708  1.0000
  H   H1971     1.0  0.83712  0.29036  0.18241  1.0000
  H   H1972     1.0  0.61450  0.36085  0.99974  1.0000
  N   N60       1.0  0.74971  0.48289  0.34512  1.0000
  H   H1973     1.0  0.92740  0.36657  0.31923  1.0000
  H   H1974     1.0  0.74102  0.47338  0.25100  1.0000
  C   C1137     1.0  0.95948  0.29731  0.22880  1.0000
  H   H1975     1.0  0.63745  0.34074  0.98727  1.0000
  C   C1138     1.0  0.78629  0.30004  0.22187  1.0000
  C   C1139     1.0  0.90620  0.28212  0.14339  1.0000
  C   C1140     1.0  0.81753  0.48132  0.39419  1.0000
  H   H1976     1.0  0.89796  0.46926  0.29600  1.0000
  H   H1977     1.0  0.62175  0.30523  0.02599  1.0000
  H   H1978     1.0  0.70922  0.26685  0.06631  1.0000
  H   H1979     1.0  0.66136  0.31702  0.26397  1.0000
  H   H1980     1.0  0.92403  0.34623  0.31455  1.0000
  H   H1981     1.0  0.78803  0.33382  0.21046  1.0000
  C   C1141     1.0  0.60343  0.33924  0.98274  1.0000
  H   H1982     1.0  0.69152  0.41924  0.30425  1.0000
  C   C1142     1.0  0.62248  0.35703  0.02463  1.0000
  H   H1983     1.0  0.93444  0.27268  0.13589  1.0000
  H   H1984     1.0  0.64722  0.46752  0.29439  1.0000
  H   H1985     1.0  0.87474  0.44678  0.42732  1.0000
  H   H1986     1.0  0.82388  0.46843  0.34268  1.0000
  C   C1143     1.0  0.58326  0.27695  0.99630  1.0000
  H   H1987     1.0  0.83283  0.27253  0.17432  1.0000
  H   H1988     1.0  0.91902  0.44255  0.41759  1.0000
  H   H1989     1.0  0.69433  0.30040  0.07371  1.0000
  H   H1990     1.0  0.85941  0.25470  0.23700  1.0000
  H   H1991     1.0  0.59690  0.24963  0.00734  1.0000
  H   H1992     1.0  0.95795  0.28392  0.23728  1.0000
  H   H1993     1.0  0.81029  0.27841  0.20061  1.0000
  C   C1144     1.0  0.77782  0.45876  0.35167  1.0000
  H   H1994     1.0  0.93942  0.34954  0.34726  1.0000
  H   H1995     1.0  0.93061  0.34246  0.37642  1.0000
  H   H1996     1.0  0.76144  0.29386  0.26532  1.0000
  H   H1997     1.0  0.87435  0.44536  0.26054  1.0000
  H   H1998     1.0  0.75538  0.31372  0.20161  1.0000
  C   C1145     1.0  0.69834  0.30209  0.22654  1.0000
  H   H1999     1.0  0.67734  0.35994  0.21810  1.0000
  H   H2000     1.0  0.67423  0.32864  0.20996  1.0000
  S   S262      1.0  0.93416  0.25859  0.23332  1.0000
  H   H2001     1.0  0.71168  0.29842  0.23046  1.0000
  H   H2002     1.0  0.88625  0.46301  0.25944  1.0000
  H   H2003     1.0  0.70050  0.30274  0.21204  1.0000
  C   C1146     1.0  0.94158  0.33212  0.38150  1.0000
  C   C1147     1.0  0.87318  0.45845  0.26429  1.0000
  C   C1148     1.0  0.77269  0.29036  0.25437  1.0000
  N   N61       1.0  0.69851  0.44500  0.26980  1.0000
  H   H2004     1.0  0.69794  0.28055  0.04960  1.0000
  H   H2005     1.0  0.72600  0.47451  0.38052  1.0000
  H   H2006     1.0  0.62871  0.24641  0.14591  1.0000
  H   H2007     1.0  0.95694  0.30916  0.20089  1.0000
  H   H2008     1.0  0.96899  0.28659  0.31775  1.0000
  C   C1149     1.0  0.82319  0.47384  0.32891  1.0000
  H   H2009     1.0  0.74282  0.47334  0.44664  1.0000
  H   H2010     1.0  0.89478  0.44556  0.28749  1.0000
  H   H2011     1.0  0.87421  0.25082  0.26236  1.0000
  H   H2012     1.0  0.91624  0.30013  0.11924  1.0000
  C   C1150     1.0  0.76816  0.36226  0.18943  1.0000
  H   H2013     1.0  0.72303  0.47674  0.35037  1.0000
  C   C1151     1.0  0.92484  0.27434  0.14852  1.0000
  H   H2014     1.0  0.92898  0.28477  0.15318  1.0000
  H   H2015     1.0  0.93189  0.33141  0.34355  1.0000
  N   N62       1.0  0.78339  0.31025  0.20370  1.0000
  H   H2016     1.0  0.76005  0.28085  0.18068  1.0000
  H   H2017     1.0  0.79071  0.34396  0.17840  1.0000
  H   H2018     1.0  0.72798  0.28704  0.06434  1.0000
  H   H2019     1.0  0.78918  0.28534  0.22258  1.0000
  H   H2020     1.0  0.76675  0.47668  0.32040  1.0000
  H   H2021     1.0  0.97553  0.32796  0.22868  1.0000
  S   S263      1.0  0.91848  0.46952  0.35737  1.0000
  H   H2022     1.0  0.81134  0.25232  0.16943  1.0000
  H   H2023     1.0  0.81048  0.45294  0.32614  1.0000
  C   C1152     1.0  0.72968  0.48704  0.35231  1.0000
  H   H2024     1.0  0.70302  0.30869  0.99204  1.0000
  C   C1153     1.0  0.77747  0.36254  0.03875  1.0000
  H   H2025     1.0  0.79223  0.34024  0.06641  1.0000
  H   H2026     1.0  0.79233  0.36095  0.03640  1.0000
  H   H2027     1.0  0.92882  0.24403  0.13973  1.0000
  C   C1154     1.0  0.68842  0.32022  0.23125  1.0000
  H   H2028     1.0  0.63692  0.35621  0.01834  1.0000
  H   H2029     1.0  0.80678  0.31344  0.07640  1.0000
  S   S264      1.0  0.82198  0.26314  0.23434  1.0000
  H   H2030     1.0  0.89986  0.39503  0.40617  1.0000
  S   S265      1.0  0.85593  0.24784  0.15216  1.0000
  H   H2031     1.0  0.73691  0.28378  0.01910  1.0000
  H   H2032     1.0  0.60548  0.28207  0.01683  1.0000
  H   H2033     1.0  0.85691  0.27296  0.33924  1.0000
  H   H2034     1.0  0.86390  0.31102  0.33452  1.0000
  H   H2035     1.0  0.87426  0.36364  0.30268  1.0000
  H   H2036     1.0  0.75863  0.25290  0.01966  1.0000
  S   S266      1.0  0.63335  0.29317  0.12876  1.0000
  S   S267      1.0  0.61981  0.28992  0.08091  1.0000
  H   H2037     1.0  0.62402  0.30137  0.16347  1.0000
  H   H2038     1.0  0.88747  0.41315  0.32612  1.0000
  H   H2039     1.0  0.79318  0.42881  0.45861  1.0000
  H   H2040     1.0  0.88679  0.27750  0.20242  1.0000
  H   H2041     1.0  0.86278  0.28217  0.35541  1.0000
  H   H2042     1.0  0.90326  0.27338  0.13575  1.0000
  C   C1155     1.0  0.78712  0.24320  0.16896  1.0000
  Fe  Fe134     1.0  0.63250  0.27971  0.10550  1.0000
  H   H2043     1.0  0.53677  0.25342  0.00447  1.0000
  H   H2044     1.0  0.70002  0.38686  0.30547  1.0000
  H   H2045     1.0  0.66146  0.39876  0.24205  1.0000
  H   H2046     1.0  0.88127  0.42927  0.29115  1.0000
  H   H2047     1.0  0.66322  0.31488  0.22858  1.0000
  H   H2048     1.0  0.69944  0.28150  0.01458  1.0000
  H   H2049     1.0  0.60363  0.32171  0.05484  1.0000
  H   H2050     1.0  0.58315  0.26225  0.02367  1.0000
  N   N63       1.0  0.94478  0.31176  0.23582  1.0000
  H   H2051     1.0  0.75935  0.28333  0.21884  1.0000
  S   S268      1.0  0.83945  0.47621  0.41771  1.0000
  C   C1156     1.0  0.69948  0.42548  0.24679  1.0000
  C   C1157     1.0  0.69399  0.25681  0.16813  1.0000
  H   H2052     1.0  0.61540  0.25883  0.02320  1.0000
  C   C1158     1.0  0.86749  0.45680  0.28435  1.0000
  H   H2053     1.0  0.87653  0.39076  0.43539  1.0000
  H   H2054     1.0  0.86542  0.42512  0.34883  1.0000
  H   H2055     1.0  0.67688  0.42620  0.23476  1.0000
  H   H2056     1.0  0.72488  0.30792  0.99618  1.0000
  H   H2057     1.0  0.56092  0.25088  0.98290  1.0000
  H   H2058     1.0  0.69815  0.41389  0.22502  1.0000
  H   H2059     1.0  0.97390  0.31149  0.32900  1.0000
  C   C1159     1.0  0.87824  0.45852  0.31873  1.0000
  H   H2060     1.0  0.77541  0.43230  0.36776  1.0000
  H   H2061     1.0  0.77397  0.35324  0.03207  1.0000
  H   H2062     1.0  0.86371  0.40716  0.41030  1.0000
  C   C1160     1.0  0.64370  0.31157  0.99322  1.0000
  H   H2063     1.0  0.68746  0.33990  0.99289  1.0000
  C   C1161     1.0  0.71860  0.29175  0.05488  1.0000
  H   H2064     1.0  0.92259  0.31720  0.40072  1.0000
  C   C1162     1.0  0.88431  0.43414  0.42475  1.0000
  H   H2065     1.0  0.88067  0.41899  0.39805  1.0000
  H   H2066     1.0  0.96336  0.24950  0.25273  1.0000
  C   C1163     1.0  0.67808  0.25320  0.16188  1.0000
  C   C1164     1.0  0.90252  0.39459  0.41937  1.0000
  H   H2067     1.0  0.66221  0.33947  0.26567  1.0000
  H   H2068     1.0  0.80196  0.29025  0.11389  1.0000
  H   H2069     1.0  0.64523  0.32372  0.29290  1.0000
  C   C1165     1.0  0.86892  0.41950  0.40913  1.0000
  H   H2070     1.0  0.72590  0.29820  0.04204  1.0000
  H   H2071     1.0  0.85404  0.45304  0.28810  1.0000
  H   H2072     1.0  0.92691  0.31041  0.21926  1.0000
  H   H2073     1.0  0.66091  0.47678  0.30401  1.0000
  Fe  Fe135     1.0  0.88882  0.25399  0.29058  1.0000
  H   H2074     1.0  0.91679  0.43374  0.30323  1.0000
  C   C1166     1.0  0.72641  0.27560  0.02111  1.0000
  Fe  Fe136     1.0  0.61338  0.26242  0.08318  1.0000
  H   H2075     1.0  0.96341  0.32491  0.25669  1.0000
  H   H2076     1.0  0.95490  0.24526  0.20257  1.0000
  C   C1167     1.0  0.88514  0.40109  0.43229  1.0000
  C   C1168     1.0  0.85439  0.43558  0.40301  1.0000
  H   H2077     1.0  0.69731  0.33008  0.22482  1.0000
  H   H2078     1.0  0.84126  0.43549  0.41233  1.0000
  S   S269      1.0  0.78833  0.25043  0.11145  1.0000
  C   C1169     1.0  0.96019  0.29581  0.20945  1.0000
  H   H2079     1.0  0.90513  0.42826  0.40107  1.0000
  C   C1170     1.0  0.67027  0.32646  0.22470  1.0000
  C   C1171     1.0  0.75617  0.24620  0.03380  1.0000
  C   C1172     1.0  0.77064  0.30436  0.23746  1.0000
  H   H2080     1.0  0.69558  0.31315  0.05133  1.0000
  C   C1173     1.0  0.96085  0.31104  0.26133  1.0000
  C   C1174     1.0  0.82764  0.28659  0.17617  1.0000
  H   H2081     1.0  0.93292  0.31997  0.26101  1.0000
  C   C1175     1.0  0.97276  0.33342  0.35168  1.0000
  C   C1176     1.0  0.66841  0.35648  0.23115  1.0000
  S   S270      1.0  0.93837  0.25992  0.28143  1.0000
  H   H2082     1.0  0.94830  0.26334  0.17009  1.0000
  H   H2083     1.0  0.88875  0.44823  0.39699  1.0000
  N   N64       1.0  0.87425  0.41939  0.42621  1.0000
  C   C1177     1.0  0.85721  0.42200  0.44005  1.0000
  H   H2084     1.0  0.84916  0.43577  0.43672  1.0000
  H   H2085     1.0  0.85877  0.44828  0.40186  1.0000
  C   C1178     1.0  0.90597  0.43835  0.36230  1.0000
  H   H2086     1.0  0.86360  0.43536  0.37504  1.0000
  H   H2087     1.0  0.92752  0.41604  0.32995  1.0000
  C   C1179     1.0  0.85102  0.43491  0.38512  1.0000
  H   H2088     1.0  0.71426  0.39000  0.28391  1.0000
  C   C1180     1.0  0.84046  0.24181  0.12719  1.0000
  C   C1181     1.0  0.91332  0.25851  0.17910  1.0000
  H   H2089     1.0  0.70320  0.47097  0.25423  1.0000
  C   C1182     1.0  0.75748  0.46598  0.35686  1.0000
  H   H2090     1.0  0.68646  0.41358  0.28559  1.0000
  H   H2091     1.0  0.93726  0.40452  0.31179  1.0000
  H   H2092     1.0  0.64856  0.37167  0.24983  1.0000
  C   C1183     1.0  0.93888  0.41631  0.36788  1.0000
  H   H2093     1.0  0.84058  0.44663  0.38104  1.0000
  H   H2094     1.0  0.84614  0.42244  0.38605  1.0000
  H   H2095     1.0  0.58615  0.30450  0.03388  1.0000
  C   C1184     1.0  0.92449  0.40898  0.32076  1.0000
  N   N65       1.0  0.65773  0.34304  0.23032  1.0000
  H   H2096     1.0  0.55648  0.26165  0.01923  1.0000
  H   H2097     1.0  0.79814  0.43605  0.36006  1.0000
  C   C1185     1.0  0.61228  0.35159  0.01282  1.0000
  H   H2098     1.0  0.89492  0.33462  0.31401  1.0000
  H   H2099     1.0  0.95164  0.40786  0.37005  1.0000
  H   H2100     1.0  0.85263  0.48698  0.45006  1.0000
  S   S271      1.0  0.91159  0.30579  0.29580  1.0000
  H   H2101     1.0  0.67878  0.37944  0.24697  1.0000
  C   C1186     1.0  0.55229  0.27200  0.00787  1.0000
  H   H2102     1.0  0.62144  0.34838  0.03802  1.0000
  C   C1187     1.0  0.90864  0.29241  0.34891  1.0000
  H   H2103     1.0  0.76305  0.43619  0.47588  1.0000
  H   H2104     1.0  0.98572  0.33711  0.32314  1.0000
  C   C1188     1.0  0.94883  0.31775  0.36964  1.0000
  H   H2105     1.0  0.72466  0.44879  0.23720  1.0000
  H   H2106     1.0  0.91282  0.28074  0.35862  1.0000
  C   C1189     1.0  0.70345  0.30619  0.06176  1.0000
  C   C1190     1.0  0.90709  0.30654  0.31834  1.0000
  C   C1191     1.0  0.69591  0.24962  0.04421  1.0000
  S   S272      1.0  0.89848  0.27719  0.27110  1.0000
  H   H2107     1.0  0.95223  0.33897  0.38216  1.0000
  C   C1192     1.0  0.91180  0.29124  0.33098  1.0000
  H   H2108     1.0  0.89437  0.42900  0.33417  1.0000
  H   H2109     1.0  0.71406  0.42505  0.24208  1.0000
  C   C1193     1.0  0.81376  0.47213  0.30177  1.0000
  H   H2110     1.0  0.63659  0.36360  0.21993  1.0000
  H   H2111     1.0  0.68668  0.31894  0.24570  1.0000
  H   H2112     1.0  0.64606  0.39120  0.00568  1.0000
  C   C1194     1.0  0.91108  0.42162  0.30993  1.0000
  H   H2113     1.0  0.90998  0.41477  0.29960  1.0000
  C   C1195     1.0  0.69757  0.41457  0.29156  1.0000
  H   H2114     1.0  0.78086  0.45473  0.33864  1.0000
  Fe  Fe137     1.0  0.91320  0.27815  0.29161  1.0000
  H   H2115     1.0  0.93863  0.35968  0.29860  1.0000
  H   H2116     1.0  0.90142  0.26000  0.21477  1.0000
  H   H2117     1.0  0.63515  0.35306  0.18476  1.0000
  C   C1196     1.0  0.92056  0.44612  0.36149  1.0000
  C   C1197     1.0  0.93709  0.43506  0.36405  1.0000
  C   C1198     1.0  0.89230  0.42613  0.32183  1.0000
  H   H2118     1.0  0.70936  0.24877  0.13448  1.0000
  H   H2119     1.0  0.78373  0.44621  0.37785  1.0000
  C   C1199     1.0  0.71512  0.29958  0.99632  1.0000
  H   H2120     1.0  0.76631  0.35926  0.97940  1.0000
  Fe  Fe138     1.0  0.92275  0.25701  0.26237  1.0000
  N   N66       1.0  0.61772  0.33229  0.01046  1.0000
  C   C1200     1.0  0.74192  0.25859  0.04516  1.0000
  H   H2121     1.0  0.91270  0.40282  0.41802  1.0000
  C   C1201     1.0  0.95686  0.24816  0.22827  1.0000
  H   H2122     1.0  0.71952  0.42092  0.26955  1.0000
  C   C1202     1.0  0.72783  0.45265  0.24844  1.0000
  H   H2123     1.0  0.63815  0.32753  0.24689  1.0000
  H   H2124     1.0  0.59059  0.33100  0.00980  1.0000
  H   H2125     1.0  0.77759  0.46211  0.46756  1.0000
  H   H2126     1.0  0.67651  0.27391  0.12026  1.0000
  H   H2127     1.0  0.54909  0.28494  0.01253  1.0000
  C   C1203     1.0  0.76056  0.37275  0.11214  1.0000
  H   H2128     1.0  0.62899  0.32045  0.03398  1.0000
  H   H2129     1.0  0.92315  0.37075  0.41666  1.0000
  C   C1204     1.0  0.90040  0.27338  0.20576  1.0000
  H   H2130     1.0  0.92809  0.26937  0.19327  1.0000
  C   C1205     1.0  0.90963  0.45087  0.40892  1.0000
  N   N67       1.0  0.87834  0.44101  0.31389  1.0000
  H   H2131     1.0  0.63406  0.34983  0.25005  1.0000
  N   N68       1.0  0.56744  0.27209  0.99193  1.0000
  H   H2132     1.0  0.88953  0.40057  0.44475  1.0000
  H   H2133     1.0  0.89247  0.43042  0.43529  1.0000
  H   H2134     1.0  0.55445  0.25430  0.06804  1.0000
  H   H2135     1.0  0.51627  0.28497  0.02268  1.0000
  H   H2136     1.0  0.59760  0.35521  0.01795  1.0000
  H   H2137     1.0  0.59034  0.33347  0.03892  1.0000
  C   C1206     1.0  0.88133  0.44250  0.29409  1.0000
  C   C1207     1.0  0.85443  0.43339  0.34215  1.0000
  H   H2138     1.0  0.85947  0.42370  0.31757  1.0000
  H   H2139     1.0  0.89169  0.48210  0.33095  1.0000
  C   C1208     1.0  0.65348  0.33080  0.26434  1.0000
  H   H2140     1.0  0.77242  0.37858  0.10441  1.0000
  C   C1209     1.0  0.86014  0.43607  0.32171  1.0000
  H   H2141     1.0  0.84256  0.40947  0.35080  1.0000
  H   H2142     1.0  0.82860  0.42856  0.33980  1.0000
  H   H2143     1.0  0.95903  0.35981  0.20232  1.0000
  H   H2144     1.0  0.94846  0.44104  0.36333  1.0000
  H   H2145     1.0  0.68868  0.27922  0.13432  1.0000
  H   H2146     1.0  0.86637  0.46882  0.31531  1.0000
  H   H2147     1.0  0.62985  0.32061  0.28073  1.0000
  C   C1210     1.0  0.83813  0.42424  0.34904  1.0000
  H   H2148     1.0  0.71742  0.34731  0.97828  1.0000
  C   C1211     1.0  0.61796  0.31934  0.02797  1.0000
  C   C1212     1.0  0.60026  0.32108  0.04219  1.0000
  C   C1213     1.0  0.93397  0.32356  0.40047  1.0000
  H   H2149     1.0  0.85078  0.44666  0.34615  1.0000
  H   H2150     1.0  0.89244  0.30582  0.12774  1.0000
  C   C1214     1.0  0.94381  0.30959  0.25546  1.0000
  H   H2151     1.0  0.68195  0.46562  0.45047  1.0000
  H   H2152     1.0  0.82711  0.29537  0.16292  1.0000
  S   S273      1.0  0.62265  0.25349  0.10961  1.0000
  H   H2153     1.0  0.91773  0.45570  0.39581  1.0000
  H   H2154     1.0  0.84938  0.44659  0.31655  1.0000
  H   H2155     1.0  0.83085  0.42746  0.36207  1.0000
  H   H2156     1.0  0.79673  0.39666  0.45870  1.0000
  H   H2157     1.0  0.76345  0.36489  0.12516  1.0000
  C   C1215     1.0  0.71057  0.45857  0.26163  1.0000
  H   H2158     1.0  0.60070  0.37752  0.03472  1.0000
  H   H2159     1.0  0.70931  0.31631  0.06494  1.0000
  H   H2160     1.0  0.86614  0.47026  0.28731  1.0000
  H   H2161     1.0  0.80558  0.28263  0.09333  1.0000
  H   H2162     1.0  0.74049  0.29088  0.19515  1.0000
  H   H2163     1.0  0.70309  0.26362  0.15699  1.0000
  C   C1216     1.0  0.76868  0.30503  0.19770  1.0000
  H   H2164     1.0  0.77252  0.27681  0.25241  1.0000
  S   S274      1.0  0.76661  0.47821  0.39593  1.0000
  C   C1217     1.0  0.59094  0.30507  0.04575  1.0000
  H   H2165     1.0  0.89530  0.28349  0.15516  1.0000
  H   H2166     1.0  0.71981  0.39609  0.30233  1.0000
  H   H2167     1.0  0.67598  0.43929  0.26187  1.0000
  H   H2168     1.0  0.91497  0.37401  0.43918  1.0000
  H   H2169     1.0  0.74804  0.27028  0.04450  1.0000
  C   C1218     1.0  0.91497  0.27272  0.18898  1.0000
  C   C1219     1.0  0.67007  0.47660  0.44880  1.0000
  H   H2170     1.0  0.76807  0.37160  0.17643  1.0000
  H   H2171     1.0  0.68946  0.24317  0.09403  1.0000
  H   H2172     1.0  0.50722  0.26713  0.01941  1.0000
  C   C1220     1.0  0.96839  0.24558  0.24008  1.0000
  H   H2173     1.0  0.62298  0.38015  0.03491  1.0000
  H   H2174     1.0  0.89150  0.30554  0.23817  1.0000
  C   C1221     1.0  0.65661  0.47695  0.29158  1.0000
  H   H2175     1.0  0.63077  0.34300  0.28260  1.0000
  C   C1222     1.0  0.63888  0.32948  0.28112  1.0000
  H   H2176     1.0  0.81133  0.31251  0.19459  1.0000
  H   H2177     1.0  0.91903  0.39694  0.32859  1.0000
  C   C1223     1.0  0.69567  0.25093  0.13154  1.0000
  C   C1224     1.0  0.70870  0.39575  0.29603  1.0000
  H   H2178     1.0  0.70373  0.29871  0.02368  1.0000
  H   H2179     1.0  0.75028  0.26737  0.20082  1.0000
  H   H2180     1.0  0.77110  0.30767  0.18297  1.0000
  H   H2181     1.0  0.93700  0.31209  0.36980  1.0000
  H   H2182     1.0  0.94021  0.34035  0.23496  1.0000
  H   H2183     1.0  0.88127  0.32804  0.24153  1.0000
  C   C1225     1.0  0.70911  0.42803  0.27909  1.0000
  H   H2184     1.0  0.74735  0.47884  0.29307  1.0000
  C   C1226     1.0  0.89349  0.31965  0.23501  1.0000
  C   C1227     1.0  0.73934  0.47926  0.45823  1.0000
  H   H2185     1.0  0.67814  0.26275  0.19350  1.0000
  C   C1228     1.0  0.85977  0.41982  0.45931  1.0000
  H   H2186     1.0  0.94493  0.29153  0.35380  1.0000
  H   H2187     1.0  0.67897  0.36353  0.99252  1.0000
  H   H2188     1.0  0.57418  0.24314  0.99929  1.0000
  H   H2189     1.0  0.84142  0.25544  0.12048  1.0000
  H   H2190     1.0  0.97843  0.32706  0.36386  1.0000
  C   C1229     1.0  0.82060  0.48779  0.29349  1.0000
  H   H2191     1.0  0.94721  0.31710  0.28730  1.0000
  Fe  Fe139     1.0  0.84003  0.24433  0.21739  1.0000
  N   N69       1.0  0.92638  0.25692  0.16181  1.0000
  C   C1230     1.0  0.77411  0.24146  0.03995  1.0000
  C   C1231     1.0  0.89347  0.48435  0.31633  1.0000
  H   H2192     1.0  0.59878  0.35379  0.98287  1.0000
  C   C1232     1.0  0.68115  0.35263  0.98513  1.0000
  H   H2193     1.0  0.70190  0.24407  0.17431  1.0000
  C   C1233     1.0  0.79867  0.48532  0.46651  1.0000
  C   C1234     1.0  0.92372  0.24186  0.15432  1.0000
  H   H2194     1.0  0.77930  0.25377  0.03906  1.0000
  H   H2195     1.0  0.89919  0.26143  0.17735  1.0000
  H   H2196     1.0  0.69766  0.24409  0.12036  1.0000
  S   S275      1.0  0.71433  0.45760  0.47153  1.0000
  C   C1235     1.0  0.72562  0.47418  0.47227  1.0000
  H   H2197     1.0  0.79947  0.44975  0.47007  1.0000
  H   H2198     1.0  0.86432  0.40543  0.46496  1.0000
  H   H2199     1.0  0.68950  0.25297  0.05742  1.0000
  Fe  Fe140     1.0  0.75968  0.24702  0.11972  1.0000
  H   H2200     1.0  0.59373  0.27954  0.98416  1.0000
  H   H2201     1.0  0.97824  0.28385  0.18805  1.0000
  H   H2202     1.0  0.83716  0.44106  0.46653  1.0000
  H   H2203     1.0  0.63517  0.30934  0.98493  1.0000
  H   H2204     1.0  0.94605  0.24047  0.17698  1.0000
  H   H2205     1.0  0.77742  0.24690  0.15993  1.0000
  C   C1236     1.0  0.96082  0.24746  0.15025  1.0000
  C   C1237     1.0  0.84210  0.42651  0.47124  1.0000
  H   H2206     1.0  0.98160  0.25164  0.16219  1.0000
  H   H2207     1.0  0.96205  0.25939  0.13945  1.0000
  C   C1238     1.0  0.58313  0.24483  0.06188  1.0000
  C   C1239     1.0  0.94515  0.25215  0.16575  1.0000
  H   H2208     1.0  0.72116  0.29050  0.98672  1.0000
  H   H2209     1.0  0.69565  0.48877  0.37373  1.0000
  H   H2210     1.0  0.77969  0.24606  0.18205  1.0000
  H   H2211     1.0  0.82831  0.48592  0.38415  1.0000
  C   C1240     1.0  0.66601  0.24239  0.14157  1.0000
  C   C1241     1.0  0.68336  0.40614  0.98015  1.0000
  H   H2212     1.0  0.83179  0.41888  0.47133  1.0000
  H   H2213     1.0  0.66785  0.35128  0.98349  1.0000
  H   H2214     1.0  0.66997  0.24613  0.17387  1.0000
  H   H2215     1.0  0.67311  0.48932  0.46865  1.0000
  H   H2216     1.0  0.72266  0.23966  0.08726  1.0000
  H   H2217     1.0  0.66767  0.29763  0.97806  1.0000
  C   C1242     1.0  0.54998  0.41082  0.88929  1.0000
  C   C1243     1.0  0.59739  0.37836  0.78276  1.0000
  H   H2218     1.0  0.49485  0.24198  0.83420  1.0000
  H   H2219     1.0  0.62886  0.46435  0.84299  1.0000
  H   H2220     1.0  0.80157  0.46740  0.49100  1.0000
  H   H2221     1.0  0.59121  0.45296  0.82318  1.0000
  H   H2222     1.0  0.58498  0.24309  0.92746  1.0000
  C   C1244     1.0  0.79001  0.44107  0.52095  1.0000
  C   C1245     1.0  0.73139  0.32937  0.94945  1.0000
  H   H2223     1.0  0.77174  0.36420  0.64933  1.0000
  C   C1246     1.0  0.55206  0.31880  0.96274  1.0000
  C   C1247     1.0  0.79110  0.43310  0.50447  1.0000
  H   H2224     1.0  0.69020  0.44804  0.74848  1.0000
  C   C1248     1.0  0.76067  0.45238  0.50179  1.0000
  S   S276      1.0  0.55614  0.35523  0.89358  1.0000
  H   H2225     1.0  0.70896  0.37062  0.97605  1.0000
  H   H2226     1.0  0.61672  0.33736  0.97376  1.0000
  S   S277      1.0  0.71585  0.45225  0.62772  1.0000
  H   H2227     1.0  0.57380  0.42106  0.95985  1.0000
  S   S278      1.0  0.73322  0.46454  0.70355  1.0000
  H   H2228     1.0  0.68375  0.45290  0.71368  1.0000
  H   H2229     1.0  0.64182  0.40525  0.87399  1.0000
  C   C1249     1.0  0.50291  0.39561  0.88829  1.0000
  H   H2230     1.0  0.60967  0.25944  0.91357  1.0000
  N   N70       1.0  0.57813  0.38822  0.78634  1.0000
  S   S279      1.0  0.64867  0.36073  0.90772  1.0000
  Fe  Fe141     1.0  0.66618  0.37312  0.91784  1.0000
  H   H2231     1.0  0.59865  0.28142  0.93806  1.0000
  S   S280      1.0  0.55188  0.44960  0.84708  1.0000
  Fe  Fe142     1.0  0.69904  0.38651  0.76992  1.0000
  S   S281      1.0  0.70205  0.40279  0.78832  1.0000
  S   S282      1.0  0.70995  0.39027  0.74057  1.0000
  Fe  Fe143     1.0  0.67477  0.36504  0.79837  1.0000
  S   S283      1.0  0.67552  0.37948  0.81926  1.0000
  S   S284      1.0  0.65843  0.34340  0.80485  1.0000
  Fe  Fe144     1.0  0.67247  0.40424  0.79823  1.0000
  S   S285      1.0  0.65514  0.42960  0.80581  1.0000
  Fe  Fe145     1.0  0.70487  0.37671  0.80790  1.0000
  S   S286      1.0  0.72515  0.37069  0.82550  1.0000
  S   S287      1.0  0.66903  0.39018  0.77826  1.0000
  S   S288      1.0  0.70464  0.36005  0.78853  1.0000
  C   C1250     1.0  0.73155  0.38826  0.92471  1.0000
  S   S289      1.0  0.58236  0.37305  0.84724  1.0000
  C   C1251     1.0  0.71563  0.42454  0.82148  1.0000
  C   C1252     1.0  0.56516  0.25990  0.91160  1.0000
  H   H2232     1.0  0.61409  0.30412  0.84966  1.0000
  C   C1253     1.0  0.61953  0.29281  0.85967  1.0000
  H   H2233     1.0  0.55516  0.33874  0.82528  1.0000
  H   H2234     1.0  0.68813  0.44329  0.78922  1.0000
  H   H2235     1.0  0.60561  0.36922  0.87218  1.0000
  H   H2236     1.0  0.67290  0.39608  0.85547  1.0000
  C   C1254     1.0  0.63663  0.35186  0.81524  1.0000
  C   C1255     1.0  0.63203  0.36969  0.81743  1.0000
  C   C1256     1.0  0.53907  0.25132  0.89611  1.0000
  C   C1257     1.0  0.62392  0.34072  0.82180  1.0000
  H   H2237     1.0  0.64152  0.37855  0.81192  1.0000
  H   H2238     1.0  0.61175  0.38989  0.82889  1.0000
  H   H2239     1.0  0.62736  0.32702  0.81979  1.0000
  N   N71       1.0  0.54661  0.41526  0.92152  1.0000
  H   H2240     1.0  0.70832  0.44244  0.77222  1.0000
  C   C1258     1.0  0.70336  0.37269  0.88410  1.0000
  C   C1259     1.0  0.72053  0.37607  0.87587  1.0000
  C   C1260     1.0  0.72717  0.37510  0.85798  1.0000
  C   C1261     1.0  0.71663  0.37094  0.84812  1.0000
  C   C1262     1.0  0.69960  0.36715  0.85645  1.0000
  C   C1263     1.0  0.69297  0.36802  0.87443  1.0000
  C   C1264     1.0  0.57573  0.39791  0.80124  1.0000
  H   H2241     1.0  0.74041  0.37788  0.85166  1.0000
  H   H2242     1.0  0.69154  0.36353  0.84909  1.0000
  H   H2243     1.0  0.67976  0.36528  0.88067  1.0000
  C   C1265     1.0  0.72673  0.44395  0.71397  1.0000
  C   C1266     1.0  0.72756  0.43700  0.73183  1.0000
  C   C1267     1.0  0.72231  0.42054  0.74021  1.0000
  C   C1268     1.0  0.71654  0.41089  0.73063  1.0000
  C   C1269     1.0  0.71602  0.41772  0.71272  1.0000
  C   C1270     1.0  0.72092  0.43430  0.70448  1.0000
  H   H2244     1.0  0.73223  0.44435  0.73919  1.0000
  H   H2245     1.0  0.72313  0.41515  0.75393  1.0000
  H   H2246     1.0  0.71159  0.41026  0.70529  1.0000
  H   H2247     1.0  0.72057  0.43942  0.69070  1.0000
  H   H2248     1.0  0.71451  0.35179  0.93498  1.0000
  H   H2249     1.0  0.55114  0.38795  0.93634  1.0000
  C   C1271     1.0  0.55419  0.41364  0.82485  1.0000
  H   H2250     1.0  0.54201  0.42428  0.82669  1.0000
  Fe  Fe146     1.0  0.54525  0.32529  0.86680  1.0000
  H   H2251     1.0  0.59913  0.36936  0.77329  1.0000
  H   H2252     1.0  0.80442  0.43779  0.54202  1.0000
  H   H2253     1.0  0.69451  0.42441  0.88185  1.0000
  S   S290      1.0  0.64523  0.39771  0.92245  1.0000
  S   S291      1.0  0.61704  0.37000  0.94228  1.0000
  C   C1272     1.0  0.59065  0.44241  0.86615  1.0000
  H   H2254     1.0  0.65919  0.43384  0.90807  1.0000
  C   C1273     1.0  0.55711  0.42196  0.93150  1.0000
  H   H2255     1.0  0.77380  0.37289  0.95805  1.0000
  C   C1274     1.0  0.74525  0.44888  0.57873  1.0000
  C   C1275     1.0  0.73421  0.44512  0.59544  1.0000
  C   C1276     1.0  0.72960  0.45739  0.60678  1.0000
  H   H2256     1.0  0.64999  0.46578  0.72693  1.0000
  H   H2257     1.0  0.60826  0.40189  0.76552  1.0000
  H   H2258     1.0  0.74899  0.43920  0.57015  1.0000
  H   H2259     1.0  0.72938  0.43260  0.59966  1.0000
  H   H2260     1.0  0.78916  0.41899  0.50983  1.0000
  H   H2261     1.0  0.56863  0.41951  0.89939  1.0000
  Fe  Fe147     1.0  0.56062  0.32518  0.89822  1.0000
  H   H2262     1.0  0.63516  0.36848  0.77848  1.0000
  H   H2263     1.0  0.60639  0.43026  0.77644  1.0000
  C   C1277     1.0  0.78043  0.37227  0.63878  1.0000
  H   H2264     1.0  0.50507  0.26154  0.82693  1.0000
  H   H2265     1.0  0.64949  0.37980  0.85733  1.0000
  H   H2266     1.0  0.74063  0.31958  0.92463  1.0000
  S   S292      1.0  0.53285  0.32472  0.89544  1.0000
  H   H2267     1.0  0.74100  0.43487  0.50766  1.0000
  Fe  Fe148     1.0  0.63738  0.38140  0.94954  1.0000
  H   H2268     1.0  0.55368  0.42083  0.79706  1.0000
  H   H2269     1.0  0.62863  0.37383  0.75713  1.0000
  H   H2270     1.0  0.58273  0.40263  0.92770  1.0000
  H   H2271     1.0  0.72173  0.32608  0.96194  1.0000
  H   H2272     1.0  0.58645  0.44677  0.85359  1.0000
  C   C1278     1.0  0.77491  0.42296  0.69678  1.0000
  H   H2273     1.0  0.53257  0.40272  0.94666  1.0000
  C   C1279     1.0  0.60994  0.43309  0.78769  1.0000
  Fe  Fe149     1.0  0.52376  0.46501  0.84678  1.0000
  H   H2274     1.0  0.78968  0.45570  0.51766  1.0000
  H   H2275     1.0  0.52128  0.43234  0.93014  1.0000
  H   H2276     1.0  0.67034  0.45207  0.84765  1.0000
  S   S293      1.0  0.60891  0.39543  0.89541  1.0000
  H   H2277     1.0  0.84420  0.42450  0.48500  1.0000
  H   H2278     1.0  0.52524  0.26379  0.95868  1.0000
  H   H2279     1.0  0.54792  0.42735  0.94295  1.0000
  H   H2280     1.0  0.58976  0.34150  0.96131  1.0000
  C   C1280     1.0  0.60872  0.32942  0.92720  1.0000
  N   N72       1.0  0.66691  0.46859  0.74363  1.0000
  C   C1281     1.0  0.56333  0.40283  0.87440  1.0000
  C   C1282     1.0  0.69318  0.35703  0.96705  1.0000
  H   H2281     1.0  0.64552  0.46152  0.77880  1.0000
  C   C1283     1.0  0.62809  0.29969  0.87150  1.0000
  H   H2282     1.0  0.51012  0.37077  0.93679  1.0000
  H   H2283     1.0  0.68116  0.43658  0.90907  1.0000
  H   H2284     1.0  0.56320  0.43335  0.92285  1.0000
  C   C1284     1.0  0.66542  0.43682  0.71290  1.0000
  H   H2285     1.0  0.52561  0.29477  0.95949  1.0000
  C   C1285     1.0  0.77374  0.42951  0.48379  1.0000
  S   S294      1.0  0.52873  0.48912  0.85405  1.0000
  H   H2286     1.0  0.74510  0.32599  0.95249  1.0000
  H   H2287     1.0  0.69656  0.43258  0.85172  1.0000
  C   C1286     1.0  0.59306  0.44865  0.89377  1.0000
  H   H2288     1.0  0.72465  0.41279  0.82791  1.0000
  H   H2289     1.0  0.52760  0.39127  0.86929  1.0000
  S   S295      1.0  0.53896  0.35525  0.85912  1.0000
  C   C1287     1.0  0.58151  0.25723  0.92056  1.0000
  H   H2290     1.0  0.71818  0.43710  0.82372  1.0000
  H   H2291     1.0  0.74176  0.45449  0.53668  1.0000
  H   H2292     1.0  0.57152  0.38361  0.75395  1.0000
  S   S296      1.0  0.53990  0.30623  0.85267  1.0000
  C   C1288     1.0  0.56603  0.37461  0.79108  1.0000
  H   H2293     1.0  0.74471  0.38866  0.92742  1.0000
  C   C1289     1.0  0.70971  0.41042  0.66163  1.0000
  H   H2294     1.0  0.70756  0.40393  0.67587  1.0000
  H   H2295     1.0  0.70336  0.42489  0.66031  1.0000
  H   H2296     1.0  0.70299  0.40408  0.65461  1.0000
  H   H2297     1.0  0.55257  0.40184  0.83574  1.0000
  H   H2298     1.0  0.59727  0.33846  0.83690  1.0000
  C   C1290     1.0  0.61190  0.39025  0.77599  1.0000
  C   C1291     1.0  0.59412  0.32626  0.92175  1.0000
  H   H2299     1.0  0.71888  0.42477  0.80701  1.0000
  H   H2300     1.0  0.63487  0.35567  0.85945  1.0000
  S   S297      1.0  0.50440  0.37297  0.89911  1.0000
  H   H2301     1.0  0.66287  0.32151  0.97008  1.0000
  H   H2302     1.0  0.70995  0.47895  0.49761  1.0000
  C   C1292     1.0  0.55450  0.34786  0.81222  1.0000
  H   H2303     1.0  0.52225  0.25138  0.92230  1.0000
  H   H2304     1.0  0.65426  0.29781  0.85468  1.0000
  H   H2305     1.0  0.60821  0.28637  0.86784  1.0000
  H   H2306     1.0  0.55721  0.41449  0.74063  1.0000
  H   H2307     1.0  0.70139  0.33289  0.84274  1.0000
  C   C1293     1.0  0.59668  0.44206  0.79965  1.0000
  H   H2308     1.0  0.64203  0.47747  0.84875  1.0000
  C   C1294     1.0  0.53587  0.44859  0.90780  1.0000
  H   H2309     1.0  0.79406  0.44584  0.60305  1.0000
  H   H2310     1.0  0.55944  0.33960  0.80181  1.0000
  H   H2311     1.0  0.51233  0.26097  0.88949  1.0000
  H   H2312     1.0  0.61614  0.35936  0.89101  1.0000
  H   H2313     1.0  0.64789  0.45316  0.87478  1.0000
  H   H2314     1.0  0.72867  0.37962  0.88326  1.0000
  H   H2315     1.0  0.70575  0.38199  0.93804  1.0000
  C   C1295     1.0  0.53303  0.25848  0.91367  1.0000
  H   H2316     1.0  0.63286  0.28800  0.88146  1.0000
  H   H2317     1.0  0.62954  0.28276  0.85278  1.0000
  C   C1296     1.0  0.60696  0.34715  0.83147  1.0000
  S   S298      1.0  0.57159  0.30472  0.92024  1.0000
  H   H2318     1.0  0.63494  0.44026  0.86913  1.0000
  C   C1297     1.0  0.59813  0.26170  0.90687  1.0000
  H   H2319     1.0  0.54047  0.28645  0.92316  1.0000
  H   H2320     1.0  0.81876  0.43474  0.52101  1.0000
  H   H2321     1.0  0.68621  0.36960  0.95964  1.0000
  C   C1298     1.0  0.61512  0.37614  0.82694  1.0000
  H   H2322     1.0  0.56374  0.27343  0.90271  1.0000
  H   H2323     1.0  0.61157  0.34282  0.92407  1.0000
  C   C1299     1.0  0.72692  0.34944  0.94047  1.0000
  H   H2324     1.0  0.64052  0.29535  0.90316  1.0000
  H   H2325     1.0  0.75664  0.42813  0.52245  1.0000
  C   C1300     1.0  0.58898  0.25043  0.97250  1.0000
  C   C1301     1.0  0.73080  0.31718  0.93727  1.0000
  C   C1302     1.0  0.53088  0.43014  0.91760  1.0000
  H   H2326     1.0  0.56593  0.32061  0.95608  1.0000
  H   H2327     1.0  0.51065  0.33680  0.85384  1.0000
  C   C1303     1.0  0.71869  0.38137  0.94193  1.0000
  H   H2328     1.0  0.75888  0.39409  0.63277  1.0000
  C   C1304     1.0  0.57204  0.40985  0.73769  1.0000
  H   H2329     1.0  0.58027  0.38851  0.81286  1.0000
  C   C1305     1.0  0.76661  0.41412  0.68634  1.0000
  H   H2330     1.0  0.69440  0.34599  0.96010  1.0000
  C   C1306     1.0  0.74857  0.43991  0.51503  1.0000
  C   C1307     1.0  0.50951  0.29260  0.85923  1.0000
  C   C1308     1.0  0.72349  0.40724  0.91610  1.0000
  C   C1309     1.0  0.57293  0.40816  0.93865  1.0000
  C   C1310     1.0  0.61927  0.44155  0.81613  1.0000
  H   H2331     1.0  0.72104  0.41665  0.92531  1.0000
  C   C1311     1.0  0.50514  0.32477  0.85644  1.0000
  H   H2332     1.0  0.68732  0.43465  0.82186  1.0000
  C   C1312     1.0  0.62284  0.48317  0.77734  1.0000
  C   C1313     1.0  0.59029  0.33337  0.97482  1.0000
  H   H2333     1.0  0.54774  0.44707  0.89688  1.0000
  H   H2334     1.0  0.57989  0.35457  0.81073  1.0000
  C   C1314     1.0  0.55643  0.40835  0.80705  1.0000
  H   H2335     1.0  0.56938  0.25016  0.90262  1.0000
  C   C1315     1.0  0.75127  0.46519  0.57301  1.0000
  H   H2336     1.0  0.60100  0.36919  0.79502  1.0000
  H   H2337     1.0  0.57871  0.42145  0.73570  1.0000
  C   C1316     1.0  0.67979  0.42986  0.88451  1.0000
  C   C1317     1.0  0.69724  0.45145  0.77941  1.0000
  C   C1318     1.0  0.58671  0.45417  0.87782  1.0000
  H   H2338     1.0  0.75402  0.36154  0.94426  1.0000
  H   H2339     1.0  0.56746  0.39668  0.90798  1.0000
  H   H2340     1.0  0.78146  0.44535  0.63495  1.0000
  H   H2341     1.0  0.67516  0.30929  0.88353  1.0000
  H   H2342     1.0  0.65795  0.28078  0.92662  1.0000
  C   C1319     1.0  0.66509  0.28357  0.91261  1.0000
  H   H2343     1.0  0.73531  0.39351  0.65524  1.0000
  H   H2344     1.0  0.55183  0.38129  0.79053  1.0000
  H   H2345     1.0  0.73293  0.41199  0.90388  1.0000
  C   C1320     1.0  0.69497  0.32815  0.83413  1.0000
  H   H2346     1.0  0.66758  0.27126  0.90705  1.0000
  C   C1321     1.0  0.72982  0.40815  0.65352  1.0000
  C   C1322     1.0  0.57815  0.39503  0.75273  1.0000
  H   H2347     1.0  0.52399  0.47453  0.89401  1.0000
  C   C1323     1.0  0.51629  0.29222  0.95226  1.0000
  C   C1324     1.0  0.60135  0.44602  0.81398  1.0000
  C   C1325     1.0  0.61571  0.29799  0.94078  1.0000
  H   H2348     1.0  0.79394  0.36978  0.64216  1.0000
  H   H2349     1.0  0.64558  0.33782  0.88626  1.0000
  C   C1326     1.0  0.60193  0.43080  0.89863  1.0000
  H   H2350     1.0  0.50358  0.29938  0.91544  1.0000
  H   H2351     1.0  0.50299  0.29207  0.96130  1.0000
  H   H2352     1.0  0.76285  0.46203  0.50889  1.0000
  C   C1327     1.0  0.71177  0.35930  0.96897  1.0000
  H   H2353     1.0  0.71061  0.40733  0.91243  1.0000
  H   H2354     1.0  0.67814  0.28704  0.91240  1.0000
  H   H2355     1.0  0.54598  0.40045  0.80844  1.0000
  C   C1328     1.0  0.74328  0.36129  0.95640  1.0000
  H   H2356     1.0  0.54426  0.42483  0.88353  1.0000
  H   H2357     1.0  0.63815  0.42165  0.78060  1.0000
  H   H2358     1.0  0.60063  0.34842  0.88589  1.0000
  C   C1329     1.0  0.62787  0.42819  0.79007  1.0000
  H   H2359     1.0  0.73113  0.41413  0.63922  1.0000
  H   H2360     1.0  0.65756  0.44271  0.83799  1.0000
  C   C1330     1.0  0.73485  0.44987  0.52840  1.0000
  H   H2361     1.0  0.52572  0.42361  0.85543  1.0000
  H   H2362     1.0  0.62628  0.39094  0.85958  1.0000
  N   N73       1.0  0.75910  0.41767  0.65517  1.0000
  H   H2363     1.0  0.69886  0.40885  0.85520  1.0000
  H   H2364     1.0  0.70565  0.31996  0.82571  1.0000
  H   H2365     1.0  0.52604  0.27259  0.90967  1.0000
  H   H2366     1.0  0.66896  0.29158  0.87746  1.0000
  H   H2367     1.0  0.67754  0.44425  0.87802  1.0000
  C   C1331     1.0  0.52029  0.46121  0.89999  1.0000
  H   H2368     1.0  0.75079  0.44340  0.63873  1.0000
  Fe  Fe150     1.0  0.64008  0.34778  0.93592  1.0000
  C   C1332     1.0  0.55898  0.41027  0.90488  1.0000
  H   H2369     1.0  0.58741  0.42889  0.93878  1.0000
  H   H2370     1.0  0.77897  0.48009  0.49005  1.0000
  C   C1333     1.0  0.67913  0.40852  0.96345  1.0000
  H   H2371     1.0  0.77060  0.45594  0.60703  1.0000
  H   H2372     1.0  0.69430  0.41049  0.82548  1.0000
  C   C1334     1.0  0.63872  0.33107  0.87974  1.0000
  C   C1335     1.0  0.67857  0.45622  0.75601  1.0000
  C   C1336     1.0  0.67385  0.42855  0.90451  1.0000
  C   C1337     1.0  0.78034  0.44307  0.60896  1.0000
  H   H2373     1.0  0.61388  0.39535  0.78715  1.0000
  C   C1338     1.0  0.66327  0.30423  0.88260  1.0000
  H   H2374     1.0  0.67706  0.41438  0.91148  1.0000
  H   H2375     1.0  0.77762  0.43882  0.53085  1.0000
  C   C1339     1.0  0.66481  0.46757  0.63758  1.0000
  S   S299      1.0  0.52887  0.47633  0.81748  1.0000
  H   H2376     1.0  0.69983  0.46844  0.55217  1.0000
  H   H2377     1.0  0.63954  0.31807  0.84872  1.0000
  H   H2378     1.0  0.53519  0.38303  0.91669  1.0000
  H   H2379     1.0  0.57573  0.40465  0.72518  1.0000
  H   H2380     1.0  0.65235  0.44759  0.74535  1.0000
  H   H2381     1.0  0.73781  0.35142  0.92862  1.0000
  H   H2382     1.0  0.58465  0.40793  0.79755  1.0000
  S   S300      1.0  0.49843  0.45514  0.86224  1.0000
  H   H2383     1.0  0.65099  0.31082  0.90866  1.0000
  H   H2384     1.0  0.56599  0.41886  0.82554  1.0000
  C   C1340     1.0  0.69596  0.42295  0.82875  1.0000
  H   H2385     1.0  0.56065  0.36950  0.82033  1.0000
  H   H2386     1.0  0.68274  0.47445  0.58254  1.0000
  C   C1341     1.0  0.63256  0.43274  0.80414  1.0000
  C   C1342     1.0  0.66137  0.44213  0.85082  1.0000
  H   H2387     1.0  0.76800  0.41888  0.49416  1.0000
  H   H2388     1.0  0.57398  0.28747  0.96545  1.0000
  C   C1343     1.0  0.74464  0.37566  0.96625  1.0000
  H   H2389     1.0  0.60127  0.41540  0.86229  1.0000
  Fe  Fe151     1.0  0.62710  0.38400  0.91476  1.0000
  C   C1344     1.0  0.66534  0.32829  0.85629  1.0000
  H   H2390     1.0  0.63981  0.38856  0.76281  1.0000
  H   H2391     1.0  0.61372  0.47565  0.78794  1.0000
  S   S301      1.0  0.69518  0.37495  0.90631  1.0000
  H   H2392     1.0  0.56814  0.39690  0.94874  1.0000
  C   C1345     1.0  0.80597  0.43213  0.53004  1.0000
  C   C1346     1.0  0.62994  0.37954  0.76817  1.0000
  C   C1347     1.0  0.64025  0.39261  0.85339  1.0000
  H   H2393     1.0  0.60606  0.42618  0.91127  1.0000
  H   H2394     1.0  0.63574  0.42038  0.85404  1.0000
  C   C1348     1.0  0.65355  0.29916  0.90212  1.0000
  H   H2395     1.0  0.55859  0.40743  0.77268  1.0000
  H   H2396     1.0  0.74708  0.34805  0.96507  1.0000
  H   H2397     1.0  0.66578  0.41216  0.83738  1.0000
  C   C1349     1.0  0.60278  0.36476  0.83437  1.0000
  H   H2398     1.0  0.71553  0.39137  0.95062  1.0000
  H   H2399     1.0  0.73785  0.40936  0.67678  1.0000
  H   H2400     1.0  0.73384  0.37959  0.91488  1.0000
  H   H2401     1.0  0.62079  0.34018  0.86049  1.0000
  H   H2402     1.0  0.80653  0.41742  0.53422  1.0000
  H   H2403     1.0  0.77980  0.42769  0.66176  1.0000
  H   H2404     1.0  0.65821  0.33827  0.84640  1.0000
  H   H2405     1.0  0.71709  0.31967  0.93433  1.0000
  H   H2406     1.0  0.73173  0.43087  0.66352  1.0000
  H   H2407     1.0  0.78995  0.42316  0.63035  1.0000
  H   H2408     1.0  0.62404  0.28703  0.94813  1.0000
  H   H2409     1.0  0.67543  0.40456  0.88168  1.0000
  H   H2410     1.0  0.59290  0.39054  0.74880  1.0000
  H   H2411     1.0  0.72637  0.46164  0.52144  1.0000
  C   C1350     1.0  0.62686  0.34597  0.86845  1.0000
  H   H2412     1.0  0.75309  0.41259  0.69414  1.0000
  H   H2413     1.0  0.76486  0.38914  0.66545  1.0000
  C   C1351     1.0  0.50051  0.43218  0.87211  1.0000
  C   C1352     1.0  0.59922  0.42467  0.87106  1.0000
  C   C1353     1.0  0.61141  0.35633  0.88016  1.0000
  H   H2414     1.0  0.57889  0.26585  0.93039  1.0000
  H   H2415     1.0  0.77461  0.41496  0.71045  1.0000
  H   H2416     1.0  0.72602  0.44078  0.53724  1.0000
  H   H2417     1.0  0.57952  0.41388  0.76835  1.0000
  C   C1354     1.0  0.76021  0.43042  0.63744  1.0000
  H   H2418     1.0  0.68840  0.30537  0.85375  1.0000
  C   C1355     1.0  0.64468  0.40795  0.85934  1.0000
  H   H2419     1.0  0.78069  0.39953  0.62549  1.0000
  N   N74       1.0  0.65250  0.31784  0.86998  1.0000
  Fe  Fe152     1.0  0.55761  0.46296  0.81833  1.0000
  Fe  Fe153     1.0  0.56606  0.35348  0.86491  1.0000
  C   C1356     1.0  0.51626  0.40109  0.87402  1.0000
  H   H2420     1.0  0.73426  0.30290  0.94385  1.0000
  S   S302      1.0  0.65963  0.35786  0.94558  1.0000
  Fe  Fe154     1.0  0.55739  0.47467  0.85212  1.0000
  C   C1357     1.0  0.68119  0.31689  0.84526  1.0000
  C   C1358     1.0  0.60402  0.41861  0.88764  1.0000
  C   C1359     1.0  0.69105  0.42184  0.84909  1.0000
  C   C1360     1.0  0.59038  0.30896  0.92578  1.0000
  C   C1361     1.0  0.52329  0.27408  0.94659  1.0000
  C   C1362     1.0  0.76582  0.42556  0.66742  1.0000
  H   H2421     1.0  0.78428  0.39848  0.65522  1.0000
  S   S303      1.0  0.57443  0.44894  0.79637  1.0000
  H   H2422     1.0  0.65597  0.42851  0.72203  1.0000
  H   H2423     1.0  0.66046  0.40526  0.94900  1.0000
  C   C1363     1.0  0.66984  0.41904  0.87728  1.0000
  H   H2424     1.0  0.65561  0.42073  0.88433  1.0000
  H   H2425     1.0  0.78197  0.36779  0.62615  1.0000
  C   C1364     1.0  0.61941  0.31529  0.93687  1.0000
  S   S304      1.0  0.63737  0.31893  0.94428  1.0000
  C   C1365     1.0  0.54140  0.27364  0.93316  1.0000
  H   H2426     1.0  0.62933  0.32424  0.89067  1.0000
  C   C1366     1.0  0.77020  0.39915  0.65397  1.0000
  H   H2427     1.0  0.65809  0.44744  0.70366  1.0000
  H   H2428     1.0  0.67104  0.33625  0.86274  1.0000
  C   C1367     1.0  0.73954  0.41699  0.66295  1.0000
  H   H2429     1.0  0.61731  0.30923  0.87828  1.0000
  S   S305      1.0  0.57337  0.32346  0.87001  1.0000
  H   H2430     1.0  0.53892  0.40338  0.89356  1.0000
  H   H2431     1.0  0.76714  0.43672  0.69770  1.0000
  H   H2432     1.0  0.54023  0.35445  0.81208  1.0000
  H   H2433     1.0  0.75541  0.42538  0.62785  1.0000
  H   H2434     1.0  0.53915  0.45524  0.91718  1.0000
  C   C1368     1.0  0.66450  0.40951  0.85193  1.0000
  H   H2435     1.0  0.68844  0.33989  0.82530  1.0000
  H   H2436     1.0  0.77486  0.40050  0.68581  1.0000
  N   N75       1.0  0.67127  0.42343  0.85743  1.0000
  C   C1369     1.0  0.65979  0.45712  0.73513  1.0000
  C   C1370     1.0  0.58278  0.41690  0.94776  1.0000
  H   H2437     1.0  0.68825  0.41351  0.95166  1.0000
  H   H2438     1.0  0.78910  0.42372  0.69038  1.0000
  H   H2439     1.0  0.75256  0.46085  0.49201  1.0000
  C   C1371     1.0  0.77902  0.43509  0.62871  1.0000
  H   H2440     1.0  0.75750  0.43909  0.66885  1.0000
  C   C1372     1.0  0.64405  0.30857  0.86042  1.0000
  H   H2441     1.0  0.77759  0.43368  0.60188  1.0000
  N   N76       1.0  0.72519  0.36283  0.95192  1.0000
  H   H2442     1.0  0.67609  0.31163  0.83599  1.0000
  C   C1373     1.0  0.60130  0.29483  0.93515  1.0000
  H   H2443     1.0  0.64122  0.39569  0.83882  1.0000
  S   S306      1.0  0.69915  0.46884  0.67343  1.0000
  C   C1374     1.0  0.57332  0.40192  0.77036  1.0000
  H   H2444     1.0  0.58553  0.33727  0.91479  1.0000
  C   C1375     1.0  0.77194  0.39223  0.63671  1.0000
  H   H2445     1.0  0.59030  0.45788  0.90271  1.0000
  H   H2446     1.0  0.67602  0.42803  0.70501  1.0000
  C   C1376     1.0  0.64418  0.44983  0.86348  1.0000
  H   H2447     1.0  0.59557  0.27604  0.90017  1.0000
  N   N77       1.0  0.77816  0.44291  0.49223  1.0000
  C   C1377     1.0  0.63360  0.46705  0.85402  1.0000
  C   C1378     1.0  0.67415  0.44520  0.72335  1.0000
  Fe  Fe155     1.0  0.52945  0.35475  0.88816  1.0000
  H   H2448     1.0  0.68182  0.43400  0.73177  1.0000
  H   H2449     1.0  0.74200  0.38939  0.95819  1.0000
  C   C1379     1.0  0.53973  0.39917  0.93363  1.0000
  H   H2450     1.0  0.80521  0.43186  0.49692  1.0000
  H   H2451     1.0  0.62281  0.44503  0.82704  1.0000
  C   C1380     1.0  0.56611  0.36188  0.80944  1.0000
  H   H2452     1.0  0.58655  0.25939  0.95983  1.0000
  C   C1381     1.0  0.79109  0.47230  0.48278  1.0000
  H   H2453     1.0  0.52291  0.42646  0.90966  1.0000
  S   S307      1.0  0.63233  0.39039  0.97533  1.0000
  H   H2454     1.0  0.65934  0.45501  0.64187  1.0000
  H   H2455     1.0  0.51612  0.40066  0.92183  1.0000
  S   S308      1.0  0.76538  0.46929  0.55209  1.0000
  H   H2456     1.0  0.55136  0.27416  0.94080  1.0000
  H   H2457     1.0  0.51274  0.27131  0.94108  1.0000
  H   H2458     1.0  0.62158  0.47229  0.86349  1.0000
  C   C1382     1.0  0.52720  0.39063  0.92706  1.0000
  H   H2459     1.0  0.56979  0.36591  0.78104  1.0000
  H   H2460     1.0  0.57179  0.41252  0.86638  1.0000
  C   C1383     1.0  0.68836  0.48680  0.58012  1.0000
  H   H2461     1.0  0.52732  0.24543  0.87647  1.0000
  C   C1384     1.0  0.68687  0.46536  0.76647  1.0000
  C   C1385     1.0  0.72079  0.48257  0.48689  1.0000
  H   H2462     1.0  0.63173  0.46143  0.76352  1.0000
  C   C1386     1.0  0.70410  0.48157  0.54939  1.0000
  H   H2463     1.0  0.55594  0.40001  0.86543  1.0000
  H   H2464     1.0  0.57206  0.39011  0.87957  1.0000
  H   H2465     1.0  0.67701  0.46169  0.61176  1.0000
  Fe  Fe156     1.0  0.71342  0.47188  0.64506  1.0000
  H   H2466     1.0  0.70521  0.48731  0.53501  1.0000
  C   C1387     1.0  0.51665  0.30807  0.85609  1.0000
  S   S309      1.0  0.73832  0.47689  0.65063  1.0000
  C   C1388     1.0  0.66335  0.40389  0.96194  1.0000
  N   N78       1.0  0.54737  0.25779  0.92392  1.0000
  H   H2467     1.0  0.50987  0.38375  0.95278  1.0000
  H   H2468     1.0  0.67110  0.44623  0.76554  1.0000
  C   C1389     1.0  0.51521  0.41940  0.86615  1.0000
  H   H2469     1.0  0.70318  0.45832  0.78666  1.0000
  H   H2470     1.0  0.51843  0.27972  0.85880  1.0000
  C   C1390     1.0  0.56198  0.28577  0.97617  1.0000
  H   H2471     1.0  0.73296  0.48283  0.61018  1.0000
  H   H2472     1.0  0.51469  0.30327  0.94061  1.0000
  H   H2473     1.0  0.69671  0.47309  0.75724  1.0000
  C   C1391     1.0  0.51859  0.37703  0.94202  1.0000
  C   C1392     1.0  0.74647  0.47762  0.58424  1.0000
  H   H2474     1.0  0.55303  0.28094  0.97014  1.0000
  Fe  Fe157     1.0  0.72286  0.47686  0.67836  1.0000
  C   C1393     1.0  0.66794  0.47311  0.61738  1.0000
  H   H2475     1.0  0.51748  0.45580  0.88945  1.0000
  H   H2476     1.0  0.69204  0.47326  0.72578  1.0000
  H   H2477     1.0  0.59482  0.31901  0.97373  1.0000
  H   H2478     1.0  0.50799  0.46297  0.91040  1.0000
  C   C1394     1.0  0.63810  0.46995  0.76848  1.0000
  H   H2479     1.0  0.52910  0.36623  0.94745  1.0000
  C   C1395     1.0  0.76341  0.37246  0.97040  1.0000
  H   H2480     1.0  0.67639  0.47430  0.77424  1.0000
  H   H2481     1.0  0.67761  0.46512  0.64235  1.0000
  H   H2482     1.0  0.65501  0.47823  0.64382  1.0000
  H   H2483     1.0  0.55755  0.24141  0.94695  1.0000
  S   S310      1.0  0.57233  0.47492  0.87313  1.0000
  C   C1396     1.0  0.73603  0.47349  0.60130  1.0000
  H   H2484     1.0  0.65477  0.47530  0.61350  1.0000
  H   H2485     1.0  0.71755  0.47942  0.55282  1.0000
  S   S311      1.0  0.56543  0.48677  0.82342  1.0000
  H   H2486     1.0  0.59474  0.40717  0.95172  1.0000
  H   H2487     1.0  0.70201  0.48194  0.58345  1.0000
  H   H2488     1.0  0.54580  0.31479  0.95351  1.0000
  H   H2489     1.0  0.54574  0.26125  0.88559  1.0000
  H   H2490     1.0  0.54418  0.33191  0.96578  1.0000
  H   H2491     1.0  0.65518  0.48922  0.75941  1.0000
  H   H2492     1.0  0.60117  0.25283  0.97567  1.0000
  H   H2493     1.0  0.60181  0.25307  0.89680  1.0000
  H   H2494     1.0  0.69060  0.48541  0.61335  1.0000
  C   C1397     1.0  0.54901  0.24080  0.93780  1.0000
  C   C1398     1.0  0.65088  0.48002  0.75331  1.0000
  C   C1399     1.0  0.67781  0.48041  0.72900  1.0000
  C   C1400     1.0  0.52298  0.24865  0.88993  1.0000
  H   H2495     1.0  0.67267  0.48325  0.71644  1.0000
  H   H2496     1.0  0.76411  0.38311  0.97713  1.0000
  C   C1401     1.0  0.65142  0.39750  0.97714  1.0000
  H   H2497     1.0  0.78210  0.39332  0.48003  1.0000
  H   H2498     1.0  0.64262  0.48881  0.74367  1.0000
  S   S312      1.0  0.88279  0.49526  0.39118  1.0000
  C   C1402     1.0  0.83475  0.58183  0.40253  1.0000
  H   H2499     1.0  0.99036  0.71115  0.36753  1.0000
  Fe  Fe158     1.0  0.87228  0.52181  0.37517  1.0000
  H   H2500     1.0  0.74282  0.50769  0.31500  1.0000
  S   S313      1.0  0.87628  0.54742  0.38277  1.0000
  C   C1403     1.0  0.81875  0.55274  0.45328  1.0000
  H   H2501     1.0  0.92527  0.53583  0.46657  1.0000
  C   C1404     1.0  0.98702  0.65709  0.41669  1.0000
  H   H2502     1.0  0.74779  0.51128  0.34450  1.0000
  S   S314      1.0  0.88151  0.51229  0.34889  1.0000
  S   S315      1.0  0.84474  0.51551  0.37739  1.0000
  H   H2503     1.0  0.65653  0.54570  0.40010  1.0000
  H   H2504     1.0  0.97406  0.70252  0.41613  1.0000
  C   C1405     1.0  0.88362  0.67440  0.42215  1.0000
  Fe  Fe159     1.0  0.92932  0.59230  0.43548  1.0000
  S   S316      1.0  0.90889  0.61649  0.42785  1.0000
  S   S317      1.0  0.92472  0.56600  0.42978  1.0000
  Fe  Fe160     1.0  0.94773  0.61529  0.45252  1.0000
  S   S318      1.0  0.92724  0.64008  0.44556  1.0000
  Fe  Fe161     1.0  0.90716  0.62189  0.45461  1.0000
  H   H2505     1.0  0.96472  0.64381  0.41841  1.0000
  Fe  Fe162     1.0  0.93145  0.63162  0.41961  1.0000
  S   S319      1.0  0.93519  0.64934  0.39269  1.0000
  S   S320      1.0  0.92692  0.59718  0.46322  1.0000
  S   S321      1.0  0.95269  0.60727  0.42568  1.0000
  H   H2506     1.0  0.94961  0.69832  0.43921  1.0000
  H   H2507     1.0  0.87223  0.66689  0.46784  1.0000
  H   H2508     1.0  0.89298  0.68869  0.44610  1.0000
  H   H2509     1.0  0.93391  0.66848  0.46712  1.0000
  H   H2510     1.0  0.88516  0.70931  0.42009  1.0000
  H   H2511     1.0  0.71420  0.50802  0.41371  1.0000
  C   C1406     1.0  0.92444  0.71025  0.38678  1.0000
  C   C1407     1.0  0.92820  0.70228  0.37199  1.0000
  C   C1408     1.0  0.93157  0.68358  0.37402  1.0000
  C   C1409     1.0  0.93084  0.67271  0.39088  1.0000
  C   C1410     1.0  0.92688  0.68062  0.40577  1.0000
  C   C1411     1.0  0.92383  0.69941  0.40372  1.0000
  H   H2512     1.0  0.76153  0.49666  0.35871  1.0000
  H   H2513     1.0  0.93462  0.67752  0.36247  1.0000
  H   H2514     1.0  0.92601  0.67229  0.41879  1.0000
  H   H2515     1.0  0.92072  0.70544  0.41521  1.0000
  C   C1412     1.0  0.88987  0.55217  0.39604  1.0000
  C   C1413     1.0  0.90055  0.53869  0.40640  1.0000
  C   C1414     1.0  0.91093  0.54318  0.41658  1.0000
  C   C1415     1.0  0.91101  0.56121  0.41667  1.0000
  C   C1416     1.0  0.90021  0.57468  0.40643  1.0000
  C   C1417     1.0  0.88973  0.57019  0.39635  1.0000
  H   H2516     1.0  0.90098  0.52476  0.40643  1.0000
  H   H2517     1.0  0.91920  0.53254  0.42429  1.0000
  H   H2518     1.0  0.90003  0.58862  0.40613  1.0000
  H   H2519     1.0  0.88167  0.58086  0.38845  1.0000
  C   C1418     1.0  0.86567  0.68210  0.43366  1.0000
  H   H2520     1.0  0.89439  0.65383  0.40628  1.0000
  C   C1419     1.0  0.95149  0.68497  0.44806  1.0000
  H   H2521     1.0  0.79090  0.51898  0.39989  1.0000
  H   H2522     1.0  0.83890  0.71423  0.44245  1.0000
  H   H2523     1.0  0.99122  0.70405  0.46658  1.0000
  H   H2524     1.0  0.66005  0.50379  0.45297  1.0000
  H   H2525     1.0  0.70741  0.53396  0.46648  1.0000
  C   C1420     1.0  0.97436  0.69040  0.41096  1.0000
  C   C1421     1.0  0.78375  0.52090  0.41342  1.0000
  H   H2526     1.0  0.66870  0.55889  0.40690  1.0000
  H   H2527     1.0  0.83366  0.50836  0.29567  1.0000
  H   H2528     1.0  0.97569  0.63265  0.39069  1.0000
  H   H2529     1.0  0.74173  0.50280  0.28581  1.0000
  H   H2530     1.0  0.78987  0.50813  0.34788  1.0000
  H   H2531     1.0  0.96052  0.69202  0.40856  1.0000
  H   H2532     1.0  0.84233  0.54349  0.40514  1.0000
  H   H2533     1.0  0.83159  0.68433  0.45085  1.0000
  C   C1422     1.0  0.66071  0.54806  0.41165  1.0000
  H   H2534     1.0  0.74433  0.50655  0.41907  1.0000
  H   H2535     1.0  0.95173  0.66864  0.42990  1.0000
  C   C1423     1.0  0.91826  0.54599  0.47487  1.0000
  C   C1424     1.0  0.84841  0.51623  0.44239  1.0000
  C   C1425     1.0  0.97498  0.73019  0.45971  1.0000
  H   H2536     1.0  0.87124  0.66408  0.40577  1.0000
  C   C1426     1.0  0.74198  0.49407  0.31390  1.0000
  H   H2537     1.0  0.98322  0.72112  0.38696  1.0000
  H   H2538     1.0  0.70111  0.48977  0.44755  1.0000
  H   H2539     1.0  0.84767  0.71159  0.46183  1.0000
  C   C1427     1.0  0.83499  0.69003  0.46089  1.0000
  H   H2540     1.0  0.74171  0.51883  0.39727  1.0000
  H   H2541     1.0  0.86184  0.67054  0.44400  1.0000
  H   H2542     1.0  0.92862  0.71060  0.35889  1.0000
  H   H2543     1.0  0.81849  0.56653  0.44529  1.0000
  H   H2544     1.0  0.83954  0.58375  0.41391  1.0000
  C   C1428     1.0  0.68812  0.51846  0.46452  1.0000
  C   C1429     1.0  0.97451  0.65069  0.40799  1.0000
  H   H2545     1.0  0.86354  0.60292  0.46241  1.0000
  C   C1430     1.0  0.98236  0.63081  0.47461  1.0000
  H   H2546     1.0  0.81700  0.53102  0.40358  1.0000
  C   C1431     1.0  0.71684  0.52001  0.41691  1.0000
  C   C1432     1.0  0.81721  0.69836  0.47151  1.0000
  H   H2547     1.0  0.71041  0.53226  0.40856  1.0000
  H   H2548     1.0  0.75905  0.49621  0.44807  1.0000
  C   C1433     1.0  0.98648  0.71739  0.46952  1.0000
  H   H2549     1.0  0.85527  0.68610  0.42524  1.0000
  H   H2550     1.0  0.88829  0.68471  0.41077  1.0000
  H   H2551     1.0  0.87714  0.64805  0.42519  1.0000
  H   H2552     1.0  0.68237  0.54623  0.43345  1.0000
  H   H2553     1.0  0.74088  0.53086  0.41431  1.0000
  H   H2554     1.0  0.81822  0.56660  0.39670  1.0000
  S   S322      1.0  0.96805  0.72392  0.44317  1.0000
  H   H2555     1.0  0.86268  0.71509  0.41643  1.0000
  H   H2556     1.0  0.84168  0.67882  0.47003  1.0000
  C   C1434     1.0  0.73717  0.51906  0.41163  1.0000
  H   H2557     1.0  0.82594  0.50738  0.43922  1.0000
  C   C1435     1.0  0.87088  0.71284  0.42677  1.0000
  C   C1436     1.0  0.89805  0.54961  0.47528  1.0000
  H   H2558     1.0  0.84189  0.51790  0.45611  1.0000
  H   H2559     1.0  0.81081  0.57255  0.41814  1.0000
  H   H2560     1.0  0.70138  0.51072  0.36984  1.0000
  C   C1437     1.0  0.98514  0.63730  0.39627  1.0000
  H   H2561     1.0  0.78447  0.49016  0.32861  1.0000
  C   C1438     1.0  0.84693  0.70428  0.45166  1.0000
  H   H2562     1.0  0.72343  0.50005  0.34478  1.0000
  H   H2563     1.0  0.78953  0.52181  0.43831  1.0000
  H   H2564     1.0  0.77041  0.50910  0.31816  1.0000
  H   H2565     1.0  0.84657  0.57769  0.39232  1.0000
  H   H2566     1.0  0.84908  0.59674  0.44073  1.0000
  C   C1439     1.0  0.79720  0.51988  0.42495  1.0000
  H   H2567     1.0  0.86795  0.49533  0.43040  1.0000
  C   C1440     1.0  0.70411  0.49659  0.37703  1.0000
  C   C1441     1.0  0.83328  0.54913  0.41651  1.0000
  H   H2568     1.0  0.86965  0.60477  0.43014  1.0000
  N   N79       1.0  0.82183  0.53584  0.42765  1.0000
  C   C1442     1.0  0.78426  0.51481  0.33578  1.0000
  H   H2569     1.0  0.89229  0.73033  0.47344  1.0000
  N   N80       1.0  0.97874  0.67360  0.42462  1.0000
  C   C1443     1.0  0.82284  0.56769  0.40853  1.0000
  C   C1444     1.0  0.96149  0.67015  0.43726  1.0000
  H   H2570     1.0  0.88419  0.58817  0.45486  1.0000
  H   H2571     1.0  0.79563  0.51796  0.32480  1.0000
  H   H2572     1.0  0.79738  0.54973  0.44235  1.0000
  C   C1445     1.0  0.86394  0.59342  0.43929  1.0000
  C   C1446     1.0  0.80925  0.53413  0.41659  1.0000
  H   H2573     1.0  0.82699  0.59485  0.39666  1.0000
  C   C1447     1.0  0.87924  0.69295  0.45362  1.0000
  H   H2574     1.0  0.96736  0.71279  0.37929  1.0000
  C   C1448     1.0  0.80778  0.55441  0.47177  1.0000
  H   H2575     1.0  0.95897  0.68532  0.45819  1.0000
  H   H2576     1.0  0.80540  0.50614  0.42605  1.0000
  C   C1449     1.0  0.67192  0.53075  0.42024  1.0000
  H   H2577     1.0  0.72753  0.49310  0.31711  1.0000
  H   H2578     1.0  0.67385  0.51791  0.47098  1.0000
  H   H2579     1.0  0.77429  0.53404  0.41257  1.0000
  H   H2580     1.0  0.96395  0.65717  0.44670  1.0000
  N   N81       1.0  0.86566  0.69774  0.44175  1.0000
  H   H2581     1.0  0.66467  0.53569  0.44667  1.0000
  H   H2582     1.0  0.66359  0.52024  0.42398  1.0000
  S   S323      1.0  0.75540  0.51703  0.47426  1.0000
  H   H2583     1.0  0.92629  0.69241  0.46564  1.0000
  C   C1450     1.0  0.77455  0.50241  0.33096  1.0000
  H   H2584     1.0  0.79987  0.54711  0.41349  1.0000
  H   H2585     1.0  0.69621  0.50617  0.47129  1.0000
  H   H2586     1.0  0.89420  0.66880  0.43022  1.0000
  C   C1451     1.0  0.88137  0.65916  0.41443  1.0000
  C   C1452     1.0  0.81073  0.54149  0.44456  1.0000
  C   C1453     1.0  0.93288  0.68169  0.45790  1.0000
  H   H2587     1.0  0.77591  0.51006  0.41931  1.0000
  H   H2588     1.0  0.79343  0.56035  0.47127  1.0000
  H   H2589     1.0  0.84090  0.51323  0.41885  1.0000
  H   H2590     1.0  0.77497  0.52759  0.33805  1.0000
  C   C1454     1.0  0.83392  0.51771  0.43153  1.0000
  H   H2591     1.0  0.84256  0.55143  0.42397  1.0000
  C   C1455     1.0  0.86930  0.59037  0.45726  1.0000
  H   H2592     1.0  0.83287  0.54689  0.45449  1.0000
  H   H2593     1.0  0.99313  0.66385  0.44621  1.0000
  H   H2594     1.0  0.64841  0.55250  0.42122  1.0000
  N   N82       1.0  0.69109  0.51834  0.44497  1.0000
  C   C1456     1.0  0.87777  0.73285  0.47700  1.0000
  H   H2595     1.0  0.90261  0.66368  0.47165  1.0000
  H   H2596     1.0  0.88003  0.70495  0.45826  1.0000
  H   H2597     1.0  0.68365  0.52659  0.41008  1.0000
  H   H2598     1.0  0.69037  0.49917  0.42941  1.0000
  C   C1457     1.0  0.86916  0.73123  0.43196  1.0000
  H   H2599     1.0  0.80746  0.52945  0.45465  1.0000
  H   H2600     1.0  0.86930  0.58127  0.43332  1.0000
  C   C1458     1.0  0.67747  0.53333  0.43686  1.0000
  S   S324      1.0  0.91958  0.73238  0.43386  1.0000
  C   C1459     1.0  0.71004  0.52113  0.43673  1.0000
  H   H2601     1.0  0.85718  0.52622  0.43627  1.0000
  H   H2602     1.0  0.71957  0.51124  0.44438  1.0000
  H   H2603     1.0  0.71173  0.53457  0.43763  1.0000
  H   H2604     1.0  0.80953  0.70916  0.46271  1.0000
  H   H2605     1.0  0.86644  0.56296  0.46285  1.0000
  C   C1460     1.0  0.86062  0.49766  0.44376  1.0000
  C   C1461     1.0  0.98158  0.71038  0.38087  1.0000
  Fe  Fe163     1.0  0.85519  0.50245  0.35315  1.0000
  H   H2606     1.0  0.92444  0.68208  0.44834  1.0000
  H   H2607     1.0  0.81973  0.49350  0.27980  1.0000
  S   S325      1.0  0.92012  0.73377  0.38352  1.0000
  H   H2608     1.0  0.98526  0.68746  0.44217  1.0000
  C   C1462     1.0  0.87550  0.67872  0.47066  1.0000
  H   H2609     1.0  0.80071  0.49713  0.47070  1.0000
  C   C1463     1.0  0.74844  0.49240  0.45896  1.0000
  H   H2610     1.0  0.76374  0.49261  0.29074  1.0000
  C   C1464     1.0  0.75786  0.49848  0.34556  1.0000
  H   H2611     1.0  0.99257  0.73644  0.41191  1.0000
  H   H2612     1.0  0.96679  0.66213  0.39986  1.0000
  H   H2613     1.0  0.87962  0.73050  0.43953  1.0000
  S   S326      1.0  0.84094  0.50140  0.33061  1.0000
  H   H2614     1.0  0.87069  0.49675  0.45188  1.0000
  C   C1465     1.0  0.74378  0.50064  0.47366  1.0000
  C   C1466     1.0  0.68949  0.49997  0.44335  1.0000
  H   H2615     1.0  0.68619  0.54759  0.46185  1.0000
  H   H2616     1.0  0.99149  0.64554  0.42711  1.0000
  S   S327      1.0  0.87933  0.62978  0.46984  1.0000
  S   S328      1.0  0.97045  0.61917  0.46526  1.0000
  C   C1467     1.0  0.69261  0.53473  0.46938  1.0000
  C   C1468     1.0  0.67225  0.49322  0.45439  1.0000
  C   C1469     1.0  0.86209  0.57416  0.47018  1.0000
  H   H2617     1.0  0.88178  0.49426  0.31198  1.0000
  H   H2618     1.0  0.84712  0.57749  0.47215  1.0000
  H   H2619     1.0  0.85584  0.73565  0.44008  1.0000
  H   H2620     1.0  0.70034  0.49639  0.39149  1.0000
  C   C1470     1.0  0.99121  0.67590  0.43545  1.0000
  H   H2621     1.0  0.78912  0.49020  0.45725  1.0000
  H   H2622     1.0  0.73205  0.49630  0.37576  1.0000
  H   H2623     1.0  0.89604  0.55368  0.46138  1.0000
  H   H2624     1.0  0.92374  0.55842  0.46896  1.0000
  H   H2625     1.0  0.98518  0.68180  0.38534  1.0000
  H   H2626     1.0  0.99268  0.62541  0.40414  1.0000
  C   C1471     1.0  0.98668  0.69188  0.39232  1.0000
  C   C1472     1.0  0.82855  0.49632  0.30260  1.0000
  C   C1473     1.0  0.74921  0.49192  0.29470  1.0000
  H   H2627     1.0  0.90584  0.48999  0.31040  1.0000
  H   H2628     1.0  0.64934  0.49072  0.28690  1.0000
  C   C1474     1.0  0.83011  0.48953  0.32038  1.0000
  H   H2629     1.0  0.81310  0.56324  0.47747  1.0000
  H   H2630     1.0  0.55817  0.56620  0.74912  1.0000
  N   N83       1.0  0.95279  0.63112  0.53174  1.0000
  H   H2631     1.0  0.61526  0.52685  0.60513  1.0000
  H   H2632     1.0  0.93406  0.62321  0.52008  1.0000
  C   C1475     1.0  0.51604  0.66094  0.74603  1.0000
  C   C1476     1.0  0.78758  0.60043  0.53799  1.0000
  H   H2633     1.0  0.80754  0.64691  0.52289  1.0000
  Fe  Fe164     1.0  0.53623  0.49918  0.82485  1.0000
  H   H2634     1.0  0.69245  0.52221  0.49719  1.0000
  C   C1477     1.0  0.53409  0.57116  0.76822  1.0000
  Fe  Fe165     1.0  0.85270  0.69267  0.53057  1.0000
  S   S329      1.0  0.88132  0.67826  0.52732  1.0000
  S   S330      1.0  0.83868  0.70689  0.50810  1.0000
  Fe  Fe166     1.0  0.84734  0.68512  0.57080  1.0000
  H   H2635     1.0  0.75129  0.49014  0.58004  1.0000
  S   S331      1.0  0.82867  0.69123  0.59576  1.0000
  H   H2636     1.0  0.50782  0.62546  0.67580  1.0000
  Fe  Fe167     1.0  0.87086  0.65781  0.55027  1.0000
  H   H2637     1.0  0.95262  0.71807  0.49580  1.0000
  S   S332      1.0  0.85523  0.70813  0.54975  1.0000
  S   S333      1.0  0.84193  0.67108  0.55176  1.0000
  Fe  Fe168     1.0  0.68869  0.49838  0.66712  1.0000
  H   H2638     1.0  0.88798  0.66379  0.49288  1.0000
  H   H2639     1.0  0.77611  0.72714  0.55127  1.0000
  H   H2640     1.0  0.51460  0.64167  0.77116  1.0000
  H   H2641     1.0  0.77553  0.73048  0.52186  1.0000
  Fe  Fe169     1.0  0.62641  0.59234  0.60206  1.0000
  S   S334      1.0  0.61587  0.60175  0.57675  1.0000
  S   S335      1.0  0.64575  0.60174  0.61287  1.0000
  Fe  Fe170     1.0  0.60412  0.56312  0.61660  1.0000
  S   S336      1.0  0.59099  0.57004  0.59293  1.0000
  S   S337      1.0  0.59757  0.54203  0.64083  1.0000
  Fe  Fe171     1.0  0.61869  0.57235  0.57713  1.0000
  H   H2642     1.0  0.78407  0.70639  0.56459  1.0000
  Fe  Fe172     1.0  0.58907  0.59876  0.59452  1.0000
  S   S338      1.0  0.56384  0.61990  0.59375  1.0000
  S   S339      1.0  0.63190  0.56327  0.60083  1.0000
  S   S340      1.0  0.59952  0.59158  0.61968  1.0000
  Fe  Fe173     1.0  0.56133  0.69056  0.63619  1.0000
  S   S341      1.0  0.54727  0.66749  0.64817  1.0000
  S   S342      1.0  0.57893  0.68962  0.60945  1.0000
  Fe  Fe174     1.0  0.54626  0.70783  0.66800  1.0000
  S   S343      1.0  0.53065  0.68632  0.68242  1.0000
  C   C1478     1.0  0.50431  0.63405  0.66331  1.0000
  Fe  Fe175     1.0  0.55563  0.66743  0.67314  1.0000
  S   S344      1.0  0.56639  0.64137  0.68999  1.0000
  Fe  Fe176     1.0  0.52372  0.68841  0.65627  1.0000
  C   C1479     1.0  0.52483  0.70542  0.75287  1.0000
  S   S345      1.0  0.57196  0.68872  0.66056  1.0000
  S   S346      1.0  0.53702  0.71179  0.64229  1.0000
  H   H2643     1.0  0.95683  0.59403  0.49962  1.0000
  S   S347      1.0  0.79888  0.54765  0.51827  1.0000
  H   H2644     1.0  0.87875  0.58296  0.51499  1.0000
  H   H2645     1.0  0.88203  0.72526  0.65183  1.0000
  C   C1480     1.0  0.77680  0.71110  0.50606  1.0000
  H   H2646     1.0  0.76182  0.69108  0.53710  1.0000
  H   H2647     1.0  0.69012  0.54626  0.49239  1.0000
  H   H2648     1.0  0.50677  0.70288  0.58498  1.0000
  H   H2649     1.0  0.69242  0.63044  0.51194  1.0000
  C   C1481     1.0  0.76493  0.69878  0.54562  1.0000
  C   C1482     1.0  0.56810  0.63998  0.59654  1.0000
  C   C1483     1.0  0.55382  0.65407  0.60037  1.0000
  C   C1484     1.0  0.55718  0.66960  0.60384  1.0000
  C   C1485     1.0  0.57485  0.67130  0.60292  1.0000
  C   C1486     1.0  0.58915  0.65755  0.59831  1.0000
  C   C1487     1.0  0.58575  0.64178  0.59550  1.0000
  H   H2650     1.0  0.54016  0.65279  0.60114  1.0000
  H   H2651     1.0  0.54611  0.68020  0.60745  1.0000
  H   H2652     1.0  0.60281  0.65866  0.59765  1.0000
  H   H2653     1.0  0.59683  0.63096  0.59272  1.0000
  C   C1488     1.0  0.68196  0.63840  0.57564  1.0000
  C   C1489     1.0  0.68745  0.62659  0.59048  1.0000
  C   C1490     1.0  0.67629  0.61522  0.60163  1.0000
  C   C1491     1.0  0.65965  0.61541  0.59790  1.0000
  C   C1492     1.0  0.65409  0.62708  0.58298  1.0000
  C   C1493     1.0  0.66523  0.63870  0.57191  1.0000
  C   C1494     1.0  0.80700  0.68781  0.59680  1.0000
  H   H2654     1.0  0.68064  0.60624  0.61316  1.0000
  H   H2655     1.0  0.64110  0.62742  0.58021  1.0000
  H   H2656     1.0  0.66086  0.64794  0.56056  1.0000
  H   H2657     1.0  0.90189  0.65552  0.59570  1.0000
  C   C1495     1.0  0.89279  0.61678  0.51810  1.0000
  H   H2658     1.0  0.86015  0.51524  0.50892  1.0000
  H   H2659     1.0  0.70842  0.52845  0.60572  1.0000
  C   C1496     1.0  0.74852  0.71419  0.54882  1.0000
  H   H2660     1.0  0.79404  0.70920  0.61095  1.0000
  S   S348      1.0  0.50329  0.59914  0.70802  1.0000
  S   S349      1.0  0.78547  0.62011  0.54605  1.0000
  C   C1497     1.0  0.57884  0.55081  0.70195  1.0000
  C   C1498     1.0  0.87892  0.62768  0.52769  1.0000
  C   C1499     1.0  0.86494  0.63868  0.51967  1.0000
  H   H2661     1.0  0.51655  0.63227  0.75200  1.0000
  H   H2662     1.0  0.85416  0.64706  0.52705  1.0000
  H   H2663     1.0  0.69083  0.56320  0.62150  1.0000
  H   H2664     1.0  0.50632  0.72585  0.78966  1.0000
  C   C1500     1.0  0.77532  0.58879  0.54468  1.0000
  H   H2665     1.0  0.95283  0.57537  0.51751  1.0000
  C   C1501     1.0  0.85200  0.59395  0.52738  1.0000
  H   H2666     1.0  0.80389  0.72311  0.57347  1.0000
  H   H2667     1.0  0.98026  0.66933  0.48964  1.0000
  H   H2668     1.0  0.85398  0.64732  0.49588  1.0000
  H   H2669     1.0  0.54026  0.52357  0.75280  1.0000
  H   H2670     1.0  0.95914  0.65572  0.51436  1.0000
  C   C1502     1.0  0.51742  0.62793  0.70808  1.0000
  H   H2671     1.0  0.51059  0.64596  0.66120  1.0000
  C   C1503     1.0  0.51031  0.53602  0.80309  1.0000
  H   H2672     1.0  0.66156  0.53916  0.53245  1.0000
  H   H2673     1.0  0.90396  0.60930  0.49278  1.0000
  C   C1504     1.0  0.53148  0.63747  0.70364  1.0000
  C   C1505     1.0  0.54919  0.62894  0.69797  1.0000
  C   C1506     1.0  0.55287  0.61072  0.69715  1.0000
  H   H2674     1.0  0.87890  0.73693  0.59230  1.0000
  S   S350      1.0  0.54517  0.72864  0.68347  1.0000
  H   H2675     1.0  0.52857  0.65150  0.70432  1.0000
  H   H2676     1.0  0.56650  0.60418  0.69252  1.0000
  C   C1507     1.0  0.52098  0.61008  0.70604  1.0000
  H   H2677     1.0  0.76404  0.59185  0.55513  1.0000
  H   H2678     1.0  0.92045  0.62980  0.58260  1.0000
  H   H2679     1.0  0.93295  0.71316  0.51173  1.0000
  C   C1508     1.0  0.94774  0.65100  0.52430  1.0000
  H   H2680     1.0  0.59148  0.57804  0.66267  1.0000
  H   H2681     1.0  0.81002  0.69153  0.52803  1.0000
  C   C1509     1.0  0.98083  0.63898  0.53842  1.0000
  C   C1510     1.0  0.51308  0.54219  0.73692  1.0000
  H   H2682     1.0  0.81859  0.65325  0.53721  1.0000
  H   H2683     1.0  0.72933  0.70217  0.54178  1.0000
  H   H2684     1.0  0.53461  0.59978  0.76201  1.0000
  C   C1511     1.0  0.53886  0.58762  0.77182  1.0000
  C   C1512     1.0  0.80546  0.58011  0.51867  1.0000
  H   H2685     1.0  0.69098  0.63480  0.53310  1.0000
  C   C1513     1.0  0.78611  0.71437  0.55085  1.0000
  H   H2686     1.0  0.67131  0.53644  0.49291  1.0000
  C   C1514     1.0  0.78340  0.71686  0.52032  1.0000
  C   C1515     1.0  0.51030  0.71100  0.76880  1.0000
  H   H2687     1.0  0.78547  0.66404  0.54399  1.0000
  H   H2688     1.0  0.59741  0.58609  0.67956  1.0000
  C   C1516     1.0  0.86483  0.63879  0.50203  1.0000
  H   H2689     1.0  0.89467  0.69043  0.58624  1.0000
  C   C1517     1.0  0.86893  0.71989  0.48920  1.0000
  H   H2690     1.0  0.94348  0.65896  0.57637  1.0000
  H   H2691     1.0  0.75135  0.55367  0.59918  1.0000
  H   H2692     1.0  0.50809  0.67657  0.76618  1.0000
  C   C1518     1.0  0.92785  0.67765  0.50865  1.0000
  C   C1519     1.0  0.99132  0.72151  0.48366  1.0000
  C   C1520     1.0  0.73079  0.70754  0.55299  1.0000
  H   H2693     1.0  0.98033  0.62628  0.51726  1.0000
  C   C1521     1.0  0.94861  0.62016  0.52049  1.0000
  H   H2694     1.0  0.94698  0.63477  0.55885  1.0000
  H   H2695     1.0  0.55241  0.53602  0.72384  1.0000
  C   C1522     1.0  0.56302  0.52852  0.76007  1.0000
  C   C1523     1.0  0.93770  0.72090  0.49841  1.0000
  C   C1524     1.0  0.94917  0.59016  0.51327  1.0000
  H   H2696     1.0  0.64166  0.50603  0.61460  1.0000
  C   C1525     1.0  0.93171  0.65726  0.51440  1.0000
  C   C1526     1.0  0.53871  0.60144  0.70075  1.0000
  H   H2697     1.0  0.50035  0.71770  0.73525  1.0000
  H   H2698     1.0  0.68588  0.66133  0.62750  1.0000
  Fe  Fe177     1.0  0.75552  0.51946  0.50194  1.0000
  H   H2699     1.0  0.84504  0.51503  0.49502  1.0000
  C   C1527     1.0  0.92287  0.62988  0.55457  1.0000
  C   C1528     1.0  0.91549  0.62333  0.57419  1.0000
  H   H2700     1.0  0.54226  0.55820  0.71529  1.0000
  H   H2701     1.0  0.82846  0.56011  0.58943  1.0000
  H   H2702     1.0  0.94873  0.61248  0.55680  1.0000
  N   N84       1.0  0.53969  0.55208  0.74397  1.0000
  C   C1529     1.0  0.53430  0.69288  0.72616  1.0000
  C   C1530     1.0  0.85496  0.53988  0.48938  1.0000
  S   S351      1.0  0.70042  0.50073  0.63809  1.0000
  H   H2703     1.0  0.81180  0.60523  0.51935  1.0000
  C   C1531     1.0  0.74446  0.55823  0.61134  1.0000
  H   H2704     1.0  0.53114  0.68547  0.71750  1.0000
  S   S352      1.0  0.97549  0.67294  0.57318  1.0000
  H   H2705     1.0  0.91959  0.60852  0.57788  1.0000
  H   H2706     1.0  0.72432  0.54227  0.65341  1.0000
  H   H2707     1.0  0.91721  0.64444  0.55137  1.0000
  H   H2708     1.0  0.50373  0.63471  0.71206  1.0000
  H   H2709     1.0  0.68208  0.49845  0.74476  1.0000
  H   H2710     1.0  0.89347  0.53677  0.48144  1.0000
  H   H2711     1.0  0.56745  0.53891  0.76443  1.0000
  C   C1532     1.0  0.72980  0.49585  0.48753  1.0000
  C   C1533     1.0  0.49463  0.55002  0.73198  1.0000
  C   C1534     1.0  0.79815  0.58993  0.61348  1.0000
  C   C1535     1.0  0.78461  0.57847  0.62554  1.0000
  C   C1536     1.0  0.83226  0.56116  0.61528  1.0000
  C   C1537     1.0  0.51989  0.55613  0.74339  1.0000
  C   C1538     1.0  0.65417  0.55755  0.55050  1.0000
  H   H2712     1.0  0.78661  0.59603  0.58449  1.0000
  C   C1539     1.0  0.77565  0.58576  0.64243  1.0000
  C   C1540     1.0  0.84096  0.54132  0.61972  1.0000
  H   H2713     1.0  0.93498  0.65167  0.50214  1.0000
  H   H2714     1.0  0.63106  0.54582  0.72617  1.0000
  H   H2715     1.0  0.58043  0.67651  0.71357  1.0000
  S   S353      1.0  0.98896  0.69179  0.52514  1.0000
  H   H2716     1.0  0.65870  0.63606  0.51344  1.0000
  H   H2717     1.0  0.68869  0.55766  0.65400  1.0000
  H   H2718     1.0  0.81711  0.57687  0.50860  1.0000
  H   H2719     1.0  0.80694  0.59201  0.62166  1.0000
  H   H2720     1.0  0.78998  0.60346  0.60964  1.0000
  H   H2721     1.0  0.79109  0.56427  0.62955  1.0000
  H   H2722     1.0  0.77375  0.57913  0.61855  1.0000
  H   H2723     1.0  0.71215  0.57189  0.57558  1.0000
  H   H2724     1.0  0.82456  0.56519  0.62787  1.0000
  C   C1541     1.0  0.50181  0.70280  0.73795  1.0000
  H   H2725     1.0  0.55419  0.67001  0.73660  1.0000
  H   H2726     1.0  0.65915  0.67663  0.57112  1.0000
  H   H2727     1.0  0.51089  0.51039  0.79725  1.0000
  H   H2728     1.0  0.52318  0.71620  0.59865  1.0000
  H   H2729     1.0  0.90362  0.60835  0.52431  1.0000
  H   H2730     1.0  0.52225  0.53767  0.72513  1.0000
  H   H2731     1.0  0.78574  0.58486  0.65051  1.0000
  H   H2732     1.0  0.76869  0.59997  0.63914  1.0000
  H   H2733     1.0  0.76541  0.57777  0.65042  1.0000
  H   H2734     1.0  0.84994  0.53945  0.62923  1.0000
  H   H2735     1.0  0.83051  0.53301  0.62594  1.0000
  H   H2736     1.0  0.68329  0.57120  0.56739  1.0000
  H   H2737     1.0  0.62265  0.51026  0.69309  1.0000
  C   C1542     1.0  0.95510  0.68264  0.56613  1.0000
  C   C1543     1.0  0.60821  0.63369  0.63814  1.0000
  H   H2738     1.0  0.62681  0.64311  0.61530  1.0000
  S   S354      1.0  0.78053  0.50700  0.51290  1.0000
  H   H2739     1.0  0.60525  0.63248  0.65275  1.0000
  H   H2740     1.0  0.59582  0.64059  0.63293  1.0000
  H   H2741     1.0  0.61215  0.62007  0.63495  1.0000
  H   H2742     1.0  0.70164  0.54086  0.63020  1.0000
  H   H2743     1.0  0.59580  0.71925  0.64408  1.0000
  C   C1544     1.0  0.95377  0.59947  0.52601  1.0000
  H   H2744     1.0  0.66445  0.50782  0.73243  1.0000
  H   H2745     1.0  0.90057  0.62682  0.57683  1.0000
  H   H2746     1.0  0.94524  0.65898  0.53484  1.0000
  C   C1545     1.0  0.55020  0.55018  0.72551  1.0000
  C   C1546     1.0  0.69086  0.50886  0.71724  1.0000
  C   C1547     1.0  0.66044  0.56690  0.55986  1.0000
  H   H2747     1.0  0.81947  0.66525  0.51453  1.0000
  C   C1548     1.0  0.68619  0.53486  0.48917  1.0000
  C   C1549     1.0  0.95271  0.70032  0.55667  1.0000
  N   N85       1.0  0.78290  0.70435  0.53817  1.0000
  H   H2748     1.0  0.71713  0.64476  0.52328  1.0000
  H   H2749     1.0  0.69466  0.53588  0.53050  1.0000
  H   H2750     1.0  0.70023  0.62625  0.59358  1.0000
  H   H2751     1.0  0.91804  0.62260  0.54686  1.0000
  H   H2752     1.0  0.89402  0.70503  0.63031  1.0000
  H   H2753     1.0  0.50412  0.62783  0.58983  1.0000
  H   H2754     1.0  0.58139  0.53600  0.70330  1.0000
  C   C1550     1.0  0.94160  0.67266  0.56908  1.0000
  C   C1551     1.0  0.67664  0.49002  0.61096  1.0000
  C   C1552     1.0  0.80604  0.73074  0.55964  1.0000
  H   H2755     1.0  0.73011  0.69687  0.56512  1.0000
  H   H2756     1.0  0.76550  0.68922  0.55847  1.0000
  H   H2757     1.0  0.57908  0.50703  0.77607  1.0000
  C   C1553     1.0  0.86484  0.58090  0.51631  1.0000
  C   C1554     1.0  0.77206  0.68461  0.59641  1.0000
  C   C1555     1.0  0.60119  0.58484  0.66543  1.0000
  S   S355      1.0  0.69630  0.65237  0.56166  1.0000
  S   S356      1.0  0.87558  0.67010  0.57110  1.0000
  C   C1556     1.0  0.84900  0.52346  0.50231  1.0000
  H   H2758     1.0  0.70306  0.58374  0.48176  1.0000
  H   H2759     1.0  0.91606  0.70945  0.58436  1.0000
  C   C1557     1.0  0.68405  0.51634  0.58891  1.0000
  Fe  Fe178     1.0  0.76159  0.49823  0.53810  1.0000
  H   H2760     1.0  0.62310  0.57228  0.64740  1.0000
  Fe  Fe179     1.0  0.73841  0.62275  0.60308  1.0000
  H   H2761     1.0  0.64431  0.56955  0.70349  1.0000
  H   H2762     1.0  0.76313  0.70796  0.51084  1.0000
  H   H2763     1.0  0.90851  0.64598  0.61674  1.0000
  H   H2764     1.0  0.78590  0.67527  0.52149  1.0000
  H   H2765     1.0  0.71187  0.51184  0.57394  1.0000
  H   H2766     1.0  0.56098  0.50033  0.77042  1.0000
  N   N86       1.0  0.89095  0.70955  0.60311  1.0000
  H   H2767     1.0  0.51930  0.57384  0.76978  1.0000
  H   H2768     1.0  0.56875  0.60973  0.64050  1.0000
  H   H2769     1.0  0.56473  0.63382  0.63735  1.0000
  H   H2770     1.0  0.80534  0.58646  0.57022  1.0000
  C   C1558     1.0  0.88328  0.71064  0.62233  1.0000
  C   C1559     1.0  0.81090  0.65848  0.52636  1.0000
  H   H2771     1.0  0.53250  0.63992  0.63450  1.0000
  H   H2772     1.0  0.56717  0.69675  0.70320  1.0000
  C   C1560     1.0  0.56669  0.68306  0.71126  1.0000
  C   C1561     1.0  0.86046  0.58411  0.49753  1.0000
  H   H2773     1.0  0.55355  0.58559  0.77122  1.0000
  H   H2774     1.0  0.67737  0.49662  0.55571  1.0000
  H   H2775     1.0  0.52412  0.66075  0.73255  1.0000
  H   H2776     1.0  0.83721  0.52763  0.51254  1.0000
  H   H2777     1.0  0.60019  0.59842  0.65699  1.0000
  H   H2778     1.0  0.53904  0.63100  0.66471  1.0000
  Fe  Fe180     1.0  0.72481  0.50577  0.64490  1.0000
  H   H2779     1.0  0.56663  0.57109  0.71749  1.0000
  H   H2780     1.0  0.81561  0.70722  0.54816  1.0000
  H   H2781     1.0  0.70465  0.50054  0.71559  1.0000
  C   C1562     1.0  0.71006  0.52972  0.59129  1.0000
  H   H2782     1.0  0.62826  0.49155  0.78348  1.0000
  S   S357      1.0  0.75980  0.52277  0.54879  1.0000
  H   H2783     1.0  0.51052  0.52862  0.85318  1.0000
  H   H2784     1.0  0.56250  0.67505  0.70372  1.0000
  C   C1563     1.0  0.65764  0.63296  0.52803  1.0000
  C   C1564     1.0  0.89941  0.65708  0.60967  1.0000
  H   H2785     1.0  0.94632  0.59472  0.53950  1.0000
  H   H2786     1.0  0.62005  0.56040  0.66989  1.0000
  C   C1565     1.0  0.79772  0.68788  0.53725  1.0000
  C   C1566     1.0  0.79360  0.67147  0.53224  1.0000
  H   H2787     1.0  0.87697  0.68809  0.60497  1.0000
  H   H2788     1.0  0.80178  0.68250  0.55036  1.0000
  C   C1567     1.0  0.56318  0.62128  0.64725  1.0000
  C   C1568     1.0  0.79210  0.69902  0.60487  1.0000
  C   C1569     1.0  0.80441  0.67458  0.58902  1.0000
  S   S358      1.0  0.49708  0.68364  0.65501  1.0000
  H   H2789     1.0  0.67395  0.64462  0.64238  1.0000
  H   H2790     1.0  0.95558  0.62392  0.50649  1.0000
  Fe  Fe181     1.0  0.88312  0.69200  0.54833  1.0000
  H   H2791     1.0  0.54143  0.58781  0.69872  1.0000
  C   C1570     1.0  0.52248  0.73797  0.69016  1.0000
  H   H2792     1.0  0.96842  0.59503  0.52570  1.0000
  C   C1571     1.0  0.63921  0.55959  0.69913  1.0000
  C   C1572     1.0  0.54345  0.62115  0.65582  1.0000
  C   C1573     1.0  0.62021  0.57388  0.66142  1.0000
  H   H2793     1.0  0.63604  0.59456  0.65291  1.0000
  H   H2794     1.0  0.66139  0.57594  0.63786  1.0000
  H   H2795     1.0  0.86060  0.71925  0.65333  1.0000
  C   C1574     1.0  0.55368  0.68397  0.72898  1.0000
  C   C1575     1.0  0.80495  0.71944  0.54682  1.0000
  H   H2796     1.0  0.53822  0.55951  0.77856  1.0000
  H   H2797     1.0  0.80428  0.56072  0.56099  1.0000
  H   H2798     1.0  0.78634  0.69932  0.50174  1.0000
  H   H2799     1.0  0.57104  0.55725  0.69128  1.0000
  C   C1576     1.0  0.98576  0.65621  0.48634  1.0000
  C   C1577     1.0  0.77468  0.69759  0.60445  1.0000
  H   H2800     1.0  0.76320  0.70664  0.61026  1.0000
  H   H2801     1.0  0.69322  0.57457  0.50419  1.0000
  H   H2802     1.0  0.50304  0.64716  0.62909  1.0000
  C   C1578     1.0  0.67303  0.61784  0.53323  1.0000
  H   H2803     1.0  0.91867  0.70207  0.60674  1.0000
  H   H2804     1.0  0.86410  0.56712  0.52389  1.0000
  H   H2805     1.0  0.65196  0.55671  0.64654  1.0000
  C   C1579     1.0  0.63446  0.58320  0.66438  1.0000
  H   H2806     1.0  0.72450  0.62180  0.50527  1.0000
  H   H2807     1.0  0.54289  0.60760  0.66397  1.0000
  H   H2808     1.0  0.57098  0.62020  0.65757  1.0000
  H   H2809     1.0  0.62869  0.58975  0.67603  1.0000
  C   C1580     1.0  0.78693  0.67290  0.58890  1.0000
  C   C1581     1.0  0.53162  0.62588  0.64158  1.0000
  H   H2810     1.0  0.84560  0.58813  0.49853  1.0000
  H   H2811     1.0  0.80799  0.72746  0.53327  1.0000
  H   H2812     1.0  0.53464  0.70664  0.71807  1.0000
  C   C1582     1.0  0.73802  0.54595  0.62614  1.0000
  H   H2813     1.0  0.55877  0.69174  0.73603  1.0000
  H   H2814     1.0  0.50453  0.72352  0.85823  1.0000
  S   S359      1.0  0.75019  0.68430  0.59473  1.0000
  H   H2815     1.0  0.68138  0.58903  0.64396  1.0000
  S   S360      1.0  0.74167  0.52340  0.62449  1.0000
  H   H2816     1.0  0.81586  0.66553  0.58329  1.0000
  H   H2817     1.0  0.67050  0.61400  0.54791  1.0000
  H   H2818     1.0  0.69491  0.50753  0.55631  1.0000
  H   H2819     1.0  0.62053  0.50736  0.59515  1.0000
  C   C1583     1.0  0.69148  0.62386  0.52615  1.0000
  S   S361      1.0  0.71188  0.50646  0.67326  1.0000
  H   H2820     1.0  0.61751  0.72561  0.63989  1.0000
  H   H2821     1.0  0.53716  0.69849  0.75824  1.0000
  Fe  Fe182     1.0  0.77630  0.53279  0.52250  1.0000
  C   C1584     1.0  0.66072  0.56455  0.64932  1.0000
  H   H2822     1.0  0.62615  0.52846  0.58222  1.0000
  H   H2823     1.0  0.70178  0.54263  0.58595  1.0000
  C   C1585     1.0  0.89082  0.69103  0.60057  1.0000
  H   H2824     1.0  0.65117  0.57606  0.56758  1.0000
  N   N87       1.0  0.51213  0.62407  0.64819  1.0000
  C   C1586     1.0  0.72916  0.55177  0.64191  1.0000
  C   C1587     1.0  0.66645  0.54635  0.53978  1.0000
  H   H2825     1.0  0.53168  0.58986  0.78525  1.0000
  C   C1588     1.0  0.50961  0.62434  0.61608  1.0000
  H   H2826     1.0  0.53847  0.61713  0.63178  1.0000
  N   N88       1.0  0.65251  0.57130  0.66627  1.0000
  C   C1589     1.0  0.74593  0.63709  0.51827  1.0000
  S   S362      1.0  0.72131  0.65022  0.59920  1.0000
  C   C1590     1.0  0.51172  0.60432  0.65438  1.0000
  H   H2827     1.0  0.69611  0.59549  0.55438  1.0000
  H   H2828     1.0  0.69739  0.58597  0.52906  1.0000
  H   H2829     1.0  0.86199  0.70850  0.58516  1.0000
  H   H2830     1.0  0.77214  0.72138  0.47922  1.0000
  H   H2831     1.0  0.64457  0.62872  0.53433  1.0000
  C   C1591     1.0  0.56868  0.55623  0.71950  1.0000
  C   C1592     1.0  0.67213  0.59588  0.65437  1.0000
  H   H2832     1.0  0.67577  0.57312  0.67578  1.0000
  H   H2833     1.0  0.62493  0.56500  0.69804  1.0000
  H   H2834     1.0  0.66133  0.60565  0.64834  1.0000
  H   H2835     1.0  0.50156  0.66319  0.74550  1.0000
  H   H2836     1.0  0.52376  0.62565  0.61027  1.0000
  C   C1593     1.0  0.67875  0.56448  0.55937  1.0000
  N   N89       1.0  0.70780  0.60932  0.52871  1.0000
  S   S363      1.0  0.63094  0.55945  0.55329  1.0000
  C   C1594     1.0  0.70790  0.59351  0.52091  1.0000
  C   C1595     1.0  0.72735  0.63255  0.52661  1.0000
  H   H2837     1.0  0.70395  0.61441  0.55522  1.0000
  S   S364      1.0  0.90364  0.70872  0.54520  1.0000
  H   H2838     1.0  0.74898  0.71969  0.56034  1.0000
  H   H2839     1.0  0.88527  0.65600  0.61603  1.0000
  C   C1596     1.0  0.66421  0.58211  0.67021  1.0000
  H   H2840     1.0  0.69350  0.59686  0.66734  1.0000
  H   H2841     1.0  0.67437  0.61528  0.66901  1.0000
  H   H2842     1.0  0.78498  0.66288  0.58262  1.0000
  C   C1597     1.0  0.86949  0.72902  0.64639  1.0000
  H   H2843     1.0  0.51869  0.59860  0.66575  1.0000
  C   C1598     1.0  0.72455  0.61674  0.51961  1.0000
  H   H2844     1.0  0.91927  0.65299  0.52262  1.0000
  Fe  Fe183     1.0  0.74718  0.65961  0.58700  1.0000
  C   C1599     1.0  0.68321  0.60622  0.66026  1.0000
  H   H2845     1.0  0.65395  0.70034  0.56255  1.0000
  C   C1600     1.0  0.65068  0.55536  0.68124  1.0000
  H   H2846     1.0  0.75664  0.62547  0.52195  1.0000
  C   C1601     1.0  0.90317  0.67512  0.61048  1.0000
  H   H2847     1.0  0.52895  0.71354  0.78417  1.0000
  H   H2848     1.0  0.74764  0.64074  0.50362  1.0000
  H   H2849     1.0  0.63651  0.53559  0.62899  1.0000
  H   H2850     1.0  0.87665  0.70747  0.49517  1.0000
  H   H2851     1.0  0.97670  0.61259  0.53871  1.0000
  C   C1602     1.0  0.79348  0.56827  0.52548  1.0000
  H   H2852     1.0  0.85047  0.60790  0.51964  1.0000
  C   C1603     1.0  0.70726  0.60291  0.54833  1.0000
  C   C1604     1.0  0.92357  0.69806  0.55275  1.0000
  S   S365      1.0  0.74622  0.65781  0.55947  1.0000
  H   H2853     1.0  0.64499  0.54543  0.67754  1.0000
  H   H2854     1.0  0.69048  0.61433  0.64844  1.0000
  H   H2855     1.0  0.74719  0.58566  0.60080  1.0000
  Fe  Fe184     1.0  0.72179  0.64580  0.57232  1.0000
  C   C1605     1.0  0.73334  0.58220  0.62795  1.0000
  C   C1606     1.0  0.62353  0.64388  0.62950  1.0000
  H   H2856     1.0  0.59201  0.55516  0.69804  1.0000
  H   H2857     1.0  0.60694  0.71682  0.66216  1.0000
  H   H2858     1.0  0.65658  0.58969  0.68078  1.0000
  H   H2859     1.0  0.61863  0.67992  0.59933  1.0000
  C   C1607     1.0  0.52110  0.64219  0.75701  1.0000
  H   H2860     1.0  0.51948  0.59672  0.64386  1.0000
  H   H2861     1.0  0.65445  0.68300  0.62604  1.0000
  H   H2862     1.0  0.63462  0.53225  0.70973  1.0000
  H   H2863     1.0  0.67234  0.60619  0.52796  1.0000
  S   S366      1.0  0.52865  0.52873  0.81385  1.0000
  N   N90       1.0  0.86771  0.56856  0.48798  1.0000
  H   H2864     1.0  0.80860  0.54101  0.48071  1.0000
  C   C1608     1.0  0.94360  0.62666  0.55085  1.0000
  H   H2865     1.0  0.63925  0.66446  0.59870  1.0000
  H   H2866     1.0  0.93322  0.71642  0.48820  1.0000
  H   H2867     1.0  0.63517  0.63662  0.63577  1.0000
  S   S367      1.0  0.87976  0.62873  0.54919  1.0000
  C   C1609     1.0  0.97531  0.64775  0.47946  1.0000
  S   S368      1.0  0.76453  0.63246  0.59303  1.0000
  H   H2868     1.0  0.54002  0.58034  0.73971  1.0000
  H   H2869     1.0  0.53433  0.53560  0.77012  1.0000
  H   H2870     1.0  0.60432  0.66890  0.62964  1.0000
  C   C1610     1.0  0.61809  0.66346  0.63249  1.0000
  C   C1611     1.0  0.82277  0.59514  0.58830  1.0000
  S   S369      1.0  0.71378  0.55183  0.54858  1.0000
  C   C1612     1.0  0.63221  0.67741  0.60265  1.0000
  C   C1613     1.0  0.51919  0.67557  0.75445  1.0000
  H   H2871     1.0  0.65780  0.64530  0.53250  1.0000
  H   H2872     1.0  0.79033  0.54515  0.57402  1.0000
  Fe  Fe185     1.0  0.76160  0.62967  0.56633  1.0000
  C   C1614     1.0  0.51042  0.73311  0.84675  1.0000
  H   H2873     1.0  0.91754  0.67511  0.60425  1.0000
  H   H2874     1.0  0.72631  0.62938  0.54113  1.0000
  H   H2875     1.0  0.67832  0.53874  0.65701  1.0000
  H   H2876     1.0  0.84912  0.53657  0.60758  1.0000
  C   C1615     1.0  0.93700  0.70801  0.55001  1.0000
  H   H2877     1.0  0.78462  0.56079  0.59990  1.0000
  C   C1616     1.0  0.64836  0.68878  0.57137  1.0000
  H   H2878     1.0  0.93997  0.68233  0.49994  1.0000
  C   C1617     1.0  0.67954  0.55227  0.64885  1.0000
  H   H2879     1.0  0.86652  0.53502  0.47937  1.0000
  C   C1618     1.0  0.65807  0.50439  0.58787  1.0000
  H   H2880     1.0  0.65806  0.64573  0.61751  1.0000
  H   H2881     1.0  0.82338  0.63974  0.56687  1.0000
  S   S370      1.0  0.73711  0.61751  0.57693  1.0000
  H   H2882     1.0  0.69148  0.52179  0.72031  1.0000
  H   H2883     1.0  0.70965  0.50183  0.59691  1.0000
  H   H2884     1.0  0.74749  0.64864  0.52321  1.0000
  C   C1619     1.0  0.98453  0.73836  0.48823  1.0000
  C   C1620     1.0  0.61550  0.53103  0.65172  1.0000
  C   C1621     1.0  0.72466  0.59068  0.55367  1.0000
  H   H2885     1.0  0.68071  0.52576  0.57669  1.0000
  H   H2886     1.0  0.73673  0.60588  0.52021  1.0000
  H   H2887     1.0  0.91556  0.67256  0.56423  1.0000
  C   C1622     1.0  0.63345  0.52987  0.64283  1.0000
  H   H2888     1.0  0.66419  0.54786  0.68372  1.0000
  H   H2889     1.0  0.73502  0.59882  0.55149  1.0000
  H   H2890     1.0  0.73426  0.57381  0.57682  1.0000
  H   H2891     1.0  0.72079  0.58369  0.52138  1.0000
  H   H2892     1.0  0.81086  0.55442  0.60725  1.0000
  C   C1623     1.0  0.64363  0.51445  0.67010  1.0000
  C   C1624     1.0  0.92588  0.68031  0.56218  1.0000
  C   C1625     1.0  0.72131  0.58145  0.57319  1.0000
  N   N91       1.0  0.51995  0.69383  0.74271  1.0000
  S   S371      1.0  0.73123  0.60465  0.62940  1.0000
  C   C1626     1.0  0.60913  0.71578  0.64804  1.0000
  H   H2893     1.0  0.63704  0.68692  0.56622  1.0000
  C   C1627     1.0  0.72692  0.56991  0.64283  1.0000
  C   C1628     1.0  0.68507  0.54439  0.53878  1.0000
  H   H2894     1.0  0.49670  0.72202  0.64821  1.0000
  H   H2895     1.0  0.77548  0.57328  0.58142  1.0000
  C   C1629     1.0  0.81478  0.61520  0.58175  1.0000
  H   H2896     1.0  0.72037  0.57437  0.65509  1.0000
  H   H2897     1.0  0.61662  0.66222  0.64698  1.0000
  C   C1630     1.0  0.62571  0.51551  0.67900  1.0000
  C   C1631     1.0  0.69110  0.55337  0.54881  1.0000
  H   H2898     1.0  0.84660  0.55724  0.50799  1.0000
  H   H2899     1.0  0.84335  0.56874  0.60987  1.0000
  N   N92       1.0  0.80931  0.58308  0.59723  1.0000
  C   C1632     1.0  0.81986  0.56426  0.60175  1.0000
  H   H2900     1.0  0.83150  0.59530  0.59742  1.0000
  C   C1633     1.0  0.54345  0.53478  0.75708  1.0000
  C   C1634     1.0  0.85011  0.72297  0.49341  1.0000
  H   H2901     1.0  0.80810  0.62187  0.59315  1.0000
  N   N93       1.0  0.63044  0.67630  0.62224  1.0000
  C   C1635     1.0  0.64193  0.69230  0.59022  1.0000
  C   C1636     1.0  0.78840  0.56783  0.58608  1.0000
  H   H2902     1.0  0.64754  0.52682  0.60165  1.0000
  H   H2903     1.0  0.63246  0.70546  0.58950  1.0000
  H   H2904     1.0  0.60802  0.69891  0.62211  1.0000
  H   H2905     1.0  0.83596  0.62004  0.55846  1.0000
  C   C1637     1.0  0.54362  0.56775  0.74943  1.0000
  C   C1638     1.0  0.79767  0.58400  0.58411  1.0000
  H   H2906     1.0  0.91675  0.68190  0.50116  1.0000
  H   H2907     1.0  0.57218  0.52529  0.74773  1.0000
  H   H2908     1.0  0.66854  0.66386  0.60476  1.0000
  C   C1639     1.0  0.66312  0.65738  0.61849  1.0000
  C   C1640     1.0  0.68845  0.55007  0.62997  1.0000
  C   C1641     1.0  0.79921  0.55404  0.57472  1.0000
  H   H2909     1.0  0.60993  0.68755  0.65494  1.0000
  H   H2910     1.0  0.73047  0.58018  0.54567  1.0000
  C   C1642     1.0  0.62133  0.69466  0.62626  1.0000
  C   C1643     1.0  0.70474  0.58057  0.49576  1.0000
  H   H2911     1.0  0.53592  0.63834  0.75594  1.0000
  C   C1644     1.0  0.62529  0.51953  0.59548  1.0000
  C   C1645     1.0  0.61170  0.52347  0.66975  1.0000
  H   H2912     1.0  0.81068  0.54539  0.58047  1.0000
  H   H2913     1.0  0.59786  0.52414  0.67663  1.0000
  C   C1646     1.0  0.63968  0.54261  0.71355  1.0000
  H   H2914     1.0  0.67999  0.54436  0.62419  1.0000
  H   H2915     1.0  0.57743  0.55033  0.72936  1.0000
  C   C1647     1.0  0.64836  0.67098  0.62800  1.0000
  H   H2916     1.0  0.65373  0.69342  0.59506  1.0000
  C   C1648     1.0  0.61846  0.69666  0.64583  1.0000
  H   H2917     1.0  0.64636  0.66547  0.64251  1.0000
  C   C1649     1.0  0.64752  0.52129  0.65192  1.0000
  H   H2918     1.0  0.66133  0.52065  0.64501  1.0000
  C   C1650     1.0  0.80245  0.59615  0.52477  1.0000
  H   H2919     1.0  0.80483  0.61677  0.57339  1.0000
  C   C1651     1.0  0.82949  0.62539  0.57073  1.0000
  H   H2920     1.0  0.62935  0.70496  0.61851  1.0000
  C   C1652     1.0  0.51715  0.72179  0.77859  1.0000
  C   C1653     1.0  0.87907  0.62845  0.49221  1.0000
  C   C1654     1.0  0.74197  0.57635  0.61219  1.0000
  H   H2921     1.0  0.92114  0.54081  0.48843  1.0000
  H   H2922     1.0  0.83194  0.58990  0.57674  1.0000
  H   H2923     1.0  0.96307  0.70811  0.55444  1.0000
  H   H2924     1.0  0.65810  0.51335  0.57459  1.0000
  H   H2925     1.0  0.63152  0.69375  0.65019  1.0000
  H   H2926     1.0  0.65365  0.53712  0.71569  1.0000
  H   H2927     1.0  0.92377  0.68404  0.52043  1.0000
  C   C1655     1.0  0.70537  0.59771  0.50145  1.0000
  H   H2928     1.0  0.68848  0.63958  0.62217  1.0000
  C   C1656     1.0  0.91026  0.71204  0.59797  1.0000
  C   C1657     1.0  0.67879  0.65036  0.62827  1.0000
  H   H2929     1.0  0.71514  0.59136  0.58191  1.0000
  C   C1658     1.0  0.64354  0.51439  0.60108  1.0000
  H   H2930     1.0  0.83991  0.62447  0.57846  1.0000
  H   H2931     1.0  0.86842  0.54425  0.50845  1.0000
  H   H2932     1.0  0.84364  0.54702  0.48258  1.0000
  S   S372      1.0  0.66077  0.50643  0.68242  1.0000
  H   H2933     1.0  0.49934  0.54925  0.84105  1.0000
  H   H2934     1.0  0.50283  0.57228  0.67498  1.0000
  H   H2935     1.0  0.50640  0.69911  0.77851  1.0000
  C   C1659     1.0  0.77814  0.57278  0.53828  1.0000
  H   H2936     1.0  0.67730  0.52391  0.59972  1.0000
  S   S373      1.0  0.73679  0.50885  0.52644  1.0000
  Fe  Fe186     1.0  0.73665  0.53417  0.53470  1.0000
  H   H2937     1.0  0.68585  0.51182  0.70469  1.0000
  C   C1660     1.0  0.88790  0.56430  0.48606  1.0000
  H   H2938     1.0  0.76885  0.56363  0.54373  1.0000
  H   H2939     1.0  0.55633  0.51380  0.78715  1.0000
  C   C1661     1.0  0.88020  0.72303  0.59053  1.0000
  C   C1662     1.0  0.77599  0.72610  0.48965  1.0000
  H   H2940     1.0  0.81964  0.70402  0.48208  1.0000
  S   S374      1.0  0.75298  0.54605  0.50918  1.0000
  H   H2941     1.0  0.67002  0.49959  0.62004  1.0000
  H   H2942     1.0  0.50079  0.57336  0.65243  1.0000
  H   H2943     1.0  0.52807  0.71808  0.74383  1.0000
  C   C1663     1.0  0.70468  0.51373  0.58745  1.0000
  H   H2944     1.0  0.51638  0.56957  0.73487  1.0000
  C   C1664     1.0  0.56490  0.51139  0.77427  1.0000
  H   H2945     1.0  0.98136  0.65199  0.52899  1.0000
  H   H2946     1.0  0.83858  0.59013  0.53183  1.0000
  H   H2947     1.0  0.90118  0.67590  0.62462  1.0000
  H   H2948     1.0  0.97289  0.64194  0.55131  1.0000
  H   H2949     1.0  0.71671  0.60348  0.49238  1.0000
  H   H2950     1.0  0.72447  0.52990  0.58537  1.0000
  H   H2951     1.0  0.50424  0.72072  0.61609  1.0000
  H   H2952     1.0  0.72564  0.50260  0.49859  1.0000
  H   H2953     1.0  0.51145  0.55697  0.75673  1.0000
  H   H2954     1.0  0.81955  0.73430  0.55641  1.0000
  H   H2955     1.0  0.53159  0.67031  0.76011  1.0000
  C   C1665     1.0  0.67805  0.49922  0.73213  1.0000
  C   C1666     1.0  0.51112  0.71121  0.60712  1.0000
  H   H2956     1.0  0.71934  0.71882  0.55536  1.0000
  C   C1667     1.0  0.97287  0.62642  0.53113  1.0000
  H   H2957     1.0  0.87302  0.70196  0.62808  1.0000
  C   C1668     1.0  0.50247  0.63257  0.63298  1.0000
  H   H2958     1.0  0.93456  0.59382  0.51307  1.0000
  H   H2959     1.0  0.51564  0.69783  0.61517  1.0000
  H   H2960     1.0  0.85732  0.59355  0.53928  1.0000
  H   H2961     1.0  0.69262  0.60726  0.49968  1.0000
  N   N94       1.0  0.67677  0.49936  0.59192  1.0000
  C   C1669     1.0  0.85957  0.55265  0.49919  1.0000
  H   H2962     1.0  0.61483  0.49197  0.76758  1.0000
  H   H2963     1.0  0.50552  0.70602  0.70923  1.0000
  C   C1670     1.0  0.49853  0.53964  0.85394  1.0000
  H   H2964     1.0  0.93533  0.72171  0.54269  1.0000
  C   C1671     1.0  0.89302  0.61738  0.50025  1.0000
  H   H2965     1.0  0.71739  0.57056  0.49690  1.0000
  H   H2966     1.0  0.50088  0.68441  0.72085  1.0000
  H   H2967     1.0  0.88746  0.72305  0.57658  1.0000
  H   H2968     1.0  0.89167  0.55972  0.49932  1.0000
  H   H2969     1.0  0.51685  0.72606  0.83555  1.0000
  C   C1672     1.0  0.69040  0.49451  0.55996  1.0000
  H   H2970     1.0  0.86597  0.59620  0.48996  1.0000
  H   H2971     1.0  0.49879  0.54683  0.86432  1.0000
  H   H2972     1.0  0.65340  0.49237  0.58686  1.0000
  H   H2973     1.0  0.80902  0.68786  0.47782  1.0000
  H   H2974     1.0  0.79738  0.71889  0.51431  1.0000
  H   H2975     1.0  0.94286  0.72088  0.59668  1.0000
  C   C1673     1.0  0.87388  0.72947  0.62645  1.0000
  H   H2976     1.0  0.85390  0.71658  0.60551  1.0000
  H   H2977     1.0  0.74825  0.72522  0.53704  1.0000
  H   H2978     1.0  0.89366  0.57664  0.48012  1.0000
  H   H2979     1.0  0.52100  0.73409  0.76949  1.0000
  H   H2980     1.0  0.50875  0.60993  0.61906  1.0000
  H   H2981     1.0  0.51171  0.53021  0.74768  1.0000
  C   C1674     1.0  0.49849  0.71010  0.59559  1.0000
  C   C1675     1.0  0.86105  0.71991  0.59159  1.0000
  C   C1676     1.0  0.50411  0.52426  0.79627  1.0000
  H   H2982     1.0  0.49810  0.71962  0.76426  1.0000
  H   H2983     1.0  0.51416  0.73163  0.66880  1.0000
  C   C1677     1.0  0.49759  0.69886  0.72130  1.0000
  C   C1678     1.0  0.93334  0.73201  0.59014  1.0000
  C   C1679     1.0  0.50161  0.55403  0.80157  1.0000
  H   H2984     1.0  0.50636  0.56318  0.80685  1.0000
  H   H2985     1.0  0.49970  0.64839  0.59790  1.0000
  C   C1680     1.0  0.49867  0.63398  0.60175  1.0000
  H   H2986     1.0  0.83635  0.73327  0.58236  1.0000
  H   H2987     1.0  0.90542  0.73610  0.51419  1.0000
  H   H2988     1.0  0.49562  0.56115  0.72025  1.0000
  H   H2989     1.0  0.78931  0.73007  0.48429  1.0000
  H   H2990     1.0  0.89672  0.68363  0.48134  1.0000
  H   H2991     1.0  0.86098  0.73402  0.62166  1.0000
  H   H2992     1.0  0.91176  0.73176  0.61268  1.0000
  C   C1681     1.0  0.91384  0.73044  0.59868  1.0000
  H   H2993     1.0  0.93600  0.73162  0.57582  1.0000
  C   C1682     1.0  0.84964  0.73634  0.58194  1.0000
  H   H2994     1.0  0.86409  0.68465  0.48026  1.0000
  C   C1683     1.0  0.89176  0.67214  0.47962  1.0000
  C   C1684     1.0  0.50989  0.73747  0.68049  1.0000
  C   C1685     1.0  0.49457  0.57879  0.66469  1.0000
  C   C1686     1.0  0.84014  0.73901  0.48561  1.0000
  H   H2995     1.0  0.76580  0.73805  0.49294  1.0000
  H   H2996     1.0  0.96181  0.65436  0.47795  1.0000
  H   H2997     1.0  0.52098  0.73781  0.85065  1.0000
  H   H2998     1.0  0.88534  0.74271  0.40722  1.0000
  H   H2999     1.0  0.96620  0.94100  0.34594  1.0000
  C   C1687     1.0  0.96401  0.92992  0.35749  1.0000
  H   H3000     1.0  0.99349  0.82771  0.39806  1.0000
  H   H3001     1.0  0.95315  0.92896  0.38622  1.0000
  Fe  Fe187     1.0  0.94451  0.74239  0.43301  1.0000
  C   C1688     1.0  0.97241  0.79323  0.38608  1.0000
  C   C1689     1.0  0.90351  0.80550  0.46261  1.0000
  H   H3002     1.0  0.96718  0.80786  0.44987  1.0000
  H   H3003     1.0  0.97617  0.96850  0.30161  1.0000
  H   H3004     1.0  0.93910  0.96198  0.35954  1.0000
  H   H3005     1.0  0.95271  0.92187  0.44476  1.0000
  Fe  Fe188     1.0  0.97590  0.97223  0.39873  1.0000
  H   H3006     1.0  0.97690  0.90220  0.34065  1.0000
  H   H3007     1.0  0.97971  0.93070  0.32094  1.0000
  C   C1690     1.0  0.98196  0.80643  0.44507  1.0000
  S   S375      1.0  0.90652  0.77243  0.41012  1.0000
  C   C1691     1.0  0.96215  0.87682  0.39293  1.0000
  H   H3008     1.0  0.89904  0.79962  0.45336  1.0000
  C   C1692     1.0  0.97877  0.90159  0.37479  1.0000
  C   C1693     1.0  0.96147  0.80629  0.39536  1.0000
  C   C1694     1.0  0.86774  0.74922  0.46983  1.0000
  H   H3009     1.0  0.91836  0.80426  0.45903  1.0000
  H   H3010     1.0  0.89725  0.81998  0.46095  1.0000
  C   C1695     1.0  0.96464  0.91704  0.43564  1.0000
  H   H3011     1.0  0.96652  0.78360  0.38278  1.0000
  S   S376      1.0  0.96528  0.95239  0.42229  1.0000
  H   H3012     1.0  0.87068  0.75890  0.41964  1.0000
  H   H3013     1.0  0.95388  0.92370  0.35466  1.0000
  H   H3014     1.0  0.95038  0.87057  0.39434  1.0000
  H   H3015     1.0  0.96097  0.88165  0.40531  1.0000
  C   C1696     1.0  0.95548  0.93898  0.37377  1.0000
  H   H3016     1.0  0.94965  0.90203  0.37930  1.0000
  H   H3017     1.0  0.96054  0.75754  0.45564  1.0000
  H   H3018     1.0  0.96436  0.94739  0.37537  1.0000
  C   C1697     1.0  0.96258  0.89241  0.37699  1.0000
  H   H3019     1.0  0.96319  0.88704  0.36513  1.0000
  H   H3020     1.0  0.98813  0.80750  0.45591  1.0000
  C   C1698     1.0  0.97085  0.89856  0.43663  1.0000
  C   C1699     1.0  0.84895  0.75227  0.47417  1.0000
  H   H3021     1.0  0.96362  0.88921  0.44647  1.0000
  C   C1700     1.0  0.93740  0.95125  0.37155  1.0000
  C   C1701     1.0  0.97368  0.92930  0.42286  1.0000
  C   C1702     1.0  0.96896  0.74743  0.46355  1.0000
  S   S377      1.0  0.93836  0.80678  0.40241  1.0000
  S   S378      1.0  0.92956  0.76832  0.44098  1.0000
  H   H3022     1.0  0.97713  0.90647  0.38721  1.0000
  H   H3023     1.0  0.96064  0.82908  0.40648  1.0000
  C   C1703     1.0  0.96908  0.81901  0.39923  1.0000
  H   H3024     1.0  0.98207  0.78757  0.42950  1.0000
  H   H3025     1.0  0.99016  0.86594  0.35433  1.0000
  S   S379      1.0  0.94931  0.75370  0.40398  1.0000
  H   H3026     1.0  0.97450  0.86634  0.39123  1.0000
  H   H3027     1.0  0.92771  0.94342  0.37049  1.0000
  Fe  Fe189     1.0  0.90496  0.75964  0.43880  1.0000
  H   H3028     1.0  0.90422  0.77012  0.47421  1.0000
  Fe  Fe190     1.0  0.93228  0.77904  0.41183  1.0000
  S   S380      1.0  0.87811  0.76668  0.45640  1.0000
  H   H3029     1.0  0.93178  0.95771  0.38325  1.0000
  H   H3030     1.0  0.84118  0.76493  0.46861  1.0000
  C   C1704     1.0  0.98767  0.81833  0.39433  1.0000
  C   C1705     1.0  0.98941  0.96789  0.30397  1.0000
  C   C1706     1.0  0.98748  0.90853  0.34243  1.0000
  S   S381      1.0  0.97206  0.97631  0.33577  1.0000
  H   H3031     1.0  0.98452  0.81759  0.43365  1.0000
  Fe  Fe191     1.0  0.97885  0.98242  0.35915  1.0000
  H   H3032     1.0  0.98694  0.77756  0.45121  1.0000
  C   C1707     1.0  0.99217  0.92189  0.32476  1.0000
  C   C1708     1.0  0.98920  0.92289  0.41121  1.0000
  H   H3033     1.0  0.99106  0.89087  0.37461  1.0000
  N   N95       1.0  0.98133  0.91655  0.35886  1.0000
  S   S382      1.0  0.99313  0.86881  0.42664  1.0000
  C   C1709     1.0  0.98623  0.89212  0.42494  1.0000
  C   C1710     1.0  0.99130  0.97097  0.31998  1.0000
  H   H3034     1.0  0.86141  0.74776  0.40755  1.0000
  C   C1711     1.0  0.98956  0.78828  0.43951  1.0000
  H   H3035     1.0  0.99171  0.92953  0.37423  1.0000
  Fe  Fe192     1.0  0.92321  0.74582  0.40524  1.0000
  S   S383      1.0  0.95640  0.98853  0.38163  1.0000
  C   C1712     1.0  0.87181  0.74600  0.41553  1.0000
  H   H3036     1.0  0.97709  0.85963  0.34163  1.0000
  H   H3037     1.0  0.97823  0.84773  0.36395  1.0000
  C   C1713     1.0  0.99095  0.79288  0.38071  1.0000
  C   C1714     1.0  0.98598  0.85450  0.35150  1.0000
  H   H3038     1.0  0.99341  0.90325  0.30781  1.0000
  N   N96       1.0  0.90116  0.76464  0.50266  1.0000
  H   H3039     1.0  0.84646  0.76120  0.51019  1.0000
  H   H3040     1.0  0.96848  0.76460  0.48136  1.0000
  H   H3041     1.0  0.92183  0.77223  0.51161  1.0000
  H   H3042     1.0  0.89011  0.76274  0.54146  1.0000
  H   H3043     1.0  0.93627  0.74487  0.50752  1.0000
  H   H3044     1.0  0.87597  0.76907  0.49376  1.0000
  C   C1715     1.0  0.85175  0.75663  0.52268  1.0000
  H   H3045     1.0  0.84578  0.74495  0.53054  1.0000
  C   C1716     1.0  0.87226  0.75121  0.51865  1.0000
  H   H3046     1.0  0.90966  0.74585  0.53581  1.0000
  C   C1717     1.0  0.49594  0.74917  0.84127  1.0000
  C   C1718     1.0  0.88085  0.76696  0.50637  1.0000
  H   H3047     1.0  0.85632  0.73988  0.56785  1.0000
  H   H3048     1.0  0.90163  0.80306  0.49045  1.0000
  H   H3049     1.0  0.87449  0.77932  0.51185  1.0000
  H   H3050     1.0  0.50584  0.77752  0.77388  1.0000
  H   H3051     1.0  0.92935  0.76338  0.54140  1.0000
  C   C1719     1.0  0.97359  0.75148  0.47799  1.0000
  C   C1720     1.0  0.91460  0.76623  0.54658  1.0000
  H   H3052     1.0  0.92158  0.77561  0.48166  1.0000
  C   C1721     1.0  0.93064  0.74096  0.49776  1.0000
  H   H3053     1.0  0.90020  0.78526  0.51694  1.0000
  C   C1722     1.0  0.90685  0.77589  0.48464  1.0000
  H   H3054     1.0  0.87567  0.73952  0.51202  1.0000
  C   C1723     1.0  0.90460  0.76039  0.53526  1.0000
  C   C1724     1.0  0.90736  0.77129  0.51606  1.0000
  H   H3055     1.0  0.93589  0.74793  0.48428  1.0000
  H   H3056     1.0  0.86240  0.74253  0.64899  1.0000
  H   H3057     1.0  0.90513  0.74182  0.59158  1.0000
  H   H3058     1.0  0.50254  0.75855  0.83026  1.0000
  H   H3059     1.0  0.91004  0.78080  0.54671  1.0000
  H   H3060     1.0  0.88286  0.79791  0.48446  1.0000
  H   H3061     1.0  0.87699  0.74664  0.53135  1.0000
  H   H3062     1.0  0.90519  0.74118  0.49141  1.0000
  S   S384      1.0  0.98951  0.74259  0.50699  1.0000
  C   C1725     1.0  0.90980  0.74533  0.50175  1.0000
  H   H3063     1.0  0.91193  0.75860  0.56038  1.0000
  H   H3064     1.0  0.84748  0.76756  0.53038  1.0000
  H   H3065     1.0  0.84741  0.74799  0.58843  1.0000
  H   H3066     1.0  0.79581  0.74337  0.55860  1.0000
  C   C1726     1.0  0.89774  0.79608  0.48176  1.0000
  C   C1727     1.0  0.49851  0.75253  0.71090  1.0000
  C   C1728     1.0  0.51681  0.74549  0.70539  1.0000
  H   H3067     1.0  0.50179  0.75767  0.80318  1.0000
  H   H3068     1.0  0.82560  0.74141  0.48880  1.0000
  H   H3069     1.0  0.49436  0.76005  0.77412  1.0000
  H   H3070     1.0  0.52655  0.74586  0.71288  1.0000
  H   H3071     1.0  0.93589  0.74496  0.59144  1.0000
  H   H3072     1.0  0.88220  0.73975  0.62008  1.0000
