data_image0
_chemical_formula_structural       HCH2CHFeS2FeS2FeSFeS3FeS2H2FeSCSHCSCH6C6H3C3HCH4C6H4C6H5NC9H14CH2C2HNH4NC2HC2H2C3H2SH9C2H20C2HC3H5CHCH2FeC3HCH6CH3SCH2CHC2SH4C2H2NSH2C2H4C2H5CH2CH3SH3CHCFeCH3FeCH2SH2SHCHCH2CH2CH3C3H3SH2CHSH2CHC3SHC2HCH5CHCHCH2CNCH2CH5C2HCHCH4C2HCH4C2H5S2HFeS2FeS2Fe3S3CSHFeSHFeSFeSHSFeHCFeS2FeCFeS3H2C3HSH3CH3C4HCHC2HC6H4C6H5CSH2C6H4CH7C4H10C2HC3H2CH6NC7H16CH2NC12H21CNSH3NCHCH2C2H3C2H2CH4CH4SH4CH6CHCHCH2C2SH17CHC3H4SFeNC2H2C2H2CH3CHCH4CHCH2CHCH2CH3CHFeC2H4C2H4CHCH6CH4CHSCHCHC3NH3CHC2HFeS2FeS2FeSFeS3FeS2FeS2FeS2FeS2FeHFeHS2HC6H4C3H3CH3FeHC9H4C6H7NHCHCHCH3NC12H17SH12CH2CHC2H3CSCH2CSH4CHC2H2C2H2SHC2HCHC2HC2H5C7HCHCH7CH10CHCNC5HC5H12CH12NC11H26CH2CH6NH2CH4C3H2CH2C2HCHCH4CHC2HCHCHCHCHSHCHCH6FeH4C2FeS2FeSHFeSFeS2C2H4CHCHC4HCHC2HCHSHCHC2H4CH3CH3CH4CHCHCH4NHCH4C2H2CH3CH3SC2H2FeSFeS2HCFeCS2FeS2FeS2FeCFeS3H2C2HCH3CHC2HC3H5CH2CFeH2C6H5C3H7SHCHSH2SC2SC2H6C2H7C2HCHNC12H11CH11C2H7C2HCHCH4CHCHNH2SCH2CH2CHCH2CNH3CHCSHCH4C2H2CHCH2NHC2H4CHC4H4CH4C2H2NH2CH2CFeSFe2SH2FeHC2HSHCHCSH4CH4C4H6SNCH2C3H2NH4CHCH4CH4C2H2CHCH4CSC2HCH3CHSHCH5FeH2CSH2FeH4C6SHCH3CHNH2SCH2C3H3C2H3CH4CHCSFeSCFeSFeS2FeS2FeS2FeSFeS3FeS2FeS2FeSFeS3FeC2HC3HCHC6H4C6H4C6H3C2HC2HCHC5HCH2C3H3CH2CHC5HCSH2NC9H21CHC2H2CNHCHCHC2H4FeCH3C3H2CHCH2NCH2CH2C4HC3SH2CNC12H16C3H11CSH5CH6CH8CH2C2HC3H4NHSCH4CH4C2HS2HCHCFeHC2H3C2H3FeH4C2H2CH5CHC3H9C2H3SHC2NHSHC2H3C2H2CH6CH3C2H9CH5CHNC2H3SCHCH5NCHCSH8FeH2FeC3H2S2HCHC2H2CH13CH3CNH3CH4CHNH3CH3CH7CHCH2CHFeHC3HCHCH2SH3CH3SCH3CHCH2CNC4HC3FeH2CH7SHCH8CH2CH2CHFeCS2HCH2CH2SCSH2CSHCH3FeHC3H2C2HCH2C6H5C2NH2CNC3H3C2SCH3C2H6FeH5SHCHSH15C3H4CHCFeS2FeS2FeSFeS3FeS2FeS2FeSFeS3FeS2FeS2FeSFeS2CHC6HNH2C6H8CH4C6H4C6H4CH6C4H4C4H9NC8H2C2H9SH8CH2CH7CHCH2SH2CHC4HC2HC2HCH2NHCH4CH2CH7C2H4CH3CH4C2H2CH2CH2CH2CHCH3C4H2CH14NCH2C3H3C2H2CHCH3CHC2HCHCHC3H2NCHCNCH3CHCHCH4FeC3H4CHCH3NC3H2C2HCH5NH7CH3CH4CHCH4CSH3CH2CHSC2H3CH3CH7CH2SFeHCH5C3HSH2CHC2HCHCHC3HFeHSHCHC2SHFeSH3CFeSFeH4CSH5C2HNHSCFeH2SCH4C2H2CHCH3CH4SH4SCHCH2CFeCHCH2FeHCHCHC2H3SH3NH3CHC2HSH3CH9C2H2CH4C2H2
_chemical_formula_sum              "H1536 C864 Fe96 S192 N48"
_cell_length_a       50.8798
_cell_length_b       51.0481
_cell_length_c       51.1447
_cell_angle_alpha    90.1158
_cell_angle_beta     89.8127
_cell_angle_gamma    90.1154

_space_group_name_H-M_alt    "P 1"
_space_group_IT_number       1

loop_
  _space_group_symop_operation_xyz
  'x, y, z'

loop_
  _atom_site_type_symbol
  _atom_site_label
  _atom_site_symmetry_multiplicity
  _atom_site_fract_x
  _atom_site_fract_y
  _atom_site_fract_z
  _atom_site_occupancy
  H   H1        1.0  0.14095  0.16423  0.40457  1.0000
  C   C1        1.0  0.28413  0.29534  0.34703  1.0000
  H   H2        1.0  0.45163  0.31106  0.28207  1.0000
  H   H3        1.0  0.04809  0.19271  0.42256  1.0000
  C   C2        1.0  0.36117  0.14986  0.21503  1.0000
  H   H4        1.0  0.08007  0.11126  0.44601  1.0000
  Fe  Fe1       1.0  0.40282  0.19078  0.28924  1.0000
  S   S1        1.0  0.43029  0.22515  0.29000  1.0000
  S   S2        1.0  0.40942  0.14998  0.27217  1.0000
  Fe  Fe2       1.0  0.36148  0.21935  0.32240  1.0000
  S   S3        1.0  0.38566  0.25588  0.32632  1.0000
  S   S4        1.0  0.31940  0.21470  0.33580  1.0000
  Fe  Fe3       1.0  0.39450  0.25017  0.28384  1.0000
  S   S5        1.0  0.39654  0.28728  0.26006  1.0000
  Fe  Fe4       1.0  0.41956  0.22857  0.33247  1.0000
  S   S6        1.0  0.45360  0.23630  0.35950  1.0000
  S   S7        1.0  0.36771  0.21558  0.27905  1.0000
  S   S8        1.0  0.39462  0.19221  0.33249  1.0000
  Fe  Fe5       1.0  0.23516  0.28367  0.43718  1.0000
  S   S9        1.0  0.20357  0.27001  0.40970  1.0000
  S   S10       1.0  0.27746  0.27010  0.43889  1.0000
  H   H5        1.0  0.07981  0.16338  0.40657  1.0000
  H   H6        1.0  0.46848  0.07646  0.27095  1.0000
  Fe  Fe6       1.0  0.17525  0.27663  0.44325  1.0000
  S   S11       1.0  0.13749  0.25256  0.44824  1.0000
  C   C3        1.0  0.36463  0.32761  0.24483  1.0000
  S   S12       1.0  0.20753  0.28645  0.47178  1.0000
  H   H7        1.0  0.45647  0.31931  0.37303  1.0000
  C   C4        1.0  0.12119  0.24225  0.47718  1.0000
  S   S13       1.0  0.48442  0.11318  0.17936  1.0000
  C   C5        1.0  0.05451  0.19128  0.44334  1.0000
  H   H8        1.0  0.40886  0.31200  0.48795  1.0000
  H   H9        1.0  0.34496  0.27133  0.48133  1.0000
  H   H10       1.0  0.08290  0.25135  0.46191  1.0000
  H   H11       1.0  0.48549  0.31553  0.31989  1.0000
  H   H12       1.0  0.20282  0.32456  0.25997  1.0000
  H   H13       1.0  0.27615  0.31409  0.31027  1.0000
  C   C6        1.0  0.44910  0.25945  0.38458  1.0000
  C   C7        1.0  0.47065  0.26693  0.39992  1.0000
  C   C8        1.0  0.46792  0.28638  0.41919  1.0000
  C   C9        1.0  0.44365  0.29856  0.42295  1.0000
  C   C10       1.0  0.42191  0.29060  0.40814  1.0000
  C   C11       1.0  0.42462  0.27107  0.38898  1.0000
  H   H14       1.0  0.11932  0.18206  0.38281  1.0000
  H   H15       1.0  0.34893  0.13600  0.26678  1.0000
  H   H16       1.0  0.40779  0.26504  0.37765  1.0000
  C   C12       1.0  0.36595  0.30116  0.25212  1.0000
  C   C13       1.0  0.34307  0.28594  0.25214  1.0000
  C   C14       1.0  0.31913  0.29693  0.24410  1.0000
  H   H17       1.0  0.01464  0.17990  0.45638  1.0000
  C   C15       1.0  0.09000  0.16441  0.42582  1.0000
  H   H18       1.0  0.21453  0.30208  0.30475  1.0000
  H   H19       1.0  0.34395  0.26554  0.25764  1.0000
  H   H20       1.0  0.30165  0.28491  0.24330  1.0000
  H   H21       1.0  0.40302  0.29976  0.41122  1.0000
  C   C16       1.0  0.30882  0.22933  0.36524  1.0000
  C   C17       1.0  0.28243  0.22648  0.37266  1.0000
  C   C18       1.0  0.27266  0.23920  0.39502  1.0000
  C   C19       1.0  0.28941  0.25428  0.41058  1.0000
  C   C20       1.0  0.31607  0.25649  0.40367  1.0000
  C   C21       1.0  0.32572  0.24431  0.38084  1.0000
  H   H22       1.0  0.26939  0.21463  0.36085  1.0000
  H   H23       1.0  0.25224  0.23696  0.40049  1.0000
  H   H24       1.0  0.32921  0.26780  0.41584  1.0000
  H   H25       1.0  0.34616  0.24641  0.37538  1.0000
  C   C22       1.0  0.46513  0.12264  0.20664  1.0000
  C   C23       1.0  0.44829  0.10501  0.21919  1.0000
  C   C24       1.0  0.43185  0.11366  0.23964  1.0000
  C   C25       1.0  0.43195  0.14001  0.24766  1.0000
  C   C26       1.0  0.44888  0.15767  0.23521  1.0000
  C   C27       1.0  0.46531  0.14900  0.21471  1.0000
  H   H26       1.0  0.44739  0.08486  0.21265  1.0000
  H   H27       1.0  0.41861  0.09993  0.24899  1.0000
  H   H28       1.0  0.44903  0.17804  0.24109  1.0000
  H   H29       1.0  0.45904  0.01224  0.10001  1.0000
  H   H30       1.0  0.32077  0.16326  0.22121  1.0000
  N   N1        1.0  0.37343  0.16948  0.19655  1.0000
  C   C28       1.0  0.38571  0.19134  0.21230  1.0000
  C   C29       1.0  0.39535  0.15562  0.18205  1.0000
  C   C30       1.0  0.35354  0.17923  0.17693  1.0000
  C   C31       1.0  0.33746  0.20399  0.18460  1.0000
  C   C32       1.0  0.40375  0.21034  0.19679  1.0000
  C   C33       1.0  0.38766  0.13017  0.16726  1.0000
  C   C34       1.0  0.31520  0.20892  0.16525  1.0000
  C   C35       1.0  0.40872  0.23563  0.21203  1.0000
  C   C36       1.0  0.46484  0.30935  0.32339  1.0000
  H   H31       1.0  0.37060  0.20323  0.22240  1.0000
  H   H32       1.0  0.41141  0.15035  0.19578  1.0000
  H   H33       1.0  0.40446  0.16890  0.16733  1.0000
  H   H34       1.0  0.36331  0.18415  0.15802  1.0000
  H   H35       1.0  0.33937  0.16331  0.17206  1.0000
  H   H36       1.0  0.35027  0.22163  0.18449  1.0000
  H   H37       1.0  0.32868  0.20247  0.20434  1.0000
  H   H38       1.0  0.42314  0.20095  0.19318  1.0000
  H   H39       1.0  0.39508  0.21548  0.17760  1.0000
  H   H40       1.0  0.36986  0.13316  0.15516  1.0000
  H   H41       1.0  0.38385  0.11407  0.18136  1.0000
  H   H42       1.0  0.30100  0.19236  0.16543  1.0000
  H   H43       1.0  0.30454  0.22707  0.17087  1.0000
  H   H44       1.0  0.32314  0.21149  0.14515  1.0000
  C   C37       1.0  0.05068  0.14356  0.44621  1.0000
  H   H45       1.0  0.40219  0.27124  0.46194  1.0000
  H   H46       1.0  0.41166  0.32471  0.31382  1.0000
  C   C38       1.0  0.04160  0.09484  0.44163  1.0000
  C   C39       1.0  0.33179  0.13955  0.25384  1.0000
  H   H47       1.0  0.03428  0.14801  0.43249  1.0000
  N   N2        1.0  0.06983  0.16627  0.44751  1.0000
  H   H48       1.0  0.48322  0.06922  0.23991  1.0000
  H   H49       1.0  0.12224  0.18829  0.44251  1.0000
  H   H50       1.0  0.99910  0.22384  0.46803  1.0000
  H   H51       1.0  0.34974  0.31286  0.40723  1.0000
  N   N3        1.0  0.25022  0.28047  0.31217  1.0000
  C   C40       1.0  0.23038  0.29192  0.29357  1.0000
  C   C41       1.0  0.23558  0.26593  0.33338  1.0000
  H   H52       1.0  0.31607  0.31175  0.36943  1.0000
  C   C42       1.0  0.27024  0.26299  0.29889  1.0000
  C   C43       1.0  0.26119  0.24743  0.27440  1.0000
  H   H53       1.0  0.11477  0.30712  0.45777  1.0000
  H   H54       1.0  0.36871  0.30960  0.34912  1.0000
  C   C44       1.0  0.21972  0.24150  0.32488  1.0000
  C   C45       1.0  0.20333  0.23084  0.34762  1.0000
  C   C46       1.0  0.28195  0.22734  0.26622  1.0000
  H   H55       1.0  0.47581  0.15102  0.30875  1.0000
  H   H56       1.0  0.32565  0.12077  0.24469  1.0000
  S   S14       1.0  0.16805  0.31856  0.43198  1.0000
  H   H57       1.0  0.22004  0.27638  0.28249  1.0000
  H   H58       1.0  0.24928  0.25874  0.34844  1.0000
  H   H59       1.0  0.22204  0.27952  0.34385  1.0000
  H   H60       1.0  0.44093  0.03161  0.07692  1.0000
  H   H61       1.0  0.00280  0.07907  0.49050  1.0000
  H   H62       1.0  0.28769  0.27457  0.29240  1.0000
  H   H63       1.0  0.27818  0.24863  0.31320  1.0000
  H   H64       1.0  0.25820  0.26086  0.25765  1.0000
  H   H65       1.0  0.24252  0.23685  0.27773  1.0000
  C   C47       1.0  0.08269  0.16777  0.47402  1.0000
  C   C48       1.0  0.26458  0.30297  0.32508  1.0000
  H   H66       1.0  0.29639  0.27835  0.34129  1.0000
  H   H67       1.0  0.48404  0.16592  0.27773  1.0000
  H   H68       1.0  0.20598  0.24594  0.30874  1.0000
  H   H69       1.0  0.23338  0.22569  0.31877  1.0000
  H   H70       1.0  0.18872  0.24565  0.35416  1.0000
  H   H71       1.0  0.19258  0.21299  0.34128  1.0000
  H   H72       1.0  0.21616  0.22560  0.36434  1.0000
  H   H73       1.0  0.28482  0.21263  0.28195  1.0000
  H   H74       1.0  0.27550  0.21700  0.24823  1.0000
  H   H75       1.0  0.30104  0.23715  0.26216  1.0000
  H   H76       1.0  0.06716  0.20860  0.44691  1.0000
  H   H77       1.0  0.42800  0.11725  0.16081  1.0000
  H   H78       1.0  0.04902  0.07614  0.43333  1.0000
  H   H79       1.0  0.41869  0.30225  0.33934  1.0000
  H   H80       1.0  0.39003  0.24641  0.21530  1.0000
  H   H81       1.0  0.43676  0.28543  0.30112  1.0000
  H   H82       1.0  0.39778  0.18314  0.22842  1.0000
  H   H83       1.0  0.35240  0.13321  0.20407  1.0000
  H   H84       1.0  0.46585  0.29330  0.33817  1.0000
  H   H85       1.0  0.37669  0.14113  0.22762  1.0000
  C   C49       1.0  0.06141  0.11677  0.43651  1.0000
  C   C50       1.0  0.02957  0.19511  0.46059  1.0000
  H   H86       1.0  0.09520  0.18550  0.47548  1.0000
  C   C51       1.0  0.33874  0.15983  0.23296  1.0000
  C   C52       1.0  0.40174  0.27091  0.48361  1.0000
  C   C53       1.0  0.46007  0.02195  0.08070  1.0000
  H   H87       1.0  0.14413  0.19923  0.40123  1.0000
  H   H88       1.0  0.21813  0.29926  0.24015  1.0000
  H   H89       1.0  0.47921  0.26132  0.30177  1.0000
  H   H90       1.0  0.47805  0.16285  0.20485  1.0000
  H   H91       1.0  0.41781  0.23128  0.23125  1.0000
  C   C54       1.0  0.47338  0.03564  0.26290  1.0000
  H   H92       1.0  0.40415  0.10242  0.13948  1.0000
  C   C55       1.0  0.30267  0.31788  0.35352  1.0000
  H   H93       1.0  0.34406  0.17803  0.24338  1.0000
  H   H94       1.0  0.45361  0.03398  0.25386  1.0000
  Fe  Fe7       1.0  0.19863  0.31279  0.40089  1.0000
  C   C56       1.0  0.42005  0.32335  0.33390  1.0000
  C   C57       1.0  0.12984  0.18273  0.40180  1.0000
  C   C58       1.0  0.01668  0.22159  0.45528  1.0000
  H   H95       1.0  0.01031  0.22286  0.43457  1.0000
  C   C59       1.0  0.33986  0.32313  0.44752  1.0000
  H   H96       1.0  0.31536  0.14697  0.26614  1.0000
  H   H97       1.0  0.03422  0.19431  0.48170  1.0000
  H   H98       1.0  0.10151  0.14606  0.42715  1.0000
  H   H99       1.0  0.02236  0.09940  0.43248  1.0000
  H   H100      1.0  0.11407  0.13861  0.46729  1.0000
  H   H101      1.0  0.36780  0.29223  0.44847  1.0000
  C   C60       1.0  0.40990  0.12097  0.14932  1.0000
  H   H102      1.0  0.10093  0.20621  0.42091  1.0000
  H   H103      1.0  0.31463  0.32325  0.33613  1.0000
  H   H104      1.0  0.06775  0.17029  0.48965  1.0000
  S   S15       1.0  0.23189  0.32605  0.42617  1.0000
  C   C61       1.0  0.11050  0.18702  0.42432  1.0000
  H   H105      1.0  0.48471  0.29227  0.43075  1.0000
  H   H106      1.0  0.04108  0.14064  0.46565  1.0000
  C   C62       1.0  0.36541  0.31131  0.45871  1.0000
  H   H107      1.0  0.26000  0.30503  0.26483  1.0000
  C   C63       1.0  0.47552  0.27697  0.28714  1.0000
  C   C64       1.0  0.46593  0.00207  0.05912  1.0000
  S   S16       1.0  0.19313  0.32448  0.35872  1.0000
  H   H108      1.0  0.42228  0.24852  0.20086  1.0000
  H   H109      1.0  0.48959  0.25783  0.39671  1.0000
  H   H110      1.0  0.46797  0.26774  0.26896  1.0000
  H   H111      1.0  0.06500  0.11762  0.41507  1.0000
  C   C65       1.0  0.09357  0.24265  0.47796  1.0000
  C   C66       1.0  0.45526  0.29644  0.29761  1.0000
  H   H112      1.0  0.44399  0.27782  0.48530  1.0000
  H   H113      1.0  0.41424  0.13585  0.13408  1.0000
  N   N4        1.0  0.36642  0.30755  0.48795  1.0000
  S   S17       1.0  0.44020  0.32484  0.44481  1.0000
  H   H114      1.0  0.48967  0.11906  0.26438  1.0000
  H   H115      1.0  0.03051  0.23789  0.45957  1.0000
  C   C67       1.0  0.10389  0.31711  0.47378  1.0000
  C   C68       1.0  0.22170  0.31732  0.25175  1.0000
  H   H116      1.0  0.09212  0.30234  0.48453  1.0000
  H   H117      1.0  0.27326  0.29042  0.36526  1.0000
  H   H118      1.0  0.25032  0.31719  0.33361  1.0000
  H   H119      1.0  0.46720  0.01341  0.04080  1.0000
  C   C69       1.0  0.31779  0.32336  0.23681  1.0000
  C   C70       1.0  0.24137  0.31202  0.27362  1.0000
  H   H120      1.0  0.38804  0.25524  0.49002  1.0000
  H   H121      1.0  0.30977  0.30789  0.48870  1.0000
  H   H122      1.0  0.49430  0.28707  0.28246  1.0000
  H   H123      1.0  0.38238  0.32336  0.45201  1.0000
  H   H124      1.0  0.03874  0.09229  0.46299  1.0000
  C   C71       1.0  0.09926  0.14386  0.48231  1.0000
  H   H125      1.0  0.47567  0.03722  0.08126  1.0000
  H   H126      1.0  0.43459  0.24386  0.48442  1.0000
  C   C72       1.0  0.48311  0.06391  0.26082  1.0000
  H   H127      1.0  0.29921  0.25995  0.49189  1.0000
  H   H128      1.0  0.47185  0.02962  0.28371  1.0000
  H   H129      1.0  0.32382  0.30842  0.44855  1.0000
  S   S18       1.0  0.49147  0.04362  0.14024  1.0000
  H   H130      1.0  0.49088  0.10522  0.29622  1.0000
  H   H131      1.0  0.08615  0.12686  0.48608  1.0000
  H   H132      1.0  0.48689  0.02210  0.25241  1.0000
  C   C73       1.0  0.49203  0.15952  0.29684  1.0000
  H   H133      1.0  0.14484  0.29463  0.49301  1.0000
  C   C74       1.0  0.42934  0.26336  0.49255  1.0000
  Fe  Fe8       1.0  0.03750  0.18253  0.54686  1.0000
  C   C75       1.0  0.30067  0.27266  0.50948  1.0000
  H   H134      1.0  0.02174  0.30038  0.75843  1.0000
  H   H135      1.0  0.14537  0.32525  0.57097  1.0000
  H   H136      1.0  0.00294  0.01351  0.54413  1.0000
  Fe  Fe9       1.0  0.01708  0.12955  0.56700  1.0000
  C   C76       1.0  0.10531  0.28268  0.56275  1.0000
  H   H137      1.0  0.10014  0.15466  0.52365  1.0000
  H   H138      1.0  0.35428  0.27649  0.51439  1.0000
  S   S19       1.0  0.02782  0.08892  0.58033  1.0000
  H   H139      1.0  0.01055  0.32601  0.79740  1.0000
  H   H140      1.0  0.11541  0.26362  0.56566  1.0000
  S   S20       1.0  0.02108  0.16908  0.58593  1.0000
  H   H141      1.0  0.03313  0.27319  0.88262  1.0000
  C   C77       1.0  0.34694  0.28679  0.49665  1.0000
  H   H142      1.0  0.05839  0.23210  0.49956  1.0000
  C   C78       1.0  0.01443  0.09046  0.63264  1.0000
  H   H143      1.0  0.01077  0.29115  0.80444  1.0000
  H   H144      1.0  0.06897  0.26467  0.54879  1.0000
  C   C79       1.0  0.20742  0.27374  0.54650  1.0000
  H   H145      1.0  0.15852  0.26950  0.52890  1.0000
  H   H146      1.0  0.00600  0.00571  0.73766  1.0000
  C   C80       1.0  0.15967  0.28717  0.54165  1.0000
  H   H147      1.0  0.19147  0.31057  0.55870  1.0000
  H   H148      1.0  0.19464  0.30636  0.52386  1.0000
  H   H149      1.0  0.16299  0.32228  0.50143  1.0000
  C   C81       1.0  0.11262  0.29406  0.53555  1.0000
  C   C82       1.0  0.00548  0.05015  0.60936  1.0000
  C   C83       1.0  0.14358  0.31309  0.50469  1.0000
  H   H150      1.0  0.30804  0.26090  0.52616  1.0000
  H   H151      1.0  0.43033  0.26239  0.51422  1.0000
  H   H152      1.0  0.00731  0.31288  0.87481  1.0000
  S   S21       1.0  0.07652  0.20513  0.54651  1.0000
  H   H153      1.0  0.13153  0.21177  0.53553  1.0000
  H   H154      1.0  0.09689  0.30818  0.53033  1.0000
  C   C84       1.0  0.39365  0.29805  0.49489  1.0000
  H   H155      1.0  0.39592  0.29723  0.51657  1.0000
  S   S22       1.0  0.48853  0.31448  0.50540  1.0000
  H   H156      1.0  0.07142  0.26745  0.58376  1.0000
  H   H157      1.0  0.04308  0.00715  0.69661  1.0000
  C   C85       1.0  0.01035  0.07067  0.50902  1.0000
  H   H158      1.0  0.20593  0.25945  0.53013  1.0000
  C   C86       1.0  0.12083  0.22047  0.51950  1.0000
  C   C87       1.0  0.09318  0.21983  0.51971  1.0000
  C   C88       1.0  0.05346  0.99591  0.64810  1.0000
  S   S23       1.0  0.03611  0.14214  0.52947  1.0000
  H   H159      1.0  0.22796  0.28115  0.54721  1.0000
  C   C89       1.0  0.18862  0.29664  0.54223  1.0000
  C   C90       1.0  0.00682  0.07833  0.65618  1.0000
  H   H160      1.0  0.15573  0.28019  0.56183  1.0000
  C   C91       1.0  0.11406  0.14940  0.50770  1.0000
  H   H161      1.0  0.31948  0.30785  0.52244  1.0000
  H   H162      1.0  0.47303  0.29119  0.65433  1.0000
  H   H163      1.0  0.15498  0.99626  0.66974  1.0000
  H   H164      1.0  0.01188  0.25420  0.86175  1.0000
  H   H165      1.0  0.13635  0.01869  0.68973  1.0000
  C   C92       1.0  0.07577  0.27749  0.56499  1.0000
  H   H166      1.0  0.02342  0.08531  0.51845  1.0000
  C   C93       1.0  0.01422  0.07617  0.60927  1.0000
  H   H167      1.0  0.20296  0.26365  0.56522  1.0000
  C   C94       1.0  0.13479  0.23131  0.49820  1.0000
  H   H168      1.0  0.08775  0.00880  0.69774  1.0000
  H   H169      1.0  0.03276  0.02895  0.73779  1.0000
  C   C95       1.0  0.99846  0.05211  0.65625  1.0000
  N   N5        1.0  0.13931  0.30693  0.53326  1.0000
  C   C96       1.0  0.02633  0.00927  0.74455  1.0000
  H   H170      1.0  0.12830  0.16568  0.50490  1.0000
  H   H171      1.0  0.02207  0.05284  0.50476  1.0000
  C   C97       1.0  0.00499  0.29635  0.86085  1.0000
  H   H172      1.0  0.04827  0.01151  0.60904  1.0000
  H   H173      1.0  0.47524  0.30221  0.60689  1.0000
  H   H174      1.0  0.01924  0.29943  0.84481  1.0000
  H   H175      1.0  0.28065  0.27988  0.51435  1.0000
  H   H176      1.0  0.12508  0.13168  0.51373  1.0000
  C   C98       1.0  0.01272  0.27130  0.87520  1.0000
  C   C99       1.0  0.13957  0.99765  0.68511  1.0000
  H   H177      1.0  0.11084  0.27770  0.52124  1.0000
  C   C100      1.0  0.00100  0.30107  0.76522  1.0000
  H   H178      1.0  0.02157  0.11044  0.63273  1.0000
  C   C101      1.0  0.07961  0.23156  0.49911  1.0000
  H   H179      1.0  0.11099  0.29617  0.57880  1.0000
  H   H180      1.0  0.06464  0.29618  0.56448  1.0000
  H   H181      1.0  0.06716  0.01194  0.65350  1.0000
  H   H182      1.0  0.15603  0.23049  0.49769  1.0000
  C   C102      1.0  0.47848  0.31119  0.64768  1.0000
  C   C103      1.0  0.00009  0.30715  0.79451  1.0000
  H   H183      1.0  0.48520  0.25926  0.53071  1.0000
  C   C104      1.0  0.99702  0.03834  0.63265  1.0000
  H   H184      1.0  0.03337  0.00213  0.65379  1.0000
  H   H185      1.0  0.00796  0.08908  0.67438  1.0000
  H   H186      1.0  0.00587  0.03889  0.59146  1.0000
  H   H187      1.0  0.02634  0.00909  0.76626  1.0000
  C   C105      1.0  0.31884  0.29596  0.50422  1.0000
  C   C106      1.0  0.49037  0.31031  0.62023  1.0000
  H   H188      1.0  0.99940  0.26781  0.89210  1.0000
  H   H189      1.0  0.10864  0.99520  0.65698  1.0000
  H   H190      1.0  0.49308  0.28536  0.57133  1.0000
  H   H191      1.0  0.49260  0.32000  0.66172  1.0000
  H   H192      1.0  0.46044  0.32344  0.64749  1.0000
  S   S24       1.0  0.99787  0.19370  0.53063  1.0000
  S   S25       1.0  0.46997  0.53244  0.38104  1.0000
  H   H193      1.0  0.36196  0.46124  0.35908  1.0000
  Fe  Fe10      1.0  0.30612  0.43443  0.23133  1.0000
  S   S26       1.0  0.28976  0.40998  0.19855  1.0000
  S   S27       1.0  0.34623  0.45305  0.22723  1.0000
  Fe  Fe11      1.0  0.26200  0.42013  0.26864  1.0000
  S   S28       1.0  0.24190  0.39501  0.23880  1.0000
  S   S29       1.0  0.25167  0.42360  0.31158  1.0000
  Fe  Fe12      1.0  0.28220  0.37991  0.22957  1.0000
  Fe  Fe13      1.0  0.20192  0.32788  0.45828  1.0000
  Fe  Fe14      1.0  0.25069  0.42742  0.21013  1.0000
  S   S30       1.0  0.21886  0.43441  0.17939  1.0000
  S   S31       1.0  0.30170  0.40280  0.26127  1.0000
  S   S32       1.0  0.26776  0.45414  0.24104  1.0000
  C   C107      1.0  0.42271  0.45099  0.47846  1.0000
  S   S33       1.0  0.16723  0.56715  0.04376  1.0000
  H   H194      1.0  0.29118  0.33507  0.36012  1.0000
  Fe  Fe15      1.0  0.12474  0.50708  0.02911  1.0000
  S   S34       1.0  0.12188  0.52857  0.06759  1.0000
  H   H195      1.0  0.41374  0.42588  0.39298  1.0000
  Fe  Fe16      1.0  0.12331  0.56436  0.04222  1.0000
  S   S35       1.0  0.10138  0.60201  0.04940  1.0000
  Fe  Fe17      1.0  0.16613  0.52930  0.06625  1.0000
  S   S36       1.0  0.19358  0.52863  0.10158  1.0000
  H   H196      1.0  0.28388  0.44271  0.47544  1.0000
  S   S37       1.0  0.16895  0.50496  0.02972  1.0000
  Fe  Fe18      1.0  0.45080  0.49963  0.35917  1.0000
  H   H197      1.0  0.45513  0.62159  0.26161  1.0000
  C   C108      1.0  0.48954  0.41363  0.42253  1.0000
  Fe  Fe19      1.0  0.41004  0.53607  0.33581  1.0000
  S   S38       1.0  0.42593  0.57159  0.35673  1.0000
  S   S39       1.0  0.37385  0.54018  0.31100  1.0000
  Fe  Fe20      1.0  0.46557  0.55632  0.34423  1.0000
  C   C109      1.0  0.40110  0.33731  0.35332  1.0000
  Fe  Fe21      1.0  0.42868  0.54424  0.39123  1.0000
  S   S40       1.0  0.41958  0.55210  0.43388  1.0000
  S   S41       1.0  0.44921  0.52213  0.32151  1.0000
  S   S42       1.0  0.40984  0.51021  0.37108  1.0000
  H   H198      1.0  0.37907  0.63595  0.30760  1.0000
  H   H199      1.0  0.01270  0.46471  0.01832  1.0000
  C   C110      1.0  0.48535  0.62639  0.31087  1.0000
  C   C111      1.0  0.49098  0.46609  0.40687  1.0000
  C   C112      1.0  0.39276  0.53558  0.44873  1.0000
  H   H200      1.0  0.46471  0.52120  0.26469  1.0000
  S   S43       1.0  0.10165  0.47007  0.02221  1.0000
  H   H201      1.0  0.39794  0.45717  0.39078  1.0000
  H   H202      1.0  0.11366  0.63478  0.14685  1.0000
  H   H203      1.0  0.38276  0.60476  0.32402  1.0000
  C   C113      1.0  0.00504  0.47879  0.03307  1.0000
  H   H204      1.0  0.48659  0.36936  0.35688  1.0000
  H   H205      1.0  0.47978  0.35588  0.40522  1.0000
  H   H206      1.0  0.45925  0.48821  0.45553  1.0000
  C   C114      1.0  0.05237  0.57931  0.04479  1.0000
  C   C115      1.0  0.06718  0.60243  0.04486  1.0000
  C   C116      1.0  0.05448  0.62660  0.04212  1.0000
  C   C117      1.0  0.02723  0.62769  0.03821  1.0000
  H   H207      1.0  0.06202  0.56062  0.04730  1.0000
  C   C118      1.0  0.35078  0.51278  0.44634  1.0000
  H   H208      1.0  0.42954  0.60305  0.30949  1.0000
  C   C119      1.0  0.29431  0.41237  0.44855  1.0000
  C   C120      1.0  0.34052  0.33878  0.23749  1.0000
  H   H209      1.0  0.06826  0.42738  0.01119  1.0000
  C   C121      1.0  0.21248  0.46090  0.15790  1.0000
  C   C122      1.0  0.19648  0.45650  0.13593  1.0000
  C   C123      1.0  0.19063  0.47691  0.11838  1.0000
  C   C124      1.0  0.20056  0.50207  0.12276  1.0000
  C   C125      1.0  0.21647  0.50655  0.14480  1.0000
  C   C126      1.0  0.22238  0.48610  0.16230  1.0000
  H   H210      1.0  0.18852  0.43712  0.13248  1.0000
  H   H211      1.0  0.17826  0.47321  0.10159  1.0000
  H   H212      1.0  0.22404  0.52601  0.14850  1.0000
  H   H213      1.0  0.23408  0.48992  0.17947  1.0000
  C   C127      1.0  0.35378  0.47687  0.25096  1.0000
  C   C128      1.0  0.33429  0.49347  0.26076  1.0000
  C   C129      1.0  0.34083  0.51303  0.27893  1.0000
  C   C130      1.0  0.36653  0.51523  0.28843  1.0000
  C   C131      1.0  0.38597  0.49827  0.27906  1.0000
  C   C132      1.0  0.37970  0.47949  0.25992  1.0000
  H   H214      1.0  0.31429  0.49168  0.25390  1.0000
  H   H215      1.0  0.32584  0.52641  0.28582  1.0000
  H   H216      1.0  0.40591  0.50002  0.28609  1.0000
  H   H217      1.0  0.39483  0.46668  0.25232  1.0000
  H   H218      1.0  0.14461  0.60529  0.08559  1.0000
  C   C133      1.0  0.15298  0.58567  0.12259  1.0000
  S   S44       1.0  0.19866  0.36207  0.48593  1.0000
  H   H219      1.0  0.17508  0.40020  0.40841  1.0000
  H   H220      1.0  0.22967  0.39956  0.45601  1.0000
  C   C134      1.0  0.23503  0.39632  0.32476  1.0000
  C   C135      1.0  0.22054  0.37949  0.30875  1.0000
  C   C136      1.0  0.20728  0.35794  0.31957  1.0000
  C   C137      1.0  0.20915  0.35249  0.34633  1.0000
  C   C138      1.0  0.22390  0.36914  0.36238  1.0000
  C   C139      1.0  0.23623  0.39140  0.35170  1.0000
  H   H221      1.0  0.21886  0.38344  0.28812  1.0000
  H   H222      1.0  0.22564  0.36497  0.38294  1.0000
  H   H223      1.0  0.24687  0.40472  0.36424  1.0000
  H   H224      1.0  0.33965  0.35906  0.23146  1.0000
  C   C140      1.0  0.23085  0.45061  0.46989  1.0000
  H   H225      1.0  0.13363  0.34627  0.47974  1.0000
  H   H226      1.0  0.10262  0.63469  0.19422  1.0000
  H   H227      1.0  0.25738  0.51082  0.07172  1.0000
  H   H228      1.0  0.15948  0.50201  0.17202  1.0000
  H   H229      1.0  0.49235  0.47692  0.48679  1.0000
  H   H230      1.0  0.24477  0.39026  0.12620  1.0000
  H   H231      1.0  0.45489  0.60946  0.22931  1.0000
  C   C141      1.0  0.15563  0.60942  0.10383  1.0000
  C   C142      1.0  0.18433  0.61427  0.09629  1.0000
  C   C143      1.0  0.25670  0.45447  0.42863  1.0000
  C   C144      1.0  0.39295  0.43204  0.35650  1.0000
  H   H232      1.0  0.38126  0.55675  0.25108  1.0000
  H   H233      1.0  0.39476  0.58282  0.28235  1.0000
  H   H234      1.0  0.47855  0.57502  0.24171  1.0000
  H   H235      1.0  0.41842  0.38026  0.32000  1.0000
  H   H236      1.0  0.40331  0.35879  0.35333  1.0000
  H   H237      1.0  0.03595  0.59735  0.12373  1.0000
  H   H238      1.0  0.41004  0.53917  0.24058  1.0000
  H   H239      1.0  0.22971  0.33256  0.23844  1.0000
  H   H240      1.0  0.36042  0.49750  0.08407  1.0000
  H   H241      1.0  0.46447  0.44155  0.48004  1.0000
  C   C145      1.0  0.39578  0.43605  0.38606  1.0000
  C   C146      1.0  0.47657  0.42151  0.39963  1.0000
  H   H242      1.0  0.19337  0.59614  0.08826  1.0000
  C   C147      1.0  0.45073  0.40410  0.30797  1.0000
  C   C148      1.0  0.29873  0.38952  0.38248  1.0000
  C   C149      1.0  0.41558  0.61542  0.29855  1.0000
  H   H243      1.0  0.42570  0.63380  0.29288  1.0000
  H   H244      1.0  0.39575  0.54322  0.19426  1.0000
  C   C150      1.0  0.01232  0.60469  0.03865  1.0000
  H   H245      1.0  0.40661  0.54325  0.48764  1.0000
  H   H246      1.0  0.43132  0.55598  0.27526  1.0000
  H   H247      1.0  0.24731  0.40199  0.42627  1.0000
  H   H248      1.0  0.01665  0.52738  0.01219  1.0000
  H   H249      1.0  0.37988  0.36067  0.47456  1.0000
  H   H250      1.0  0.44523  0.35066  0.29586  1.0000
  N   N6        1.0  0.34582  0.42872  0.33689  1.0000
  C   C151      1.0  0.32519  0.44575  0.32418  1.0000
  C   C152      1.0  0.33529  0.41541  0.36098  1.0000
  C   C153      1.0  0.35418  0.40794  0.31751  1.0000
  C   C154      1.0  0.37048  0.41781  0.29389  1.0000
  C   C155      1.0  0.31165  0.39674  0.35649  1.0000
  C   C156      1.0  0.30877  0.46327  0.34295  1.0000
  C   C157      1.0  0.29251  0.48331  0.32793  1.0000
  H   H251      1.0  0.25943  0.47733  0.48915  1.0000
  H   H252      1.0  0.33446  0.45886  0.30937  1.0000
  H   H253      1.0  0.31094  0.43377  0.31276  1.0000
  H   H254      1.0  0.33006  0.43017  0.37620  1.0000
  H   H255      1.0  0.35080  0.40317  0.37011  1.0000
  H   H256      1.0  0.36534  0.39198  0.32713  1.0000
  H   H257      1.0  0.33656  0.39786  0.30936  1.0000
  H   H258      1.0  0.35944  0.43306  0.28325  1.0000
  H   H259      1.0  0.31841  0.37839  0.34689  1.0000
  H   H260      1.0  0.29645  0.40562  0.34389  1.0000
  H   H261      1.0  0.29487  0.45104  0.35447  1.0000
  H   H262      1.0  0.32141  0.47424  0.35677  1.0000
  H   H263      1.0  0.30557  0.49807  0.31874  1.0000
  H   H264      1.0  0.28057  0.47364  0.31252  1.0000
  H   H265      1.0  0.27901  0.49362  0.34158  1.0000
  H   H266      1.0  0.35778  0.38734  0.26680  1.0000
  C   C158      1.0  0.41909  0.42904  0.45842  1.0000
  H   H267      1.0  0.48820  0.54421  0.27839  1.0000
  H   H268      1.0  0.29379  0.48240  0.39823  1.0000
  N   N7        1.0  0.29964  0.46568  0.12700  1.0000
  C   C159      1.0  0.32814  0.47164  0.12112  1.0000
  C   C160      1.0  0.29444  0.47158  0.15552  1.0000
  C   C161      1.0  0.29560  0.43658  0.12298  1.0000
  C   C162      1.0  0.28076  0.48042  0.10960  1.0000
  C   C163      1.0  0.28949  0.50797  0.09993  1.0000
  C   C164      1.0  0.33825  0.46225  0.09400  1.0000
  C   C165      1.0  0.26782  0.42582  0.12950  1.0000
  C   C166      1.0  0.29692  0.50062  0.16405  1.0000
  C   C167      1.0  0.29484  0.50346  0.19372  1.0000
  C   C168      1.0  0.26663  0.52267  0.08746  1.0000
  C   C169      1.0  0.36376  0.47611  0.08628  1.0000
  C   C170      1.0  0.00259  0.51579  0.00009  1.0000
  H   H269      1.0  0.34102  0.46237  0.13611  1.0000
  H   H270      1.0  0.33231  0.49287  0.12284  1.0000
  H   H271      1.0  0.27416  0.46580  0.16114  1.0000
  H   H272      1.0  0.30773  0.45965  0.16807  1.0000
  H   H273      1.0  0.31002  0.42523  0.13482  1.0000
  H   H274      1.0  0.29924  0.43117  0.10221  1.0000
  H   H275      1.0  0.27635  0.46897  0.09155  1.0000
  H   H276      1.0  0.26138  0.48251  0.11959  1.0000
  H   H277      1.0  0.30515  0.50612  0.08490  1.0000
  H   H278      1.0  0.29729  0.52039  0.11584  1.0000
  H   H279      1.0  0.19549  0.34550  0.30710  1.0000
  H   H280      1.0  0.32349  0.46562  0.07846  1.0000
  H   H281      1.0  0.25214  0.43764  0.12024  1.0000
  H   H282      1.0  0.26469  0.42580  0.15086  1.0000
  H   H283      1.0  0.31602  0.50926  0.15822  1.0000
  H   H284      1.0  0.28066  0.51221  0.15545  1.0000
  H   H285      1.0  0.29644  0.52444  0.19929  1.0000
  H   H286      1.0  0.27565  0.49593  0.20086  1.0000
  H   H287      1.0  0.31094  0.49259  0.20345  1.0000
  H   H288      1.0  0.25157  0.52742  0.10246  1.0000
  H   H289      1.0  0.27376  0.54136  0.07887  1.0000
  C   C171      1.0  0.14675  0.54043  0.15902  1.0000
  N   N8        1.0  0.24936  0.43674  0.45104  1.0000
  S   S45       1.0  0.32056  0.49882  0.48875  1.0000
  H   H290      1.0  0.17557  0.45166  0.00528  1.0000
  H   H291      1.0  0.47364  0.53178  0.44250  1.0000
  H   H292      1.0  0.48526  0.53903  0.47489  1.0000
  N   N9        1.0  0.12721  0.58209  0.13706  1.0000
  C   C172      1.0  0.10433  0.58977  0.11992  1.0000
  H   H293      1.0  0.15687  0.56838  0.10985  1.0000
  C   C173      1.0  0.12422  0.55321  0.14304  1.0000
  H   H294      1.0  0.14709  0.54822  0.17928  1.0000
  H   H295      1.0  0.49182  0.48630  0.40097  1.0000
  C   C174      1.0  0.07677  0.58928  0.13311  1.0000
  C   C175      1.0  0.27328  0.42663  0.46529  1.0000
  H   H296      1.0  0.40566  0.45033  0.49212  1.0000
  H   H297      1.0  0.16965  0.58640  0.13664  1.0000
  H   H298      1.0  0.47202  0.40684  0.31193  1.0000
  C   C176      1.0  0.05522  0.59606  0.11355  1.0000
  C   C177      1.0  0.14298  0.51077  0.16087  1.0000
  H   H299      1.0  0.10372  0.57692  0.10227  1.0000
  H   H300      1.0  0.10663  0.60984  0.11199  1.0000
  C   C178      1.0  0.37255  0.52446  0.43387  1.0000
  H   H301      1.0  0.12427  0.50596  0.17105  1.0000
  H   H302      1.0  0.12219  0.54188  0.12449  1.0000
  H   H303      1.0  0.10600  0.54934  0.15438  1.0000
  H   H304      1.0  0.39982  0.43132  0.44855  1.0000
  C   C179      1.0  0.39126  0.53431  0.47611  1.0000
  H   H305      1.0  0.35811  0.34613  0.41646  1.0000
  H   H306      1.0  0.28637  0.39407  0.43996  1.0000
  H   H307      1.0  0.07190  0.56973  0.14113  1.0000
  H   H308      1.0  0.07574  0.60388  0.14918  1.0000
  S   S46       1.0  0.12260  0.54285  0.00388  1.0000
  H   H309      1.0  0.26243  0.49200  0.44873  1.0000
  H   H310      1.0  0.24539  0.33104  0.28345  1.0000
  H   H311      1.0  0.01329  0.56281  0.04354  1.0000
  H   H312      1.0  0.01769  0.64639  0.03545  1.0000
  C   C180      1.0  0.36979  0.52206  0.48859  1.0000
  H   H313      1.0  0.29215  0.47290  0.44535  1.0000
  H   H314      1.0  0.42186  0.46987  0.46793  1.0000
  H   H315      1.0  0.19576  0.62079  0.11359  1.0000
  H   H316      1.0  0.06586  0.64453  0.04237  1.0000
  H   H317      1.0  0.05383  0.58052  0.09844  1.0000
  H   H318      1.0  0.28946  0.40713  0.39118  1.0000
  C   C181      1.0  0.02486  0.58056  0.04257  1.0000
  H   H319      1.0  0.37861  0.42813  0.39686  1.0000
  C   C182      1.0  0.37632  0.39563  0.27463  1.0000
  H   H320      1.0  0.37533  0.45811  0.32794  1.0000
  C   C183      1.0  0.36849  0.44610  0.34484  1.0000
  H   H321      1.0  0.42418  0.57915  0.21387  1.0000
  H   H322      1.0  0.28304  0.37476  0.37934  1.0000
  C   C184      1.0  0.28085  0.49420  0.41117  1.0000
  C   C185      1.0  0.23479  0.41340  0.43996  1.0000
  S   S47       1.0  0.28775  0.33622  0.22580  1.0000
  H   H323      1.0  0.16624  0.54398  0.15000  1.0000
  H   H324      1.0  0.39347  0.41080  0.35243  1.0000
  H   H325      1.0  0.38765  0.37974  0.28412  1.0000
  H   H326      1.0  0.32709  0.42213  0.47432  1.0000
  H   H327      1.0  0.44505  0.35174  0.37144  1.0000
  H   H328      1.0  0.38793  0.40338  0.25790  1.0000
  H   H329      1.0  0.38959  0.42608  0.30028  1.0000
  H   H330      1.0  0.43487  0.42992  0.44338  1.0000
  H   H331      1.0  0.05927  0.61516  0.10392  1.0000
  H   H332      1.0  0.41076  0.44037  0.34708  1.0000
  H   H333      1.0  0.27952  0.38474  0.12983  1.0000
  H   H334      1.0  0.14776  0.62779  0.11215  1.0000
  H   H335      1.0  0.11016  0.59097  0.17481  1.0000
  H   H336      1.0  0.26699  0.41289  0.48096  1.0000
  H   H337      1.0  0.34240  0.44088  0.09468  1.0000
  H   H338      1.0  0.26645  0.39602  0.09884  1.0000
  H   H339      1.0  0.21501  0.42491  0.40378  1.0000
  C   C186      1.0  0.45279  0.35505  0.31576  1.0000
  H   H340      1.0  0.38910  0.61230  0.26547  1.0000
  C   C187      1.0  0.40496  0.60036  0.27447  1.0000
  C   C188      1.0  0.41068  0.58145  0.23088  1.0000
  C   C189      1.0  0.39327  0.62266  0.31728  1.0000
  H   H341      1.0  0.40144  0.63280  0.33470  1.0000
  H   H342      1.0  0.23871  0.46221  0.41906  1.0000
  H   H343      1.0  0.00651  0.56942  0.99377  1.0000
  H   H344      1.0  0.45442  0.58067  0.28260  1.0000
  S   S48       1.0  0.46247  0.45701  0.36204  1.0000
  Fe  Fe22      1.0  0.16654  0.54276  0.00751  1.0000
  N   N10       1.0  0.42510  0.59233  0.25429  1.0000
  C   C190      1.0  0.42641  0.63965  0.23586  1.0000
  C   C191      1.0  0.46373  0.56003  0.24729  1.0000
  H   H345      1.0  0.45462  0.55217  0.22926  1.0000
  H   H346      1.0  0.19857  0.43677  0.43244  1.0000
  C   C192      1.0  0.44300  0.57206  0.26616  1.0000
  C   C193      1.0  0.48217  0.52307  0.46042  1.0000
  H   H347      1.0  0.37094  0.46825  0.06730  1.0000
  H   H348      1.0  0.48610  0.47180  0.31136  1.0000
  C   C194      1.0  0.44165  0.61531  0.24566  1.0000
  H   H349      1.0  0.47423  0.35863  0.31299  1.0000
  H   H350      1.0  0.46836  0.62332  0.32320  1.0000
  H   H351      1.0  0.24854  0.33543  0.48555  1.0000
  C   C195      1.0  0.27359  0.47866  0.43568  1.0000
  H   H352      1.0  0.41247  0.64709  0.25081  1.0000
  C   C196      1.0  0.38169  0.54612  0.21066  1.0000
  H   H353      1.0  0.29155  0.51231  0.41688  1.0000
  H   H354      1.0  0.41519  0.63484  0.21790  1.0000
  H   H355      1.0  0.39557  0.59565  0.22415  1.0000
  H   H356      1.0  0.36665  0.56076  0.20497  1.0000
  C   C197      1.0  0.34920  0.51169  0.47373  1.0000
  H   H357      1.0  0.02190  0.48866  0.04278  1.0000
  C   C198      1.0  0.26459  0.39746  0.12044  1.0000
  H   H358      1.0  0.18062  0.39432  0.44263  1.0000
  H   H359      1.0  0.14283  0.50182  0.14105  1.0000
  C   C199      1.0  0.43980  0.38122  0.32394  1.0000
  H   H360      1.0  0.37156  0.52718  0.21456  1.0000
  C   C200      1.0  0.31791  0.40457  0.46520  1.0000
  H   H361      1.0  0.30178  0.42531  0.43280  1.0000
  H   H362      1.0  0.49383  0.53003  0.24661  1.0000
  C   C201      1.0  0.39613  0.55499  0.23529  1.0000
  H   H363      1.0  0.33498  0.50484  0.43471  1.0000
  H   H364      1.0  0.37316  0.52573  0.41281  1.0000
  H   H365      1.0  0.31337  0.38136  0.39627  1.0000
  C   C202      1.0  0.20948  0.41988  0.42423  1.0000
  H   H366      1.0  0.38231  0.33940  0.24459  1.0000
  Fe  Fe23      1.0  0.47551  0.33558  0.46925  1.0000
  C   C203      1.0  0.19044  0.39669  0.42337  1.0000
  C   C204      1.0  0.12830  0.62703  0.16082  1.0000
  H   H367      1.0  0.48876  0.39348  0.42884  1.0000
  H   H368      1.0  0.45956  0.65593  0.21391  1.0000
  H   H369      1.0  0.26295  0.50003  0.40027  1.0000
  H   H370      1.0  0.26694  0.44325  0.41299  1.0000
  C   C205      1.0  0.12740  0.59680  0.16265  1.0000
  C   C206      1.0  0.48847  0.65021  0.29719  1.0000
  H   H371      1.0  0.20078  0.37824  0.41845  1.0000
  H   H372      1.0  0.33287  0.39466  0.45283  1.0000
  H   H373      1.0  0.46592  0.40724  0.38812  1.0000
  H   H374      1.0  0.41956  0.40958  0.46811  1.0000
  C   C207      1.0  0.37240  0.33098  0.34719  1.0000
  H   H375      1.0  0.14485  0.59123  0.17441  1.0000
  C   C208      1.0  0.47730  0.44779  0.39171  1.0000
  H   H376      1.0  0.44047  0.42247  0.31352  1.0000
  H   H377      1.0  0.44296  0.38591  0.34486  1.0000
  H   H378      1.0  0.37914  0.47281  0.10129  1.0000
  H   H379      1.0  0.21601  0.43664  0.47800  1.0000
  H   H380      1.0  0.21916  0.46577  0.45950  1.0000
  H   H381      1.0  0.44773  0.40067  0.28672  1.0000
  C   C209      1.0  0.45786  0.33750  0.36114  1.0000
  H   H382      1.0  0.44494  0.51278  0.47669  1.0000
  H   H383      1.0  0.35938  0.34147  0.36114  1.0000
  H   H384      1.0  0.14826  0.63340  0.15470  1.0000
  H   H385      1.0  0.31170  0.39083  0.48085  1.0000
  C   C210      1.0  0.12278  0.63964  0.18741  1.0000
  H   H386      1.0  0.32426  0.33705  0.41079  1.0000
  S   S49       1.0  0.47027  0.37410  0.48963  1.0000
  C   C211      1.0  0.47847  0.53749  0.26016  1.0000
  H   H387      1.0  0.18542  0.62976  0.08111  1.0000
  C   C212      1.0  0.48612  0.34868  0.36361  1.0000
  H   H388      1.0  0.13728  0.63292  0.20214  1.0000
  C   C213      1.0  0.46331  0.50247  0.47144  1.0000
  C   C214      1.0  0.49523  0.34809  0.39197  1.0000
  C   C215      1.0  0.07780  0.46613  0.99763  1.0000
  N   N11       1.0  0.44854  0.33196  0.33369  1.0000
  H   H389      1.0  0.36735  0.33724  0.32702  1.0000
  H   H390      1.0  0.33376  0.34114  0.45798  1.0000
  H   H391      1.0  0.40504  0.33050  0.37353  1.0000
  C   C216      1.0  0.34333  0.33024  0.41870  1.0000
  H   H392      1.0  0.09020  0.33139  0.46480  1.0000
  C   C217      1.0  0.06439  0.44225  0.99664  1.0000
  C   C218      1.0  0.12299  0.33157  0.49188  1.0000
  H   H393      1.0  0.14066  0.38284  0.56814  1.0000
  Fe  Fe24      1.0  0.22280  0.60880  0.75645  1.0000
  S   S50       1.0  0.19548  0.62024  0.72406  1.0000
  S   S51       1.0  0.26199  0.62894  0.76014  1.0000
  Fe  Fe25      1.0  0.18932  0.56238  0.77257  1.0000
  S   S52       1.0  0.16009  0.56963  0.74078  1.0000
  S   S53       1.0  0.18252  0.52888  0.80063  1.0000
  Fe  Fe26      1.0  0.19501  0.57703  0.71467  1.0000
  S   S54       1.0  0.19777  0.56415  0.67198  1.0000
  Fe  Fe27      1.0  0.16341  0.61169  0.75310  1.0000
  S   S55       1.0  0.12563  0.63237  0.76342  1.0000
  S   S56       1.0  0.22407  0.56614  0.74556  1.0000
  S   S57       1.0  0.19089  0.60405  0.78638  1.0000
  Fe  Fe28      1.0  0.04049  0.50608  0.85529  1.0000
  S   S58       1.0  0.04634  0.46295  0.86164  1.0000
  S   S59       1.0  0.06904  0.53950  0.85014  1.0000
  Fe  Fe29      1.0  0.01691  0.46813  0.89409  1.0000
  S   S60       1.0  0.01855  0.44773  0.93300  1.0000
  S   S61       1.0  0.01385  0.51157  0.88994  1.0000
  Fe  Fe30      1.0  0.30600  0.47754  0.58720  1.0000
  S   S62       1.0  0.28847  0.46344  0.54904  1.0000
  S   S63       1.0  0.28736  0.48894  0.62654  1.0000
  Fe  Fe31      1.0  0.36155  0.46161  0.57040  1.0000
  S   S64       1.0  0.34893  0.44647  0.53145  1.0000
  S   S65       1.0  0.40317  0.46022  0.58516  1.0000
  Fe  Fe32      1.0  0.32380  0.48228  0.52973  1.0000
  H   H394      1.0  0.32154  0.55473  0.71543  1.0000
  Fe  Fe33      1.0  0.31493  0.42857  0.55289  1.0000
  H   H395      1.0  0.07298  0.43407  0.79386  1.0000
  S   S66       1.0  0.33922  0.49947  0.56742  1.0000
  S   S67       1.0  0.32983  0.44064  0.59222  1.0000
  H   H396      1.0  0.12036  0.63957  0.88205  1.0000
  C   C219      1.0  0.42006  0.43068  0.57979  1.0000
  C   C220      1.0  0.43843  0.42245  0.59830  1.0000
  C   C221      1.0  0.45335  0.39982  0.59395  1.0000
  C   C222      1.0  0.45092  0.38592  0.57049  1.0000
  C   C223      1.0  0.43279  0.39425  0.55169  1.0000
  C   C224      1.0  0.41699  0.41638  0.55657  1.0000
  H   H397      1.0  0.44098  0.43353  0.61618  1.0000
  H   H398      1.0  0.01503  0.50226  0.98833  1.0000
  H   H399      1.0  0.13959  0.44461  0.97505  1.0000
  H   H400      1.0  0.40304  0.42290  0.54213  1.0000
  C   C225      1.0  0.19564  0.58559  0.96823  1.0000
  C   C226      1.0  0.04126  0.45592  0.95759  1.0000
  C   C227      1.0  0.05451  0.48003  0.95841  1.0000
  H   H401      1.0  0.20627  0.46672  0.51613  1.0000
  H   H402      1.0  0.19262  0.50929  0.90905  1.0000
  H   H403      1.0  0.23668  0.63155  0.94169  1.0000
  C   C228      1.0  0.04598  0.43733  0.97700  1.0000
  H   H404      1.0  0.05062  0.49453  0.94356  1.0000
  H   H405      1.0  0.30636  0.54206  0.62162  1.0000
  H   H406      1.0  0.02272  0.63751  0.77248  1.0000
  Fe  Fe34      1.0  0.01084  0.45729  0.83562  1.0000
  H   H407      1.0  0.35301  0.38683  0.50606  1.0000
  C   C229      1.0  0.17494  0.60206  0.97551  1.0000
  C   C230      1.0  0.04888  0.57580  0.96488  1.0000
  C   C231      1.0  0.16035  0.37466  0.56349  1.0000
  C   C232      1.0  0.15157  0.53146  0.81581  1.0000
  C   C233      1.0  0.13959  0.55593  0.81829  1.0000
  C   C234      1.0  0.11463  0.55803  0.82968  1.0000
  C   C235      1.0  0.10109  0.53562  0.83795  1.0000
  C   C236      1.0  0.11310  0.51106  0.83588  1.0000
  C   C237      1.0  0.13850  0.50903  0.82501  1.0000
  H   H408      1.0  0.14940  0.57331  0.81120  1.0000
  H   H409      1.0  0.10541  0.57707  0.83121  1.0000
  H   H410      1.0  0.10273  0.49374  0.84239  1.0000
  H   H411      1.0  0.14769  0.49007  0.82295  1.0000
  C   C238      1.0  0.22283  0.54338  0.65941  1.0000
  C   C239      1.0  0.22826  0.54319  0.63240  1.0000
  C   C240      1.0  0.24790  0.52669  0.62184  1.0000
  C   C241      1.0  0.26217  0.51008  0.63823  1.0000
  C   C242      1.0  0.25667  0.51031  0.66521  1.0000
  C   C243      1.0  0.23708  0.52676  0.67573  1.0000
  H   H412      1.0  0.21719  0.55583  0.61956  1.0000
  H   H413      1.0  0.25190  0.52673  0.60105  1.0000
  H   H414      1.0  0.26749  0.49744  0.67804  1.0000
  H   H415      1.0  0.23270  0.52628  0.69641  1.0000
  H   H416      1.0  0.03894  0.59251  0.95527  1.0000
  H   H417      1.0  0.09396  0.45921  0.80729  1.0000
  H   H418      1.0  0.15060  0.36345  0.52439  1.0000
  N   N12       1.0  0.29604  0.59377  0.68508  1.0000
  H   H419      1.0  0.24970  0.59973  0.65518  1.0000
  C   C244      1.0  0.21796  0.59626  0.95611  1.0000
  H   H420      1.0  0.04247  0.62632  0.82812  1.0000
  C   C245      1.0  0.13992  0.33093  0.55068  1.0000
  H   H421      1.0  0.07473  0.64701  0.86917  1.0000
  C   C246      1.0  0.37334  0.38073  0.51075  1.0000
  H   H422      1.0  0.03571  0.41875  0.97659  1.0000
  H   H423      1.0  0.36435  0.60621  0.72960  1.0000
  H   H424      1.0  0.49439  0.33083  0.61435  1.0000
  N   N13       1.0  0.09181  0.51054  0.74354  1.0000
  C   C247      1.0  0.08053  0.49677  0.71992  1.0000
  C   C248      1.0  0.08314  0.49696  0.76842  1.0000
  C   C249      1.0  0.08079  0.53806  0.74391  1.0000
  C   C250      1.0  0.12137  0.51267  0.74220  1.0000
  C   C251      1.0  0.13692  0.48683  0.73933  1.0000
  C   C252      1.0  0.08750  0.50881  0.69292  1.0000
  C   C253      1.0  0.08670  0.55460  0.76875  1.0000
  C   C254      1.0  0.08027  0.46667  0.76762  1.0000
  C   C255      1.0  0.08021  0.65952  0.93146  1.0000
  C   C256      1.0  0.16580  0.49231  0.73291  1.0000
  C   C257      1.0  0.07605  0.49236  0.67068  1.0000
  C   C258      1.0  0.07413  0.58167  0.76702  1.0000
  H   H425      1.0  0.05867  0.49602  0.72158  1.0000
  H   H426      1.0  0.08677  0.47600  0.71903  1.0000
  H   H427      1.0  0.09665  0.50213  0.78471  1.0000
  H   H428      1.0  0.06337  0.50410  0.77468  1.0000
  H   H429      1.0  0.05901  0.53748  0.74155  1.0000
  H   H430      1.0  0.08858  0.54967  0.72719  1.0000
  H   H431      1.0  0.12730  0.52591  0.72597  1.0000
  H   H432      1.0  0.12916  0.52211  0.76022  1.0000
  H   H433      1.0  0.12913  0.47424  0.72350  1.0000
  H   H434      1.0  0.13643  0.47598  0.75811  1.0000
  H   H435      1.0  0.07933  0.52884  0.69097  1.0000
  H   H436      1.0  0.10910  0.50968  0.68995  1.0000
  H   H437      1.0  0.10811  0.55764  0.77116  1.0000
  H   H438      1.0  0.07882  0.54511  0.78661  1.0000
  H   H439      1.0  0.04207  0.53591  0.97503  1.0000
  H   H440      1.0  0.09754  0.45693  0.75881  1.0000
  H   H441      1.0  0.42047  0.53549  0.56604  1.0000
  S   S68       1.0  0.30653  0.38662  0.54162  1.0000
  H   H442      1.0  0.34170  0.34040  0.49966  1.0000
  H   H443      1.0  0.17493  0.50462  0.74835  1.0000
  H   H444      1.0  0.17679  0.47357  0.73169  1.0000
  H   H445      1.0  0.16768  0.50254  0.71382  1.0000
  H   H446      1.0  0.05430  0.49125  0.67235  1.0000
  H   H447      1.0  0.08111  0.50150  0.65161  1.0000
  H   H448      1.0  0.28088  0.62373  0.91946  1.0000
  H   H449      1.0  0.07912  0.59308  0.78486  1.0000
  H   H450      1.0  0.08181  0.59252  0.74978  1.0000
  H   H451      1.0  0.05242  0.58001  0.76562  1.0000
  H   H452      1.0  0.15335  0.63389  0.91599  1.0000
  H   H453      1.0  0.05334  0.58128  0.98544  1.0000
  C   C259      1.0  0.23473  0.63670  0.66827  1.0000
  H   H454      1.0  0.37481  0.37745  0.53218  1.0000
  H   H455      1.0  0.23411  0.65039  0.80576  1.0000
  C   C260      1.0  0.41611  0.52231  0.54930  1.0000
  H   H456      1.0  0.01672  0.56889  0.86791  1.0000
  C   C261      1.0  0.43441  0.48474  0.52191  1.0000
  C   C262      1.0  0.44063  0.50655  0.54219  1.0000
  H   H457      1.0  0.24160  0.59865  0.90735  1.0000
  H   H458      1.0  0.44794  0.49771  0.56061  1.0000
  H   H459      1.0  0.28191  0.56729  0.65479  1.0000
  C   C263      1.0  0.07242  0.48536  0.97884  1.0000
  S   S69       1.0  0.01086  0.42579  0.80378  1.0000
  C   C264      1.0  0.19831  0.63959  0.95734  1.0000
  H   H460      1.0  0.45554  0.52049  0.53466  1.0000
  H   H461      1.0  0.14761  0.59750  0.88514  1.0000
  C   C265      1.0  0.32241  0.55675  0.62245  1.0000
  S   S70       1.0  0.00776  0.50034  0.82652  1.0000
  H   H462      1.0  0.39969  0.50914  0.55504  1.0000
  H   H463      1.0  0.31618  0.60288  0.73680  1.0000
  H   H464      1.0  0.00217  0.34049  0.83682  1.0000
  H   H465      1.0  0.05446  0.57736  0.89646  1.0000
  C   C266      1.0  0.38075  0.35594  0.49570  1.0000
  H   H466      1.0  0.12152  0.58382  0.90497  1.0000
  C   C267      1.0  0.25427  0.39616  0.53113  1.0000
  C   C268      1.0  0.13468  0.62263  0.91723  1.0000
  H   H467      1.0  0.42217  0.49365  0.50643  1.0000
  H   H468      1.0  0.03930  0.59154  0.85315  1.0000
  C   C269      1.0  0.29185  0.61146  0.90521  1.0000
  C   C270      1.0  0.32422  0.56885  0.64975  1.0000
  H   H469      1.0  0.36858  0.52156  0.50970  1.0000
  H   H470      1.0  0.00194  0.64940  0.83205  1.0000
  S   S71       1.0  0.47095  0.35833  0.56536  1.0000
  H   H471      1.0  0.46027  0.44891  0.54695  1.0000
  C   C271      1.0  0.23031  0.39038  0.51874  1.0000
  C   C272      1.0  0.00387  0.55719  0.97594  1.0000
  H   H472      1.0  0.22699  0.54208  0.90731  1.0000
  C   C273      1.0  0.27606  0.37997  0.52706  1.0000
  H   H473      1.0  0.18743  0.43264  0.97809  1.0000
  C   C274      1.0  0.29788  0.58199  0.65784  1.0000
  C   C275      1.0  0.21941  0.62329  0.95089  1.0000
  H   H474      1.0  0.06269  0.46119  0.75594  1.0000
  C   C276      1.0  0.27377  0.35800  0.51081  1.0000
  C   C277      1.0  0.20904  0.63065  0.88109  1.0000
  H   H475      1.0  0.12975  0.61994  0.93813  1.0000
  H   H476      1.0  0.23195  0.48835  0.52725  1.0000
  H   H477      1.0  0.33006  0.61850  0.67970  1.0000
  H   H478      1.0  0.29848  0.59325  0.91501  1.0000
  H   H479      1.0  0.30947  0.62262  0.89872  1.0000
  C   C278      1.0  0.07635  0.45555  0.79505  1.0000
  C   C279      1.0  0.32253  0.60377  0.69396  1.0000
  C   C280      1.0  0.28452  0.57434  0.70412  1.0000
  C   C281      1.0  0.30121  0.54968  0.70964  1.0000
  C   C282      1.0  0.08541  0.64356  0.95652  1.0000
  C   C283      1.0  0.27256  0.64200  0.79020  1.0000
  C   C284      1.0  0.24966  0.61132  0.67354  1.0000
  H   H480      1.0  0.17297  0.52681  0.88539  1.0000
  C   C285      1.0  0.28935  0.53350  0.73187  1.0000
  H   H481      1.0  0.11996  0.33968  0.55258  1.0000
  C   C286      1.0  0.02452  0.58922  0.86885  1.0000
  H   H482      1.0  0.18966  0.56943  0.86825  1.0000
  H   H483      1.0  0.25585  0.41295  0.54395  1.0000
  H   H484      1.0  0.23846  0.60024  0.68851  1.0000
  H   H485      1.0  0.17886  0.54056  0.91755  1.0000
  H   H486      1.0  0.27964  0.58407  0.72301  1.0000
  H   H487      1.0  0.26533  0.56699  0.69686  1.0000
  H   H488      1.0  0.30172  0.53696  0.69203  1.0000
  C   C287      1.0  0.47561  0.48821  0.49508  1.0000
  H   H489      1.0  0.19530  0.46727  0.98042  1.0000
  H   H490      1.0  0.34026  0.58363  0.64899  1.0000
  H   H491      1.0  0.19635  0.62161  0.89614  1.0000
  H   H492      1.0  0.32997  0.55325  0.66358  1.0000
  H   H493      1.0  0.40137  0.35137  0.50095  1.0000
  H   H494      1.0  0.40984  0.53452  0.53259  1.0000
  H   H495      1.0  0.36000  0.63800  0.71447  1.0000
  H   H496      1.0  0.30148  0.51575  0.73513  1.0000
  H   H497      1.0  0.28885  0.54509  0.75026  1.0000
  H   H498      1.0  0.26910  0.52710  0.72693  1.0000
  C   C288      1.0  0.17991  0.45220  0.98399  1.0000
  H   H499      1.0  0.17844  0.34704  0.53773  1.0000
  C   C289      1.0  0.47347  0.45963  0.53326  1.0000
  N   N14       1.0  0.22923  0.58517  0.86946  1.0000
  C   C290      1.0  0.21825  0.61085  0.85980  1.0000
  C   C291      1.0  0.23939  0.56882  0.84684  1.0000
  C   C292      1.0  0.20667  0.57041  0.88197  1.0000
  C   C293      1.0  0.25018  0.58911  0.88985  1.0000
  C   C294      1.0  0.27466  0.60504  0.88159  1.0000
  H   H500      1.0  0.15454  0.58513  0.91749  1.0000
  C   C295      1.0  0.21256  0.54206  0.89108  1.0000
  C   C296      1.0  0.25309  0.58340  0.82388  1.0000
  C   C297      1.0  0.26652  0.56425  0.80517  1.0000
  C   C298      1.0  0.27778  0.61704  0.68378  1.0000
  C   C299      1.0  0.02790  0.62317  0.81231  1.0000
  H   H501      1.0  0.20164  0.60701  0.84614  1.0000
  H   H502      1.0  0.23290  0.62166  0.84811  1.0000
  H   H503      1.0  0.25325  0.55364  0.85412  1.0000
  H   H504      1.0  0.22291  0.55780  0.83748  1.0000
  H   H505      1.0  0.28665  0.63269  0.67136  1.0000
  H   H506      1.0  0.31867  0.57207  0.60754  1.0000
  H   H507      1.0  0.02426  0.58846  0.91129  1.0000
  H   H508      1.0  0.25781  0.56998  0.89678  1.0000
  H   H509      1.0  0.26917  0.62378  0.87232  1.0000
  H   H510      1.0  0.28695  0.59336  0.86796  1.0000
  H   H511      1.0  0.08844  0.62266  0.95137  1.0000
  H   H512      1.0  0.33009  0.65347  0.82205  1.0000
  C   C300      1.0  0.18761  0.52893  0.90135  1.0000
  H   H513      1.0  0.22027  0.52975  0.87490  1.0000
  H   H514      1.0  0.23830  0.59433  0.81244  1.0000
  H   H515      1.0  0.26796  0.59772  0.83043  1.0000
  H   H516      1.0  0.25213  0.54976  0.79753  1.0000
  H   H517      1.0  0.27497  0.57525  0.78840  1.0000
  H   H518      1.0  0.28270  0.55379  0.81523  1.0000
  H   H519      1.0  0.43066  0.38343  0.53364  1.0000
  H   H520      1.0  0.27485  0.62588  0.70345  1.0000
  H   H521      1.0  0.19955  0.58067  0.89978  1.0000
  H   H522      1.0  0.00929  0.62897  0.87200  1.0000
  H   H523      1.0  0.22636  0.63928  0.89114  1.0000
  H   H524      1.0  0.16916  0.36631  0.58148  1.0000
  N   N15       1.0  0.13624  0.46415  0.92208  1.0000
  C   C301      1.0  0.14546  0.46440  0.89399  1.0000
  C   C302      1.0  0.12656  0.49108  0.92994  1.0000
  C   C303      1.0  0.15972  0.45793  0.93901  1.0000
  C   C304      1.0  0.11560  0.44341  0.92715  1.0000
  C   C305      1.0  0.09215  0.44194  0.90800  1.0000
  C   C306      1.0  0.15671  0.43825  0.88334  1.0000
  C   C307      1.0  0.15487  0.45894  0.96904  1.0000
  C   C308      1.0  0.11113  0.50708  0.90931  1.0000
  C   C309      1.0  0.09949  0.53188  0.92142  1.0000
  C   C310      1.0  0.07710  0.41618  0.91133  1.0000
  C   C311      1.0  0.16160  0.43985  0.85387  1.0000
  H   H525      1.0  0.21348  0.40292  0.52186  1.0000
  H   H526      1.0  0.16089  0.47962  0.89132  1.0000
  H   H527      1.0  0.12948  0.47040  0.88059  1.0000
  H   H528      1.0  0.11426  0.48973  0.94782  1.0000
  H   H529      1.0  0.14342  0.50391  0.93558  1.0000
  H   H530      1.0  0.17627  0.47158  0.93455  1.0000
  H   H531      1.0  0.16720  0.43791  0.93477  1.0000
  H   H532      1.0  0.12487  0.42367  0.92777  1.0000
  H   H533      1.0  0.10672  0.44601  0.94692  1.0000
  H   H534      1.0  0.09823  0.44287  0.88725  1.0000
  H   H535      1.0  0.07827  0.45811  0.91216  1.0000
  H   H536      1.0  0.17583  0.43375  0.89269  1.0000
  H   H537      1.0  0.14300  0.42171  0.88690  1.0000
  H   H538      1.0  0.38684  0.39692  0.50525  1.0000
  H   H539      1.0  0.23396  0.64906  0.68617  1.0000
  H   H540      1.0  0.12459  0.51344  0.89337  1.0000
  H   H541      1.0  0.09493  0.49570  0.90046  1.0000
  H   H542      1.0  0.08444  0.52685  0.93630  1.0000
  H   H543      1.0  0.11511  0.54385  0.93081  1.0000
  H   H544      1.0  0.08996  0.54374  0.90597  1.0000
  H   H545      1.0  0.08949  0.39933  0.90528  1.0000
  H   H546      1.0  0.07089  0.41345  0.93197  1.0000
  H   H547      1.0  0.05919  0.41634  0.89896  1.0000
  H   H548      1.0  0.17027  0.42117  0.84679  1.0000
  H   H549      1.0  0.14284  0.44314  0.84330  1.0000
  H   H550      1.0  0.17550  0.45603  0.84925  1.0000
  C   C312      1.0  0.13985  0.59561  0.90539  1.0000
  H   H551      1.0  0.05625  0.63666  0.78343  1.0000
  H   H552      1.0  0.46729  0.39347  0.60853  1.0000
  C   C313      1.0  0.17624  0.62895  0.96995  1.0000
  H   H553      1.0  0.21427  0.63193  0.66234  1.0000
  H   H554      1.0  0.33734  0.58788  0.69402  1.0000
  H   H555      1.0  0.08432  0.47223  0.67095  1.0000
  H   H556      1.0  0.21471  0.49576  0.49745  1.0000
  H   H557      1.0  0.02939  0.60276  0.80518  1.0000
  H   H558      1.0  0.11165  0.34294  0.50655  1.0000
  N   N16       1.0  0.45779  0.47035  0.51059  1.0000
  H   H559      1.0  0.10271  0.65089  0.96744  1.0000
  H   H560      1.0  0.00493  0.57482  0.82501  1.0000
  C   C314      1.0  0.03149  0.55136  0.96419  1.0000
  H   H561      1.0  0.31179  0.63476  0.72235  1.0000
  H   H562      1.0  0.23427  0.58362  0.95117  1.0000
  H   H563      1.0  0.00258  0.38641  0.76417  1.0000
  H   H564      1.0  0.09568  0.62330  0.90050  1.0000
  C   C315      1.0  0.36193  0.33293  0.50260  1.0000
  C   C316      1.0  0.11254  0.63712  0.90232  1.0000
  C   C317      1.0  0.19328  0.65304  0.86906  1.0000
  H   H565      1.0  0.05886  0.46459  0.80443  1.0000
  H   H566      1.0  0.04701  0.61188  0.89717  1.0000
  C   C318      1.0  0.25503  0.65146  0.80920  1.0000
  H   H567      1.0  0.34113  0.54670  0.61751  1.0000
  H   H568      1.0  0.29452  0.59728  0.64267  1.0000
  C   C319      1.0  0.32355  0.61651  0.72157  1.0000
  C   C320      1.0  0.03842  0.59201  0.89512  1.0000
  H   H569      1.0  0.42108  0.47051  0.53182  1.0000
  C   C321      1.0  0.29958  0.64323  0.79484  1.0000
  H   H570      1.0  0.48233  0.47584  0.54484  1.0000
  C   C322      1.0  0.22264  0.47962  0.50963  1.0000
  H   H571      1.0  0.06773  0.57190  0.95461  1.0000
  H   H572      1.0  0.17488  0.64543  0.86017  1.0000
  H   H573      1.0  0.15777  0.59406  0.98516  1.0000
  H   H574      1.0  0.17321  0.39086  0.55656  1.0000
  C   C323      1.0  0.15830  0.35375  0.54217  1.0000
  H   H575      1.0  0.02957  0.54495  0.94351  1.0000
  C   C324      1.0  0.30914  0.65317  0.81848  1.0000
  C   C325      1.0  0.24999  0.35233  0.49826  1.0000
  H   H576      1.0  0.99896  0.51213  0.94777  1.0000
  C   C326      1.0  0.03574  0.64096  0.78953  1.0000
  H   H577      1.0  0.14851  0.47872  0.97549  1.0000
  C   C327      1.0  0.06185  0.64480  0.97501  1.0000
  H   H578      1.0  0.01235  0.37048  0.87331  1.0000
  C   C328      1.0  0.35172  0.62392  0.72886  1.0000
  H   H579      1.0  0.44509  0.42993  0.50648  1.0000
  C   C329      1.0  0.00171  0.60920  0.86652  1.0000
  H   H580      1.0  0.48964  0.42368  0.51505  1.0000
  S   S72       1.0  0.19350  0.55161  0.97361  1.0000
  H   H581      1.0  0.16009  0.64155  0.97551  1.0000
  C   C330      1.0  0.22824  0.36852  0.50222  1.0000
  H   H582      1.0  0.04333  0.63958  0.96478  1.0000
  C   C331      1.0  0.00002  0.62993  0.82246  1.0000
  H   H583      1.0  0.29059  0.34557  0.50766  1.0000
  H   H584      1.0  0.25082  0.44868  0.50769  1.0000
  H   H585      1.0  0.48482  0.50308  0.50806  1.0000
  H   H586      1.0  0.31323  0.63605  0.78027  1.0000
  H   H587      1.0  0.06487  0.63069  0.99112  1.0000
  H   H588      1.0  0.36341  0.32944  0.52407  1.0000
  Fe  Fe35      1.0  0.48673  0.35392  0.52454  1.0000
  H   H589      1.0  0.24427  0.64787  0.65222  1.0000
  H   H590      1.0  0.35188  0.63334  0.74846  1.0000
  H   H591      1.0  0.08237  0.50406  0.97988  1.0000
  H   H592      1.0  0.06392  0.64918  0.92134  1.0000
  C   C332      1.0  0.24310  0.46391  0.49432  1.0000
  C   C333      1.0  0.44867  0.44748  0.49400  1.0000
  Fe  Fe36      1.0  0.43586  0.88200  0.06613  1.0000
  S   S73       1.0  0.46839  0.85874  0.08381  1.0000
  S   S74       1.0  0.42860  0.92437  0.07713  1.0000
  Fe  Fe37      1.0  0.41873  0.83654  0.03019  1.0000
  S   S75       1.0  0.45046  0.81009  0.04560  1.0000
  H   H593      1.0  0.40966  0.75007  0.00240  1.0000
  Fe  Fe38      1.0  0.43915  0.82603  0.08497  1.0000
  S   S76       1.0  0.43647  0.80260  0.12214  1.0000
  Fe  Fe39      1.0  0.47689  0.84542  0.04307  1.0000
  S   S77       1.0  0.40541  0.85016  0.07002  1.0000
  S   S78       1.0  0.44626  0.87091  0.02492  1.0000
  C   C334      1.0  0.46639  0.78759  0.13016  1.0000
  C   C335      1.0  0.46965  0.77592  0.15474  1.0000
  H   H594      1.0  0.43567  0.93303  0.01740  1.0000
  H   H595      1.0  0.44898  0.98834  0.05777  1.0000
  H   H596      1.0  0.44443  0.99148  0.14402  1.0000
  H   H597      1.0  0.45336  0.77538  0.16838  1.0000
  C   C336      1.0  0.49527  0.80815  0.23469  1.0000
  H   H598      1.0  0.47150  0.84755  0.13980  1.0000
  C   C337      1.0  0.46700  0.96085  0.00837  1.0000
  H   H599      1.0  0.48464  0.72389  0.29684  1.0000
  C   C338      1.0  0.46790  0.92551  0.11436  1.0000
  C   C339      1.0  0.44587  0.93793  0.10384  1.0000
  C   C340      1.0  0.43771  0.96194  0.11441  1.0000
  C   C341      1.0  0.48119  0.93661  0.13573  1.0000
  H   H600      1.0  0.00349  0.75800  0.00670  1.0000
  C   C342      1.0  0.42439  0.87337  0.14850  1.0000
  H   H601      1.0  0.44268  0.87327  0.18617  1.0000
  C   C343      1.0  0.45116  0.97318  0.13567  1.0000
  C   C344      1.0  0.47285  0.96046  0.14647  1.0000
  H   H602      1.0  0.47223  0.90619  0.19022  1.0000
  C   C345      1.0  0.48610  0.83592  0.19468  1.0000
  H   H603      1.0  0.47561  0.88133  0.14690  1.0000
  S   S79       1.0  0.39363  0.82612  0.99460  1.0000
  H   H604      1.0  0.46654  0.70638  0.38827  1.0000
  C   C346      1.0  0.36483  0.78430  0.01464  1.0000
  H   H605      1.0  0.25820  0.79106  0.02511  1.0000
  C   C347      1.0  0.48674  0.89659  0.20326  1.0000
  C   C348      1.0  0.44411  0.86187  0.16782  1.0000
  H   H606      1.0  0.48103  0.75272  0.25856  1.0000
  H   H607      1.0  0.26059  0.75804  0.01270  1.0000
  H   H608      1.0  0.37280  0.78940  0.03357  1.0000
  H   H609      1.0  0.47617  0.88466  0.21800  1.0000
  C   C349      1.0  0.47718  0.72493  0.38402  1.0000
  H   H610      1.0  0.47033  0.84408  0.20724  1.0000
  H   H611      1.0  0.43786  0.84141  0.17201  1.0000
  H   H612      1.0  0.46781  0.74770  0.31696  1.0000
  C   C350      1.0  0.34714  0.76313  0.01222  1.0000
  H   H613      1.0  0.29006  0.77640  0.01922  1.0000
  H   H614      1.0  0.46512  0.77764  0.27835  1.0000
  H   H615      1.0  0.42476  0.86230  0.12978  1.0000
  C   C351      1.0  0.46859  0.75628  0.27608  1.0000
  H   H616      1.0  0.42078  0.97177  0.10632  1.0000
  H   H617      1.0  0.48662  0.93182  0.22706  1.0000
  H   H618      1.0  0.34160  0.75206  0.02941  1.0000
  H   H619      1.0  0.48497  0.79688  0.09344  1.0000
  C   C352      1.0  0.26955  0.77790  0.01200  1.0000
  H   H620      1.0  0.45500  0.97795  0.01412  1.0000
  C   C353      1.0  0.47237  0.86195  0.15619  1.0000
  H   H621      1.0  0.42890  0.89430  0.14456  1.0000
  C   C354      1.0  0.48552  0.95203  0.03071  1.0000
  H   H622      1.0  0.40424  0.87207  0.15679  1.0000
  H   H623      1.0  0.48484  0.79113  0.22594  1.0000
  H   H624      1.0  0.47300  0.94344  0.04642  1.0000
  H   H625      1.0  0.47699  0.81875  0.18478  1.0000
  N   N17       1.0  0.49492  0.85552  0.17438  1.0000
  H   H626      1.0  0.44939  0.74641  0.27293  1.0000
  C   C355      1.0  0.44821  0.93884  0.00053  1.0000
  H   H627      1.0  0.48126  0.81979  0.24666  1.0000
  H   H628      1.0  0.48119  0.71560  0.34335  1.0000
  H   H629      1.0  0.46243  0.74063  0.38094  1.0000
  H   H630      1.0  0.47483  0.90748  0.10595  1.0000
  C   C356      1.0  0.49126  0.98634  0.06503  1.0000
  C   C357      1.0  0.48174  0.74507  0.30042  1.0000
  H   H631      1.0  0.43411  0.67913  0.22191  1.0000
  H   H632      1.0  0.47340  0.66507  0.29868  1.0000
  C   C358      1.0  0.48736  0.78803  0.11247  1.0000
  H   H633      1.0  0.48953  0.72994  0.40120  1.0000
  H   H634      1.0  0.45637  0.66825  0.24694  1.0000
  H   H635      1.0  0.27676  0.82751  0.99792  1.0000
  C   C359      1.0  0.44532  0.66203  0.22927  1.0000
  H   H636      1.0  0.48553  0.97226  0.08058  1.0000
  H   H637      1.0  0.49021  0.79928  0.00748  1.0000
  H   H638      1.0  0.45271  0.77273  0.00238  1.0000
  S   S80       1.0  0.48866  0.97316  0.17436  1.0000
  C   C360      1.0  0.49415  0.76548  0.16195  1.0000
  C   C361      1.0  0.49424  0.72142  0.35961  1.0000
  H   H639      1.0  0.12432  0.66129  0.18571  1.0000
  H   H640      1.0  0.45938  0.92152  0.99348  1.0000
  Fe  Fe40      1.0  0.23550  0.69317  0.93572  1.0000
  S   S81       1.0  0.27737  0.67970  0.93904  1.0000
  Fe  Fe41      1.0  0.25105  0.74418  0.90942  1.0000
  S   S82       1.0  0.29413  0.73495  0.91018  1.0000
  S   S83       1.0  0.23719  0.78151  0.89066  1.0000
  H   H641      1.0  0.46770  0.74715  0.98404  1.0000
  C   C362      1.0  0.01704  0.70670  0.91747  1.0000
  Fe  Fe42      1.0  0.28684  0.72125  0.95114  1.0000
  C   C363      1.0  0.14275  0.71542  0.95380  1.0000
  S   S84       1.0  0.23878  0.70510  0.89362  1.0000
  S   S85       1.0  0.24425  0.73345  0.95131  1.0000
  Fe  Fe43      1.0  0.09333  0.79171  0.84933  1.0000
  S   S86       1.0  0.08693  0.75301  0.83001  1.0000
  S   S87       1.0  0.11328  0.78967  0.88842  1.0000
  Fe  Fe44      1.0  0.06193  0.82136  0.80790  1.0000
  S   S88       1.0  0.05282  0.78460  0.78520  1.0000
  S   S89       1.0  0.04600  0.86241  0.80076  1.0000
  Fe  Fe45      1.0  0.04549  0.76635  0.82464  1.0000
  C   C364      1.0  0.04635  0.79364  0.93076  1.0000
  Fe  Fe46      1.0  0.09519  0.77422  0.79267  1.0000
  S   S90       1.0  0.12344  0.75651  0.76340  1.0000
  S   S91       1.0  0.05107  0.80368  0.84681  1.0000
  S   S92       1.0  0.10514  0.81244  0.81247  1.0000
  H   H642      1.0  0.15439  0.72462  0.80769  1.0000
  H   H643      1.0  0.24343  0.81477  0.94067  1.0000
  C   C365      1.0  0.14398  0.68109  0.74874  1.0000
  C   C366      1.0  0.03518  0.87348  0.76994  1.0000
  H   H644      1.0  0.49414  0.75503  0.94745  1.0000
  C   C367      1.0  0.02765  0.86712  0.72348  1.0000
  H   H645      1.0  0.35786  0.87981  0.96943  1.0000
  H   H646      1.0  0.45482  0.85682  0.93400  1.0000
  H   H647      1.0  0.09076  0.66923  0.78719  1.0000
  C   C368      1.0  0.03509  0.73353  0.88251  1.0000
  H   H648      1.0  0.05016  0.74676  0.87550  1.0000
  C   C369      1.0  0.12337  0.72198  0.76253  1.0000
  C   C370      1.0  0.14286  0.70863  0.74836  1.0000
  H   H649      1.0  0.16032  0.71730  0.94098  1.0000
  C   C371      1.0  0.31002  0.80613  0.88841  1.0000
  C   C372      1.0  0.29487  0.82403  0.90710  1.0000
  C   C373      1.0  0.10454  0.70763  0.77644  1.0000
  H   H650      1.0  0.15709  0.71959  0.73706  1.0000
  H   H651      1.0  0.28185  0.79327  0.93246  1.0000
  H   H652      1.0  0.04582  0.83855  0.74883  1.0000
  H   H653      1.0  0.08901  0.71764  0.78680  1.0000
  H   H654      1.0  0.10313  0.88668  0.69678  1.0000
  C   C374      1.0  0.14769  0.71184  0.84711  1.0000
  H   H655      1.0  0.31171  0.81562  0.86896  1.0000
  H   H656      1.0  0.24824  0.78927  0.97787  1.0000
  C   C375      1.0  0.34386  0.77063  0.96576  1.0000
  Fe  Fe47      1.0  0.28123  0.69468  0.89786  1.0000
  H   H657      1.0  0.11492  0.71922  0.92280  1.0000
  H   H658      1.0  0.33622  0.76515  0.94681  1.0000
  C   C376      1.0  0.14765  0.78667  0.88760  1.0000
  C   C377      1.0  0.15986  0.76940  0.90493  1.0000
  C   C378      1.0  0.18734  0.76733  0.90558  1.0000
  C   C379      1.0  0.20276  0.78339  0.88958  1.0000
  C   C380      1.0  0.19061  0.80096  0.87243  1.0000
  C   C381      1.0  0.16304  0.80223  0.87104  1.0000
  H   H659      1.0  0.14795  0.75766  0.91789  1.0000
  H   H660      1.0  0.19654  0.75373  0.91889  1.0000
  H   H661      1.0  0.20250  0.81348  0.86009  1.0000
  H   H662      1.0  0.15368  0.81584  0.85784  1.0000
  H   H663      1.0  0.42022  0.77935  0.96473  1.0000
  C   C382      1.0  0.43175  0.76116  0.96745  1.0000
  C   C383      1.0  0.01680  0.78859  0.92861  1.0000
  C   C384      1.0  0.02393  0.89853  0.76798  1.0000
  H   H664      1.0  0.02914  0.85486  0.70625  1.0000
  H   H665      1.0  0.00695  0.80774  0.92579  1.0000
  H   H666      1.0  0.05984  0.66476  0.98348  1.0000
  H   H667      1.0  0.05370  0.80283  0.91245  1.0000
  H   H668      1.0  0.07368  0.98715  0.61142  1.0000
  H   H669      1.0  0.01304  0.97023  0.56067  1.0000
  H   H670      1.0  0.10253  0.70381  0.95210  1.0000
  S   S93       1.0  0.01168  0.73942  0.83452  1.0000
  H   H671      1.0  0.07089  0.94614  0.72405  1.0000
  C   C385      1.0  0.03712  0.85784  0.74756  1.0000
  H   H672      1.0  0.07676  0.96057  0.65114  1.0000
  S   S94       1.0  0.19804  0.67290  0.94854  1.0000
  H   H673      1.0  0.39567  0.73877  0.97214  1.0000
  H   H674      1.0  0.21132  0.83788  0.91356  1.0000
  S   S95       1.0  0.01869  0.69636  0.95015  1.0000
  C   C386      1.0  0.45795  0.76651  0.98212  1.0000
  C   C387      1.0  0.45941  0.85999  0.95499  1.0000
  S   S96       1.0  0.00437  0.90280  0.69104  1.0000
  C   C388      1.0  0.37196  0.79889  0.99261  1.0000
  C   C389      1.0  0.01391  0.72687  0.86644  1.0000
  H   H675      1.0  0.20156  0.85306  0.94407  1.0000
  H   H676      1.0  0.03936  0.97747  0.61230  1.0000
  H   H677      1.0  0.29942  0.78729  0.88584  1.0000
  H   H678      1.0  0.21005  0.66589  0.76505  1.0000
  H   H679      1.0  0.02244  0.91073  0.78525  1.0000
  H   H680      1.0  0.43547  0.75234  0.94796  1.0000
  C   C390      1.0  0.28362  0.81466  0.98160  1.0000
  C   C391      1.0  0.08597  0.89893  0.70231  1.0000
  H   H681      1.0  0.44963  0.80991  0.94664  1.0000
  H   H682      1.0  0.03458  0.66194  0.79525  1.0000
  H   H683      1.0  0.27494  0.82644  0.89880  1.0000
  H   H684      1.0  0.25515  0.85949  0.91671  1.0000
  H   H685      1.0  0.11132  0.68389  0.87756  1.0000
  H   H686      1.0  0.43520  0.94561  0.98453  1.0000
  H   H687      1.0  0.05127  0.67580  0.83744  1.0000
  C   C392      1.0  0.06046  0.96988  0.66211  1.0000
  C   C393      1.0  0.41443  0.74201  0.98275  1.0000
  H   H688      1.0  0.47025  0.87880  0.95698  1.0000
  C   C394      1.0  0.06792  0.94521  0.70255  1.0000
  H   H689      1.0  0.44072  0.86146  0.96619  1.0000
  N   N18       1.0  0.20310  0.74814  0.80879  1.0000
  C   C395      1.0  0.18900  0.73526  0.83141  1.0000
  C   C396      1.0  0.23067  0.75506  0.81721  1.0000
  C   C397      1.0  0.18884  0.77343  0.80295  1.0000
  C   C398      1.0  0.20347  0.73148  0.78430  1.0000
  C   C399      1.0  0.20409  0.70126  0.78796  1.0000
  C   C400      1.0  0.15901  0.73148  0.82771  1.0000
  C   C401      1.0  0.20162  0.79158  0.78220  1.0000
  C   C402      1.0  0.24904  0.73183  0.82369  1.0000
  C   C403      1.0  0.27523  0.74144  0.83473  1.0000
  C   C404      1.0  0.21289  0.68736  0.76291  1.0000
  C   C405      1.0  0.46090  0.81127  0.96524  1.0000
  C   C406      1.0  0.18250  0.81299  0.77368  1.0000
  H   H690      1.0  0.19155  0.74709  0.84954  1.0000
  H   H691      1.0  0.19768  0.71603  0.83631  1.0000
  H   H692      1.0  0.24113  0.76606  0.80160  1.0000
  H   H693      1.0  0.22996  0.76838  0.83453  1.0000
  H   H694      1.0  0.18624  0.78517  0.82111  1.0000
  H   H695      1.0  0.16863  0.76922  0.79583  1.0000
  H   H696      1.0  0.18584  0.73543  0.77208  1.0000
  H   H697      1.0  0.22043  0.73717  0.77169  1.0000
  H   H698      1.0  0.05303  0.72877  0.92027  1.0000
  H   H699      1.0  0.21751  0.69511  0.80370  1.0000
  H   H700      1.0  0.14871  0.75042  0.83096  1.0000
  C   C407      1.0  0.12574  0.67749  0.92645  1.0000
  H   H701      1.0  0.20760  0.78041  0.76453  1.0000
  H   H702      1.0  0.21917  0.80152  0.79048  1.0000
  H   H703      1.0  0.24021  0.71860  0.83836  1.0000
  H   H704      1.0  0.25354  0.72050  0.80568  1.0000
  H   H705      1.0  0.28809  0.72439  0.83887  1.0000
  H   H706      1.0  0.28545  0.75435  0.82049  1.0000
  H   H707      1.0  0.27208  0.75231  0.85329  1.0000
  H   H708      1.0  0.30516  0.84316  0.90735  1.0000
  H   H709      1.0  0.33011  0.80223  0.89590  1.0000
  H   H710      1.0  0.18795  0.66738  0.88457  1.0000
  H   H711      1.0  0.08709  0.69913  0.89735  1.0000
  C   C408      1.0  0.06924  0.68242  0.84775  1.0000
  C   C409      1.0  0.08995  0.92690  0.69244  1.0000
  H   H712      1.0  0.16499  0.80419  0.76408  1.0000
  H   H713      1.0  0.17594  0.82474  0.79081  1.0000
  H   H714      1.0  0.19230  0.82624  0.75947  1.0000
  H   H715      1.0  0.42442  0.72284  0.98504  1.0000
  H   H716      1.0  0.04873  0.93512  0.69970  1.0000
  H   H717      1.0  0.10925  0.93378  0.69988  1.0000
  H   H718      1.0  0.32859  0.84480  0.98353  1.0000
  C   C410      1.0  0.48612  0.77505  0.94433  1.0000
  C   C411      1.0  0.04484  0.98811  0.73413  1.0000
  H   H719      1.0  0.15121  0.71850  0.86752  1.0000
  C   C412      1.0  0.29304  0.81190  0.93474  1.0000
  H   H720      1.0  0.15894  0.67086  0.73770  1.0000
  C   C413      1.0  0.03673  0.72331  0.90787  1.0000
  H   H721      1.0  0.30456  0.81011  0.98575  1.0000
  H   H722      1.0  0.20128  0.69408  0.74588  1.0000
  H   H723      1.0  0.33433  0.89108  0.94570  1.0000
  H   H724      1.0  0.36713  0.80280  0.95094  1.0000
  C   C414      1.0  0.36147  0.79187  0.96816  1.0000
  H   H725      1.0  0.44587  0.81383  0.98092  1.0000
  C   C415      1.0  0.09432  0.67973  0.89060  1.0000
  H   H726      1.0  0.13794  0.73507  0.96182  1.0000
  N   N19       1.0  0.47632  0.78636  0.96980  1.0000
  H   H727      1.0  0.02505  0.97738  0.69828  1.0000
  H   H728      1.0  0.07160  0.67876  0.93698  1.0000
  S   S97       1.0  0.30524  0.67364  0.86733  1.0000
  C   C416      1.0  0.33633  0.75635  0.98784  1.0000
  H   H729      1.0  0.23407  0.69114  0.75912  1.0000
  H   H730      1.0  0.14755  0.70224  0.97038  1.0000
  C   C417      1.0  0.07173  0.66801  0.87374  1.0000
  H   H731      1.0  0.20496  0.66334  0.85386  1.0000
  H   H732      1.0  0.46953  0.77230  0.93050  1.0000
  C   C418      1.0  0.24332  0.85688  0.93468  1.0000
  H   H733      1.0  0.18416  0.69394  0.79307  1.0000
  C   C419      1.0  0.29458  0.85485  0.95851  1.0000
  H   H734      1.0  0.01382  0.77658  0.91077  1.0000
  H   H735      1.0  0.14228  0.68021  0.91233  1.0000
  C   C420      1.0  0.11937  0.70478  0.93835  1.0000
  N   N20       1.0  0.28081  0.82873  0.95577  1.0000
  H   H736      1.0  0.08379  0.89853  0.72394  1.0000
  H   H737      1.0  0.12621  0.71029  0.84383  1.0000
  H   H738      1.0  0.31305  0.80580  0.94059  1.0000
  C   C421      1.0  0.10545  0.68016  0.77651  1.0000
  H   H739      1.0  0.03836  0.96912  0.74260  1.0000
  C   C422      1.0  0.00602  0.77416  0.95317  1.0000
  S   S98       1.0  0.31356  0.73003  0.98591  1.0000
  H   H740      1.0  0.00414  0.82209  0.78365  1.0000
  C   C423      1.0  0.01617  0.89205  0.72161  1.0000
  H   H741      1.0  0.11857  0.96445  0.67019  1.0000
  H   H742      1.0  0.01478  0.75415  0.95330  1.0000
  H   H743      1.0  0.06818  0.89021  0.69323  1.0000
  H   H744      1.0  0.01457  0.78443  0.97036  1.0000
  C   C424      1.0  0.26910  0.78804  0.98391  1.0000
  C   C425      1.0  0.47629  0.83758  0.96537  1.0000
  H   H745      1.0  0.29229  0.86691  0.94068  1.0000
  H   H746      1.0  0.08660  0.67851  0.83514  1.0000
  C   C426      1.0  0.01443  0.90781  0.74391  1.0000
  H   H747      1.0  0.10011  0.98169  0.71529  1.0000
  C   C427      1.0  0.26473  0.66224  0.83273  1.0000
  H   H748      1.0  0.20872  0.87298  0.91583  1.0000
  H   H749      1.0  0.06757  0.70379  0.85100  1.0000
  N   N21       1.0  0.06675  0.97232  0.69085  1.0000
  H   H750      1.0  0.32704  0.89332  0.98039  1.0000
  C   C428      1.0  0.21446  0.85503  0.92661  1.0000
  C   C429      1.0  0.25171  0.83243  0.95061  1.0000
  H   H751      1.0  0.24568  0.87479  0.94685  1.0000
  H   H752      1.0  0.09058  0.92587  0.67082  1.0000
  H   H753      1.0  0.15654  0.69221  0.84403  1.0000
  H   H754      1.0  0.04349  0.95631  0.65926  1.0000
  C   C430      1.0  0.32457  0.85380  0.96423  1.0000
  H   H755      1.0  0.05067  0.80706  0.94732  1.0000
  C   C431      1.0  0.33654  0.88127  0.96492  1.0000
  C   C432      1.0  0.04414  0.98659  0.70380  1.0000
  C   C433      1.0  0.05375  0.99269  0.61839  1.0000
  C   C434      1.0  0.09184  0.98741  0.69599  1.0000
  H   H756      1.0  0.27910  0.77336  0.97140  1.0000
  H   H757      1.0  0.24058  0.83406  0.96937  1.0000
  H   H758      1.0  0.05718  0.77499  0.93362  1.0000
  H   H759      1.0  0.00573  0.92707  0.74264  1.0000
  C   C435      1.0  0.11417  0.98503  0.67530  1.0000
  H   H760      1.0  0.13413  0.66574  0.94258  1.0000
  H   H761      1.0  0.28515  0.86642  0.97449  1.0000
  H   H762      1.0  0.47851  0.96613  0.99067  1.0000
  H   H763      1.0  0.33517  0.84255  0.94894  1.0000
  C   C436      1.0  0.12528  0.66683  0.76289  1.0000
  C   C437      1.0  0.29185  0.66269  0.83752  1.0000
  H   H764      1.0  0.48188  0.84247  0.98576  1.0000
  H   H765      1.0  0.25136  0.66953  0.84744  1.0000
  N   N22       1.0  0.10330  0.66319  0.91330  1.0000
  H   H766      1.0  0.05270  0.67003  0.88427  1.0000
  H   H767      1.0  0.14674  0.98743  0.70287  1.0000
  C   C438      1.0  0.99597  0.69972  0.90135  1.0000
  H   H768      1.0  0.49454  0.83691  0.95363  1.0000
  H   H769      1.0  0.06486  0.99260  0.74138  1.0000
  C   C439      1.0  0.71263  0.05847  0.44009  1.0000
  Fe  Fe48      1.0  0.55416  0.04520  0.18305  1.0000
  S   S99       1.0  0.54409  0.07715  0.15495  1.0000
  Fe  Fe49      1.0  0.50591  0.01351  0.16869  1.0000
  Fe  Fe50      1.0  0.53372  0.04486  0.12716  1.0000
  S   S100      1.0  0.54368  0.04321  0.08409  1.0000
  H   H770      1.0  0.63581  0.11176  0.47829  1.0000
  H   H771      1.0  0.65282  0.99945  0.20727  1.0000
  Fe  Fe51      1.0  0.79796  0.03096  0.47674  1.0000
  H   H772      1.0  0.75724  0.99714  0.16341  1.0000
  C   C440      1.0  0.54730  0.09389  0.28835  1.0000
  C   C441      1.0  0.51408  0.13959  0.29277  1.0000
  H   H773      1.0  0.85188  0.13731  0.44789  1.0000
  S   S101      1.0  0.89297  0.05361  0.45807  1.0000
  H   H774      1.0  0.70709  0.06323  0.37207  1.0000
  C   C442      1.0  0.68113  0.05274  0.00893  1.0000
  H   H775      1.0  0.73272  0.04730  0.39028  1.0000
  C   C443      1.0  0.76494  0.12600  0.45218  1.0000
  S   S102      1.0  0.81744  0.06802  0.46255  1.0000
  H   H776      1.0  0.63719  0.03850  0.23614  1.0000
  H   H777      1.0  0.73377  0.03582  0.00983  1.0000
  H   H778      1.0  0.60156  0.09584  0.29837  1.0000
  H   H779      1.0  0.64668  0.05603  0.05165  1.0000
  C   C444      1.0  0.62475  0.08946  0.06446  1.0000
  H   H780      1.0  0.67296  0.09362  0.45156  1.0000
  H   H781      1.0  0.56308  0.02675  0.03434  1.0000
  H   H782      1.0  0.52356  0.05211  0.26292  1.0000
  H   H783      1.0  0.60302  0.00351  0.02067  1.0000
  C   C445      1.0  0.91693  0.07789  0.46445  1.0000
  C   C446      1.0  0.93699  0.08149  0.44605  1.0000
  C   C447      1.0  0.95668  0.10026  0.45015  1.0000
  C   C448      1.0  0.91703  0.09297  0.48742  1.0000
  H   H784      1.0  0.52946  0.14894  0.28066  1.0000
  H   H785      1.0  0.93709  0.06995  0.42828  1.0000
  H   H786      1.0  0.57660  0.07729  0.26101  1.0000
  H   H787      1.0  0.52271  0.13538  0.31226  1.0000
  H   H788      1.0  0.74008  0.05443  0.48391  1.0000
  H   H789      1.0  0.79190  0.01667  0.40878  1.0000
  S   S103      1.0  0.54738  0.01318  0.15387  1.0000
  N   N23       1.0  0.52334  0.09391  0.27095  1.0000
  C   C449      1.0  0.86079  0.15617  0.48491  1.0000
  H   H790      1.0  0.55584  0.01601  0.23422  1.0000
  H   H791      1.0  0.64175  0.09912  0.07407  1.0000
  C   C450      1.0  0.57750  0.02143  0.04879  1.0000
  C   C451      1.0  0.57332  0.02774  0.07511  1.0000
  C   C452      1.0  0.59285  0.02189  0.09343  1.0000
  H   H792      1.0  0.50946  0.06078  0.29368  1.0000
  H   H793      1.0  0.71947  0.08944  0.41070  1.0000
  N   N24       1.0  0.65957  0.07013  0.99864  1.0000
  H   H794      1.0  0.59002  0.02709  0.11375  1.0000
  H   H795      1.0  0.88241  0.12711  0.46224  1.0000
  H   H796      1.0  0.69996  0.04070  0.44082  1.0000
  H   H797      1.0  0.68941  0.11858  0.00098  1.0000
  C   C453      1.0  0.50342  0.11383  0.28049  1.0000
  H   H798      1.0  0.58631  0.07217  0.32010  1.0000
  C   C454      1.0  0.54489  0.12466  0.23652  1.0000
  H   H799      1.0  0.54247  0.08221  0.23483  1.0000
  H   H800      1.0  0.85148  0.11548  0.47548  1.0000
  H   H801      1.0  0.95395  0.00055  0.48668  1.0000
  H   H802      1.0  0.63265  0.03739  0.00119  1.0000
  C   C455      1.0  0.55549  0.12481  0.20853  1.0000
  H   H803      1.0  0.61387  0.07793  0.07943  1.0000
  H   H804      1.0  0.97169  0.10317  0.43541  1.0000
  H   H805      1.0  0.50586  0.99975  0.07433  1.0000
  H   H806      1.0  0.75747  0.08685  0.43915  1.0000
  C   C456      1.0  0.71948  0.02210  0.00076  1.0000
  C   C457      1.0  0.72325  0.10063  0.46244  1.0000
  H   H807      1.0  0.76344  0.09007  0.47367  1.0000
  H   H808      1.0  0.56174  0.05346  0.28253  1.0000
  C   C458      1.0  0.59611  0.02895  0.23248  1.0000
  H   H809      1.0  0.55692  0.11336  0.28889  1.0000
  C   C459      1.0  0.75679  0.99988  0.42527  1.0000
  H   H810      1.0  0.53092  0.14125  0.23825  1.0000
  H   H811      1.0  0.90841  0.99840  0.46963  1.0000
  H   H812      1.0  0.69924  0.03554  0.39248  1.0000
  H   H813      1.0  0.66799  0.06232  0.46537  1.0000
  C   C460      1.0  0.75315  0.09882  0.45673  1.0000
  S   S104      1.0  0.59166  0.04992  0.20577  1.0000
  C   C461      1.0  0.63404  0.07118  0.04264  1.0000
  C   C462      1.0  0.51097  0.06697  0.27282  1.0000
  H   H814      1.0  0.49973  0.32766  0.39785  1.0000
  C   C463      1.0  0.67980  0.08058  0.46755  1.0000
  H   H815      1.0  0.56977  0.10862  0.20554  1.0000
  H   H816      1.0  0.53918  0.12269  0.19433  1.0000
  H   H817      1.0  0.56565  0.14367  0.20459  1.0000
  C   C464      1.0  0.56910  0.07386  0.28111  1.0000
  H   H818      1.0  0.68589  0.07830  0.41274  1.0000
  S   S105      1.0  0.51394  0.04280  0.20078  1.0000
  H   H819      1.0  0.69521  0.06421  0.02104  1.0000
  C   C465      1.0  0.53047  0.09868  0.24267  1.0000
  H   H820      1.0  0.61631  0.06149  0.03463  1.0000
  H   H821      1.0  0.78657  0.12434  0.44967  1.0000
  H   H822      1.0  0.56188  0.12799  0.24957  1.0000
  H   H823      1.0  0.54122  0.09002  0.30896  1.0000
  H   H824      1.0  0.61125  0.10459  0.05661  1.0000
  Fe  Fe52      1.0  0.85441  0.05136  0.47992  1.0000
  H   H825      1.0  0.52273  0.00911  0.03272  1.0000
  H   H826      1.0  0.71407  0.11352  0.44752  1.0000
  C   C466      1.0  0.61652  0.01009  0.08523  1.0000
  S   S106      1.0  0.98223  0.13890  0.47661  1.0000
  H   H827      1.0  0.73304  0.05079  0.43915  1.0000
  H   H828      1.0  0.72149  0.00820  0.19524  1.0000
  Fe  Fe53      1.0  0.50300  0.07329  0.17102  1.0000
  H   H829      1.0  0.67284  0.03780  0.02247  1.0000
  H   H830      1.0  0.66549  0.09690  0.03094  1.0000
  H   H831      1.0  0.84004  0.16277  0.48600  1.0000
  H   H832      1.0  0.51257  0.09879  0.23031  1.0000
  C   C467      1.0  0.59251  0.07606  0.29963  1.0000
  C   C468      1.0  0.62036  0.00333  0.05886  1.0000
  C   C469      1.0  0.57522  0.01429  0.24263  1.0000
  C   C470      1.0  0.62109  0.02686  0.24371  1.0000
  C   C471      1.0  0.86174  0.13251  0.46661  1.0000
  C   C472      1.0  0.70672  0.07205  0.41368  1.0000
  S   S107      1.0  0.83567  0.01280  0.49117  1.0000
  H   H833      1.0  0.75332  0.00568  0.21043  1.0000
  C   C473      1.0  0.64910  0.08645  0.02100  1.0000
  H   H834      1.0  0.87260  0.17194  0.47575  1.0000
  H   H835      1.0  0.63599  0.10223  0.01368  1.0000
  H   H836      1.0  0.95417  0.19687  0.49009  1.0000
  C   C474      1.0  0.71175  0.05334  0.39080  1.0000
  H   H837      1.0  0.76103  0.13901  0.46920  1.0000
  N   N25       1.0  0.70872  0.07490  0.46436  1.0000
  H   H838      1.0  0.60759  0.06132  0.29405  1.0000
  H   H839      1.0  0.72156  0.11173  0.48111  1.0000
  S   S108      1.0  0.76365  0.00833  0.45833  1.0000
  C   C475      1.0  0.95715  0.11515  0.47312  1.0000
  H   H840      1.0  0.75657  0.13498  0.43429  1.0000
  H   H841      1.0  0.71181  0.00850  0.01594  1.0000
  C   C476      1.0  0.71923  0.05988  0.48741  1.0000
  C   C477      1.0  0.60048  0.00859  0.04088  1.0000
  C   C478      1.0  0.62556  0.00914  0.26413  1.0000
  H   H842      1.0  0.49574  0.00208  0.01279  1.0000
  H   H843      1.0  0.49975  0.17705  0.30721  1.0000
  H   H844      1.0  0.64506  0.00703  0.27218  1.0000
  C   C479      1.0  0.77390  0.00611  0.40475  1.0000
  C   C480      1.0  0.57947  0.99735  0.26378  1.0000
  H   H845      1.0  0.77696  0.00969  0.09996  1.0000
  H   H846      1.0  0.63185  0.00626  0.09930  1.0000
  H   H847      1.0  0.70613  0.01975  0.47794  1.0000
  C   C481      1.0  0.76789  0.99831  0.37895  1.0000
  H   H848      1.0  0.92507  0.21560  0.48332  1.0000
  H   H849      1.0  0.91615  0.16829  0.49279  1.0000
  H   H850      1.0  0.78145  0.00296  0.36329  1.0000
  H   H851      1.0  0.60400  0.07873  0.99398  1.0000
  C   C482      1.0  0.93741  0.11129  0.49199  1.0000
  H   H852      1.0  0.71659  0.06940  0.86048  1.0000
  C   C483      1.0  0.92425  0.22726  0.62224  1.0000
  S   S109      1.0  0.93301  0.28386  0.74192  1.0000
  Fe  Fe54      1.0  0.86315  0.29555  0.71380  1.0000
  S   S110      1.0  0.88667  0.26007  0.70316  1.0000
  C   C484      1.0  0.97137  0.30844  0.80448  1.0000
  Fe  Fe55      1.0  0.89705  0.25847  0.74563  1.0000
  S   S111      1.0  0.89866  0.21742  0.76224  1.0000
  Fe  Fe56      1.0  0.92071  0.28780  0.69993  1.0000
  S   S112      1.0  0.95340  0.28361  0.67030  1.0000
  S   S113      1.0  0.87138  0.29227  0.75682  1.0000
  Fe  Fe57      1.0  0.77122  0.07222  0.81624  1.0000
  S   S114      1.0  0.77373  0.05916  0.77412  1.0000
  S   S115      1.0  0.76490  0.04058  0.84734  1.0000
  Fe  Fe58      1.0  0.78532  0.12872  0.80176  1.0000
  S   S116      1.0  0.78727  0.12011  0.75904  1.0000
  S   S117      1.0  0.79573  0.16980  0.81447  1.0000
  Fe  Fe59      1.0  0.75132  0.09592  0.76551  1.0000
  S   S118      1.0  0.72104  0.09241  0.73367  1.0000
  Fe  Fe60      1.0  0.80952  0.08443  0.77096  1.0000
  S   S119      1.0  0.84619  0.07890  0.74684  1.0000
  S   S120      1.0  0.74655  0.10778  0.80770  1.0000
  S   S121      1.0  0.80972  0.09430  0.81370  1.0000
  Fe  Fe61      1.0  0.69021  0.18921  0.58540  1.0000
  S   S122      1.0  0.65529  0.20329  0.60881  1.0000
  S   S123      1.0  0.68963  0.15305  0.56008  1.0000
  Fe  Fe62      1.0  0.72701  0.23026  0.60729  1.0000
  S   S124      1.0  0.69552  0.24768  0.63237  1.0000
  S   S125      1.0  0.76965  0.24261  0.60541  1.0000
  Fe  Fe63      1.0  0.68440  0.20619  0.64172  1.0000
  S   S126      1.0  0.67632  0.19683  0.68417  1.0000
  Fe  Fe64      1.0  0.66903  0.24364  0.59727  1.0000
  S   S127      1.0  0.64351  0.27956  0.58929  1.0000
  S   S128      1.0  0.71800  0.18905  0.61926  1.0000
  S   S129      1.0  0.70180  0.22927  0.57126  1.0000
  Fe  Fe65      1.0  0.97244  0.99676  0.68073  1.0000
  C   C485      1.0  0.62215  0.28394  0.56228  1.0000
  C   C486      1.0  0.60964  0.30827  0.55901  1.0000
  H   H853      1.0  0.54861  0.99546  0.96405  1.0000
  C   C487      1.0  0.58563  0.29183  0.52125  1.0000
  C   C488      1.0  0.59857  0.26769  0.52420  1.0000
  C   C489      1.0  0.61673  0.26373  0.54459  1.0000
  H   H854      1.0  0.90459  0.15099  0.55227  1.0000
  C   C490      1.0  0.86842  0.14265  0.57255  1.0000
  H   H855      1.0  0.62626  0.24493  0.54680  1.0000
  C   C491      1.0  0.71044  0.12206  0.71974  1.0000
  C   C492      1.0  0.70340  0.14318  0.73567  1.0000
  C   C493      1.0  0.69264  0.16587  0.72453  1.0000
  C   C494      1.0  0.68997  0.16805  0.69733  1.0000
  C   C495      1.0  0.69771  0.14718  0.68132  1.0000
  C   C496      1.0  0.70737  0.12401  0.69257  1.0000
  H   H856      1.0  0.70540  0.14161  0.75661  1.0000
  H   H857      1.0  0.68639  0.18183  0.73701  1.0000
  H   H858      1.0  0.69542  0.14857  0.66034  1.0000
  H   H859      1.0  0.71247  0.10758  0.68017  1.0000
  C   C497      1.0  0.86921  0.20495  0.77562  1.0000
  C   C498      1.0  0.85427  0.21975  0.79322  1.0000
  C   C499      1.0  0.83170  0.20888  0.80497  1.0000
  C   C500      1.0  0.82397  0.18311  0.79922  1.0000
  C   C501      1.0  0.83897  0.16830  0.78160  1.0000
  C   C502      1.0  0.86152  0.17919  0.76988  1.0000
  H   H860      1.0  0.86051  0.23938  0.79829  1.0000
  H   H861      1.0  0.82034  0.22040  0.81869  1.0000
  H   H862      1.0  0.83352  0.14829  0.77733  1.0000
  H   H863      1.0  0.87309  0.16757  0.75644  1.0000
  C   C503      1.0  0.80687  0.28456  0.67546  1.0000
  C   C504      1.0  0.82198  0.26803  0.65961  1.0000
  C   C505      1.0  0.81035  0.25510  0.63824  1.0000
  C   C506      1.0  0.78347  0.25816  0.63297  1.0000
  C   C507      1.0  0.76834  0.27452  0.64894  1.0000
  C   C508      1.0  0.85711  0.99909  0.57854  1.0000
  H   H864      1.0  0.84268  0.26554  0.66355  1.0000
  H   H865      1.0  0.82222  0.24267  0.62579  1.0000
  H   H866      1.0  0.66620  0.14443  0.82492  1.0000
  C   C509      1.0  0.72110  0.14527  0.54811  1.0000
  C   C510      1.0  0.74051  0.16460  0.54590  1.0000
  H   H867      1.0  0.52970  0.30157  0.63434  1.0000
  C   C511      1.0  0.75158  0.11328  0.52999  1.0000
  C   C512      1.0  0.72672  0.11956  0.54025  1.0000
  H   H868      1.0  0.73638  0.18444  0.55203  1.0000
  C   C513      1.0  0.70227  0.28146  0.51343  1.0000
  H   H869      1.0  0.71190  0.10451  0.54239  1.0000
  C   C514      1.0  0.94692  0.21788  0.60971  1.0000
  C   C515      1.0  0.92601  0.24753  0.64079  1.0000
  C   C516      1.0  0.95044  0.25859  0.64675  1.0000
  C   C517      1.0  0.97305  0.24942  0.63392  1.0000
  C   C518      1.0  0.97134  0.22898  0.61556  1.0000
  H   H870      1.0  0.90844  0.25489  0.65014  1.0000
  C   C519      1.0  0.76512  0.15842  0.53504  1.0000
  H   H871      1.0  0.56749  0.28933  0.61110  1.0000
  H   H872      1.0  0.61595  0.09209  0.74331  1.0000
  C   C520      1.0  0.88157  0.04394  0.72807  1.0000
  C   C521      1.0  0.85753  0.04705  0.74099  1.0000
  C   C522      1.0  0.84356  0.02498  0.74942  1.0000
  H   H873      1.0  0.68410  0.02287  0.97807  1.0000
  H   H874      1.0  0.89265  0.06101  0.72204  1.0000
  H   H875      1.0  0.82494  0.02729  0.75940  1.0000
  C   C523      1.0  0.52326  0.26624  0.54914  1.0000
  H   H876      1.0  0.98890  0.22190  0.60589  1.0000
  H   H877      1.0  0.94658  0.14123  0.61487  1.0000
  C   C524      1.0  0.66961  0.08820  0.97754  1.0000
  H   H878      1.0  0.90528  0.21889  0.61760  1.0000
  C   C525      1.0  0.71075  0.02891  0.80184  1.0000
  C   C526      1.0  0.73701  0.00997  0.88204  1.0000
  C   C527      1.0  0.73744  0.03362  0.86793  1.0000
  C   C528      1.0  0.71633  0.05095  0.87080  1.0000
  C   C529      1.0  0.94641  0.01326  0.76884  1.0000
  H   H879      1.0  0.73740  0.01566  0.51449  1.0000
  C   C530      1.0  0.85381  0.99981  0.74489  1.0000
  S   S130      1.0  0.97623  0.13650  0.55273  1.0000
  H   H880      1.0  0.88957  0.13792  0.51066  1.0000
  H   H881      1.0  0.82277  0.03153  0.84303  1.0000
  N   N26       1.0  0.75420  0.22827  0.73016  1.0000
  C   C531      1.0  0.72668  0.23722  0.72374  1.0000
  C   C532      1.0  0.75221  0.20514  0.74842  1.0000
  C   C533      1.0  0.76869  0.25079  0.74267  1.0000
  C   C534      1.0  0.76888  0.21996  0.70590  1.0000
  C   C535      1.0  0.75563  0.19800  0.68951  1.0000
  C   C536      1.0  0.79693  0.24493  0.75222  1.0000
  C   C537      1.0  0.74346  0.21134  0.77690  1.0000
  C   C538      1.0  0.73243  0.18699  0.79047  1.0000
  C   C539      1.0  0.77219  0.19111  0.66552  1.0000
  H   H882      1.0  0.95828  0.05462  0.49859  1.0000
  H   H883      1.0  0.71699  0.24551  0.74139  1.0000
  H   H884      1.0  0.71412  0.22034  0.71806  1.0000
  H   H885      1.0  0.73818  0.19049  0.74045  1.0000
  H   H886      1.0  0.77120  0.19435  0.74954  1.0000
  H   H887      1.0  0.65214  0.09841  0.82894  1.0000
  H   H888      1.0  0.77102  0.26729  0.72870  1.0000
  H   H889      1.0  0.77262  0.23704  0.69293  1.0000
  H   H890      1.0  0.78875  0.21262  0.71119  1.0000
  H   H891      1.0  0.73599  0.20406  0.68250  1.0000
  H   H892      1.0  0.75326  0.17986  0.70118  1.0000
  H   H893      1.0  0.81059  0.24357  0.73525  1.0000
  H   H894      1.0  0.79817  0.22638  0.76329  1.0000
  H   H895      1.0  0.76055  0.21847  0.78837  1.0000
  H   H896      1.0  0.72808  0.22662  0.77777  1.0000
  H   H897      1.0  0.74567  0.16995  0.78762  1.0000
  H   H898      1.0  0.73042  0.19076  0.81177  1.0000
  H   H899      1.0  0.71276  0.18209  0.78249  1.0000
  H   H900      1.0  0.79250  0.18576  0.67117  1.0000
  H   H901      1.0  0.76320  0.17423  0.65512  1.0000
  H   H902      1.0  0.77295  0.20792  0.65188  1.0000
  C   C540      1.0  0.55497  0.24937  0.60722  1.0000
  H   H903      1.0  0.78032  0.30961  0.55497  1.0000
  C   C541      1.0  0.89246  0.19227  0.52024  1.0000
  C   C542      1.0  0.96061  0.01398  0.55320  1.0000
  H   H904      1.0  0.54177  0.25506  0.55133  1.0000
  H   H905      1.0  0.67108  0.04564  0.83656  1.0000
  C   C543      1.0  0.92681  0.15887  0.66281  1.0000
  N   N27       1.0  0.92802  0.17524  0.68744  1.0000
  H   H906      1.0  0.50054  0.23029  0.54422  1.0000
  C   C544      1.0  0.63038  0.07929  0.73314  1.0000
  H   H907      1.0  0.85751  0.05317  0.79653  1.0000
  C   C545      1.0  0.69406  0.10491  0.98472  1.0000
  H   H908      1.0  0.96549  0.16678  0.73176  1.0000
  C   C546      1.0  0.92837  0.15815  0.71159  1.0000
  C   C547      1.0  0.95143  0.19340  0.68571  1.0000
  H   H909      1.0  0.99038  0.01825  0.63241  1.0000
  H   H910      1.0  0.94425  0.11031  0.73387  1.0000
  H   H911      1.0  0.85877  0.06145  0.83016  1.0000
  H   H912      1.0  0.85268  0.21164  0.68002  1.0000
  Fe  Fe66      1.0  0.81062  0.08371  0.50314  1.0000
  C   C548      1.0  0.87686  0.17718  0.68761  1.0000
  H   H913      1.0  0.92003  0.29583  0.80577  1.0000
  H   H914      1.0  0.85665  0.13459  0.52060  1.0000
  H   H915      1.0  0.69379  0.08862  0.78544  1.0000
  C   C549      1.0  0.80660  0.26701  0.76996  1.0000
  C   C550      1.0  0.93350  0.03795  0.77984  1.0000
  C   C551      1.0  0.70317  0.12127  0.96137  1.0000
  H   H916      1.0  0.91658  0.14006  0.70814  1.0000
  H   H917      1.0  0.74214  0.30325  0.53752  1.0000
  C   C552      1.0  0.98018  0.22716  0.70878  1.0000
  H   H918      1.0  0.73690  0.27530  0.70581  1.0000
  C   C553      1.0  0.87092  0.14903  0.51261  1.0000
  H   H919      1.0  0.91055  0.01682  0.71396  1.0000
  H   H920      1.0  0.54355  0.23629  0.59416  1.0000
  N   N28       1.0  0.66825  0.05607  0.79555  1.0000
  C   C554      1.0  0.65430  0.07451  0.75045  1.0000
  H   H921      1.0  0.86775  0.01328  0.84094  1.0000
  H   H922      1.0  0.97018  0.18242  0.68620  1.0000
  C   C555      1.0  0.63840  0.05299  0.98712  1.0000
  H   H923      1.0  0.94842  0.04847  0.79150  1.0000
  H   H924      1.0  0.87309  0.16925  0.66773  1.0000
  C   C556      1.0  0.96848  0.04420  0.51479  1.0000
  C   C557      1.0  0.90814  0.05172  0.84003  1.0000
  C   C558      1.0  0.97618  0.29486  0.85099  1.0000
  C   C559      1.0  0.90355  0.19201  0.68823  1.0000
  H   H925      1.0  0.56687  0.27835  0.57844  1.0000
  C   C560      1.0  0.68819  0.03776  0.78355  1.0000
  C   C561      1.0  0.94581  0.05967  0.87136  1.0000
  C   C562      1.0  0.91909  0.18217  0.50924  1.0000
  S   S131      1.0  0.66711  0.01372  0.92194  1.0000
  H   H926      1.0  0.70676  0.29104  0.59854  1.0000
  H   H927      1.0  0.92826  0.05070  0.76304  1.0000
  C   C563      1.0  0.92824  0.01804  0.51696  1.0000
  N   N29       1.0  0.81659  0.06407  0.65628  1.0000
  C   C564      1.0  0.79883  0.07887  0.67470  1.0000
  C   C565      1.0  0.80975  0.03536  0.65793  1.0000
  C   C566      1.0  0.84477  0.06907  0.66400  1.0000
  C   C567      1.0  0.81297  0.07284  0.62825  1.0000
  C   C568      1.0  0.78418  0.07568  0.61874  1.0000
  C   C569      1.0  0.80280  0.10899  0.67531  1.0000
  C   C570      1.0  0.86552  0.05136  0.65038  1.0000
  C   C571      1.0  0.81473  0.02200  0.68473  1.0000
  C   C572      1.0  0.77065  0.13278  0.52696  1.0000
  C   C573      1.0  0.78323  0.08265  0.58966  1.0000
  C   C574      1.0  0.77915  0.12261  0.68778  1.0000
  C   C575      1.0  0.89340  0.06182  0.65424  1.0000
  H   H928      1.0  0.80192  0.07231  0.69521  1.0000
  H   H929      1.0  0.77781  0.07426  0.67064  1.0000
  H   H930      1.0  0.78861  0.03221  0.65343  1.0000
  H   H931      1.0  0.82038  0.02416  0.64260  1.0000
  H   H932      1.0  0.84737  0.06719  0.68553  1.0000
  H   H933      1.0  0.85014  0.08980  0.65979  1.0000
  H   H934      1.0  0.82307  0.09184  0.62456  1.0000
  H   H935      1.0  0.82263  0.05883  0.61457  1.0000
  H   H936      1.0  0.77389  0.09153  0.62953  1.0000
  H   H937      1.0  0.77310  0.05715  0.62148  1.0000
  H   H938      1.0  0.82050  0.11372  0.68714  1.0000
  H   H939      1.0  0.80564  0.11743  0.65557  1.0000
  H   H940      1.0  0.86203  0.05002  0.62910  1.0000
  H   H941      1.0  0.86478  0.03119  0.65845  1.0000
  H   H942      1.0  0.83474  0.02592  0.69215  1.0000
  H   H943      1.0  0.80038  0.02904  0.69955  1.0000
  C   C576      1.0  0.81877  0.21616  0.56069  1.0000
  C   C577      1.0  0.90829  0.03127  0.79577  1.0000
  C   C578      1.0  0.53361  0.00238  0.97832  1.0000
  H   H944      1.0  0.88257  0.20366  0.50457  1.0000
  H   H945      1.0  0.51280  0.24447  0.51428  1.0000
  H   H946      1.0  0.96536  0.02473  0.57156  1.0000
  H   H947      1.0  0.77236  0.11199  0.70547  1.0000
  H   H948      1.0  0.78459  0.14282  0.69360  1.0000
  H   H949      1.0  0.76263  0.12348  0.67367  1.0000
  H   H950      1.0  0.89839  0.06260  0.67532  1.0000
  H   H951      1.0  0.90763  0.04861  0.64431  1.0000
  H   H952      1.0  0.89541  0.08168  0.64566  1.0000
  H   H953      1.0  0.91205  0.01334  0.80757  1.0000
  H   H954      1.0  0.96727  0.06349  0.87273  1.0000
  C   C579      1.0  0.51140  0.27442  0.57590  1.0000
  S   S132      1.0  0.80120  0.12590  0.51233  1.0000
  H   H955      1.0  0.91272  0.00968  0.52958  1.0000
  H   H956      1.0  0.89233  0.07879  0.78004  1.0000
  H   H957      1.0  0.97991  0.24370  0.72292  1.0000
  H   H958      1.0  0.58702  0.03402  0.98399  1.0000
  H   H959      1.0  0.94697  0.20772  0.72642  1.0000
  C   C580      1.0  0.91989  0.29735  0.82745  1.0000
  H   H960      1.0  0.61770  0.08080  0.96154  1.0000
  H   H961      1.0  0.92647  0.27842  0.83579  1.0000
  H   H962      1.0  0.81835  0.02517  0.80853  1.0000
  H   H963      1.0  0.63777  0.04116  0.77019  1.0000
  H   H964      1.0  0.75523  0.29525  0.59739  1.0000
  H   H965      1.0  0.88390  0.15374  0.61072  1.0000
  C   C581      1.0  0.88856  0.10290  0.81468  1.0000
  H   H966      1.0  0.75594  0.09346  0.52422  1.0000
  H   H967      1.0  0.88898  0.12800  0.78028  1.0000
  H   H968      1.0  0.93755  0.12277  0.50975  1.0000
  H   H969      1.0  0.62081  0.06046  0.72780  1.0000
  H   H970      1.0  0.94027  0.13497  0.75913  1.0000
  H   H971      1.0  0.62988  0.07126  0.78533  1.0000
  H   H972      1.0  0.72986  0.24964  0.68270  1.0000
  H   H973      1.0  0.80537  0.20057  0.56803  1.0000
  C   C582      1.0  0.78011  0.28794  0.66988  1.0000
  H   H974      1.0  0.90361  0.20625  0.67175  1.0000
  H   H975      1.0  0.51023  0.27382  0.62735  1.0000
  C   C583      1.0  0.93577  0.20477  0.49878  1.0000
  C   C584      1.0  0.88161  0.13587  0.59847  1.0000
  H   H976      1.0  0.68997  0.27794  0.71826  1.0000
  C   C585      1.0  0.72427  0.25811  0.70190  1.0000
  C   C586      1.0  0.89133  0.30191  0.83556  1.0000
  C   C587      1.0  0.66367  0.10415  0.81142  1.0000
  H   H977      1.0  0.81108  0.22384  0.54191  1.0000
  H   H978      1.0  0.71582  0.03463  0.53546  1.0000
  H   H979      1.0  0.68232  0.25211  0.69524  1.0000
  H   H980      1.0  0.61385  0.32410  0.57245  1.0000
  N   N30       1.0  0.89678  0.05269  0.81283  1.0000
  H   H981      1.0  0.97260  0.12323  0.75059  1.0000
  S   S133      1.0  0.89632  0.32404  0.70665  1.0000
  C   C588      1.0  0.68022  0.32456  0.63433  1.0000
  H   H982      1.0  0.57476  0.05842  0.96177  1.0000
  H   H983      1.0  0.89716  0.08670  0.56784  1.0000
  H   H984      1.0  0.69800  0.04722  0.76651  1.0000
  H   H985      1.0  0.60041  0.03648  0.95120  1.0000
  C   C589      1.0  0.71663  0.02117  0.51837  1.0000
  H   H986      1.0  0.66839  0.06252  0.73896  1.0000
  H   H987      1.0  0.63987  0.05703  0.82719  1.0000
  H   H988      1.0  0.91526  0.03000  0.57756  1.0000
  H   H989      1.0  0.86359  0.00575  0.80684  1.0000
  C   C590      1.0  0.85855  0.01995  0.82253  1.0000
  C   C591      1.0  0.64641  0.06029  0.77615  1.0000
  H   H990      1.0  0.96290  0.28870  0.80057  1.0000
  S   S134      1.0  0.78825  0.04838  0.51625  1.0000
  S   S135      1.0  0.82977  0.01854  0.57087  1.0000
  H   H991      1.0  0.91616  0.07509  0.59547  1.0000
  C   C592      1.0  0.51577  0.29344  0.61964  1.0000
  H   H992      1.0  0.89383  0.02514  0.78065  1.0000
  C   C593      1.0  0.69615  0.26833  0.69975  1.0000
  Fe  Fe67      1.0  0.82721  0.03307  0.52934  1.0000
  H   H993      1.0  0.69127  0.13543  0.80169  1.0000
  C   C594      1.0  0.84762  0.18392  0.53599  1.0000
  C   C595      1.0  0.90073  0.07912  0.80014  1.0000
  H   H994      1.0  0.65406  0.10235  0.97185  1.0000
  H   H995      1.0  0.93527  0.07599  0.88124  1.0000
  H   H996      1.0  0.80404  0.32194  0.60888  1.0000
  C   C596      1.0  0.86747  0.04815  0.81519  1.0000
  C   C597      1.0  0.55541  0.27794  0.59698  1.0000
  H   H997      1.0  0.75707  0.25894  0.75927  1.0000
  H   H998      1.0  0.52736  0.28380  0.53719  1.0000
  H   H999      1.0  0.58219  0.21814  0.61704  1.0000
  Fe  Fe68      1.0  0.52973  0.32617  0.49379  1.0000
  H   H1000     1.0  0.86943  0.12141  0.60931  1.0000
  H   H1001     1.0  0.90129  0.12729  0.59482  1.0000
  H   H1002     1.0  0.99197  0.25802  0.63838  1.0000
  H   H1003     1.0  0.86508  0.12409  0.56171  1.0000
  C   C598      1.0  0.68183  0.08149  0.80225  1.0000
  C   C599      1.0  0.53311  0.31707  0.58067  1.0000
  H   H1004     1.0  0.70577  0.05013  0.97302  1.0000
  H   H1005     1.0  0.67890  0.05810  0.88957  1.0000
  C   C600      1.0  0.84664  0.20558  0.55731  1.0000
  H   H1006     1.0  0.67837  0.02008  0.77533  1.0000
  H   H1007     1.0  0.59198  0.23734  0.58918  1.0000
  H   H1008     1.0  0.83527  0.18421  0.69410  1.0000
  H   H1009     1.0  0.59533  0.25061  0.62180  1.0000
  H   H1010     1.0  0.96282  0.01887  0.75562  1.0000
  C   C601      1.0  0.95568  0.14984  0.72224  1.0000
  H   H1011     1.0  0.82208  0.31838  0.57867  1.0000
  C   C602      1.0  0.61317  0.06731  0.97793  1.0000
  C   C603      1.0  0.89167  0.01888  0.72337  1.0000
  C   C604      1.0  0.88593  0.16160  0.55636  1.0000
  H   H1012     1.0  0.92837  0.06941  0.53344  1.0000
  H   H1013     1.0  0.85300  0.19809  0.57661  1.0000
  H   H1014     1.0  0.96903  0.14264  0.70675  1.0000
  H   H1015     1.0  0.89178  0.17819  0.56927  1.0000
  H   H1016     1.0  0.68232  0.27884  0.50501  1.0000
  H   H1017     1.0  0.84903  0.15134  0.57727  1.0000
  H   H1018     1.0  0.67590  0.30356  0.63808  1.0000
  H   H1019     1.0  0.68734  0.13474  0.95493  1.0000
  H   H1020     1.0  0.68666  0.28471  0.55210  1.0000
  C   C605      1.0  0.90119  0.06965  0.58064  1.0000
  C   C606      1.0  0.69698  0.03721  0.98808  1.0000
  H   H1021     1.0  0.81889  0.23241  0.57515  1.0000
  H   H1022     1.0  0.90151  0.09039  0.50164  1.0000
  H   H1023     1.0  0.95125  0.12486  0.67236  1.0000
  S   S136      1.0  0.56243  0.29561  0.49562  1.0000
  H   H1024     1.0  0.85951  0.22229  0.55188  1.0000
  C   C607      1.0  0.75417  0.31540  0.58926  1.0000
  C   C608      1.0  0.91067  0.04651  0.56424  1.0000
  N   N31       1.0  0.87420  0.17169  0.53128  1.0000
  H   H1025     1.0  0.93208  0.00150  0.75743  1.0000
  S   S137      1.0  0.84901  0.06981  0.51918  1.0000
  H   H1026     1.0  0.59432  0.25185  0.51075  1.0000
  C   C609      1.0  0.70015  0.29615  0.53939  1.0000
  C   C610      1.0  0.59264  0.04779  0.96813  1.0000
  H   H1027     1.0  0.89744  0.20701  0.53555  1.0000
  H   H1028     1.0  0.90931  0.14582  0.66311  1.0000
  H   H1029     1.0  0.96929  0.15137  0.65691  1.0000
  C   C611      1.0  0.95042  0.14050  0.65737  1.0000
  C   C612      1.0  0.58282  0.23829  0.60891  1.0000
  H   H1030     1.0  0.93896  0.23126  0.70170  1.0000
  H   H1031     1.0  0.74771  0.27727  0.64483  1.0000
  C   C613      1.0  0.95292  0.12824  0.74272  1.0000
  H   H1032     1.0  0.99537  0.05697  0.54607  1.0000
  H   H1033     1.0  0.96482  0.11395  0.62738  1.0000
  H   H1034     1.0  0.66345  0.09385  0.75432  1.0000
  H   H1035     1.0  0.79424  0.26838  0.78785  1.0000
  H   H1036     1.0  0.92182  0.08369  0.79728  1.0000
  H   H1037     1.0  0.95177  0.20343  0.66641  1.0000
  C   C614      1.0  0.71576  0.00356  0.89868  1.0000
  H   H1038     1.0  0.67401  0.07701  0.95928  1.0000
  H   H1039     1.0  0.95435  0.00103  0.78490  1.0000
  H   H1040     1.0  0.97698  0.08292  0.53125  1.0000
  C   C615      1.0  0.69461  0.02081  0.90147  1.0000
  C   C616      1.0  0.93492  0.05422  0.54748  1.0000
  H   H1041     1.0  0.54623  0.24854  0.62710  1.0000
  H   H1042     1.0  0.84024  0.19308  0.51772  1.0000
  H   H1043     1.0  0.80629  0.28605  0.75946  1.0000
  H   H1044     1.0  0.94141  0.04103  0.88169  1.0000
  H   H1045     1.0  0.88266  0.06423  0.59076  1.0000
  H   H1046     1.0  0.71086  0.09252  0.99069  1.0000
  H   H1047     1.0  0.94888  0.06429  0.56094  1.0000
  H   H1048     1.0  0.53963  0.02192  0.98579  1.0000
  H   H1049     1.0  0.92968  0.11426  0.63078  1.0000
  C   C617      1.0  0.69507  0.04455  0.88746  1.0000
  H   H1050     1.0  0.89396  0.04086  0.55151  1.0000
  H   H1051     1.0  0.91838  0.16818  0.72829  1.0000
  H   H1052     1.0  0.70554  0.00306  0.52323  1.0000
  H   H1053     1.0  0.87656  0.16077  0.70180  1.0000
  H   H1054     1.0  0.83268  0.16867  0.54081  1.0000
  C   C618      1.0  0.67964  0.12845  0.81872  1.0000
  H   H1055     1.0  0.76246  0.08476  0.58338  1.0000
  N   N32       1.0  0.94859  0.03214  0.53316  1.0000
  C   C619      1.0  0.72734  0.29900  0.55286  1.0000
  C   C620      1.0  0.93779  0.05785  0.84263  1.0000
  H   H1056     1.0  0.90326  0.20403  0.70639  1.0000
  H   H1057     1.0  0.69316  0.12409  0.83517  1.0000
  H   H1058     1.0  0.64981  0.10993  0.79577  1.0000
  S   S138      1.0  0.94412  0.19195  0.58723  1.0000
  C   C621      1.0  0.82878  0.01876  0.82645  1.0000
  H   H1059     1.0  0.76850  0.30109  0.68181  1.0000
  C   C622      1.0  0.87784  0.99673  0.73171  1.0000
  H   H1060     1.0  0.73279  0.27918  0.56024  1.0000
  H   H1061     1.0  0.77979  0.17360  0.53276  1.0000
  H   H1062     1.0  0.82701  0.26306  0.77604  1.0000
  H   H1063     1.0  0.94311  0.07672  0.83334  1.0000
  H   H1064     1.0  0.71102  0.26177  0.51646  1.0000
  N   N33       1.0  0.52895  0.29070  0.59331  1.0000
  C   C623      1.0  0.65661  0.04482  0.82032  1.0000
  H   H1065     1.0  0.69503  0.28296  0.68375  1.0000
  C   C624      1.0  0.95270  0.21521  0.70687  1.0000
  S   S139      1.0  0.82048  0.30130  0.70241  1.0000
  H   H1066     1.0  0.79353  0.10149  0.58587  1.0000
  H   H1067     1.0  0.72380  0.04576  0.80626  1.0000
  H   H1068     1.0  0.63673  0.08926  0.71487  1.0000
  H   H1069     1.0  0.69627  0.07827  0.81819  1.0000
  H   H1070     1.0  0.92446  0.17190  0.64546  1.0000
  H   H1071     1.0  0.98655  0.23488  0.68947  1.0000
  H   H1072     1.0  0.93061  0.17219  0.52465  1.0000
  H   H1073     1.0  0.75325  0.99645  0.88007  1.0000
  Fe  Fe69      1.0  0.90644  0.31835  0.74905  1.0000
  H   H1074     1.0  0.50473  0.25637  0.58616  1.0000
  H   H1075     1.0  0.85647  0.20379  0.71433  1.0000
  Fe  Fe70      1.0  0.98147  0.17732  0.56819  1.0000
  C   C625      1.0  0.85399  0.19540  0.69441  1.0000
  C   C626      1.0  0.94756  0.12672  0.63097  1.0000
  C   C627      1.0  0.59158  0.31223  0.53855  1.0000
  H   H1076     1.0  0.97312  0.27529  0.84179  1.0000
  H   H1077     1.0  0.90540  0.03192  0.84860  1.0000
  S   S140      1.0  0.99153  0.03625  0.68605  1.0000
  S   S141      1.0  0.93063  0.99521  0.66757  1.0000
  H   H1078     1.0  0.88553  0.14510  0.81097  1.0000
  C   C628      1.0  0.72740  0.00758  0.78894  1.0000
  H   H1079     1.0  0.91707  0.13210  0.80168  1.0000
  C   C629      1.0  0.89556  0.12854  0.80097  1.0000
  C   C630      1.0  0.50417  0.24900  0.53376  1.0000
  H   H1080     1.0  0.51449  0.00410  0.96807  1.0000
  H   H1081     1.0  0.79247  0.06697  0.57767  1.0000
  C   C631      1.0  0.93788  0.32018  0.83665  1.0000
  H   H1082     1.0  0.71449  0.29265  0.49929  1.0000
  H   H1083     1.0  0.64607  0.04232  0.96970  1.0000
  H   H1084     1.0  0.87891  0.28558  0.82820  1.0000
  H   H1085     1.0  0.70888  0.10835  0.94477  1.0000
  H   H1086     1.0  0.94948  0.04179  0.83375  1.0000
  H   H1087     1.0  0.91810  0.03217  0.50385  1.0000
  H   H1088     1.0  0.89579  0.10429  0.83505  1.0000
  H   H1089     1.0  0.86683  0.10150  0.81498  1.0000
  H   H1090     1.0  0.89712  0.06502  0.85340  1.0000
  H   H1091     1.0  0.72056  0.13320  0.96697  1.0000
  H   H1092     1.0  0.80431  0.29089  0.59176  1.0000
  H   H1093     1.0  0.82262  0.99838  0.83097  1.0000
  H   H1094     1.0  0.54399  0.31490  0.56198  1.0000
  C   C632      1.0  0.70656  0.31231  0.59373  1.0000
  H   H1095     1.0  0.88946  0.30280  0.85718  1.0000
  H   H1096     1.0  0.65214  0.00696  0.85969  1.0000
  H   H1097     1.0  0.96383  0.29438  0.86903  1.0000
  C   C633      1.0  0.80394  0.31248  0.58928  1.0000
  N   N34       1.0  0.72855  0.31877  0.57484  1.0000
  H   H1098     1.0  0.94104  0.21845  0.51487  1.0000
  H   H1099     1.0  0.98039  0.02901  0.50482  1.0000
  H   H1100     1.0  0.73503  0.01425  0.76970  1.0000
  C   C634      1.0  0.63595  0.00701  0.84512  1.0000
  H   H1101     1.0  0.70340  0.02086  0.82058  1.0000
  H   H1102     1.0  0.85087  0.00262  0.61995  1.0000
  H   H1103     1.0  0.96057  0.32211  0.79143  1.0000
  H   H1104     1.0  0.94597  0.99898  0.55945  1.0000
  C   C635      1.0  0.77974  0.32063  0.57363  1.0000
  H   H1105     1.0  0.69092  0.31548  0.53581  1.0000
  N   N35       1.0  0.96711  0.31628  0.83271  1.0000
  H   H1106     1.0  0.99065  0.31647  0.75392  1.0000
  H   H1107     1.0  0.72197  0.31986  0.63315  1.0000
  H   H1108     1.0  0.68715  0.31597  0.58446  1.0000
  C   C636      1.0  0.98630  0.99951  0.54534  1.0000
  H   H1109     1.0  0.72991  0.01039  0.98563  1.0000
  H   H1110     1.0  0.71956  0.07241  0.50517  1.0000
  H   H1111     1.0  0.67671  0.08195  0.51079  1.0000
  C   C637      1.0  0.98749  0.06430  0.52732  1.0000
  H   H1112     1.0  0.99172  0.28178  0.76108  1.0000
  H   H1113     1.0  0.63679  0.10859  0.51334  1.0000
  H   H1114     1.0  0.93327  0.32369  0.85765  1.0000
  H   H1115     1.0  0.68135  0.11345  0.49583  1.0000
  H   H1116     1.0  0.74437  0.00290  0.80172  1.0000
  H   H1117     1.0  0.61987  0.01983  0.85236  1.0000
  H   H1118     1.0  0.62950  0.01511  0.80445  1.0000
  C   C638      1.0  0.64601  0.01635  0.81851  1.0000
  H   H1119     1.0  0.68357  0.03755  0.49852  1.0000
  C   C639      1.0  0.86346  0.99508  0.60481  1.0000
  H   H1120     1.0  0.51403  0.32573  0.57483  1.0000
  H   H1121     1.0  0.66151  0.00244  0.81224  1.0000
  C   C640      1.0  0.70464  0.03404  0.49425  1.0000
  H   H1122     1.0  0.99453  0.21234  0.71560  1.0000
  Fe  Fe71      1.0  0.99523  0.15191  0.51667  1.0000
  H   H1123     1.0  0.88395  0.32048  0.82696  1.0000
  C   C641      1.0  0.70647  0.32760  0.62001  1.0000
  C   C642      1.0  0.93796  0.99470  0.50023  1.0000
  C   C643      1.0  0.64199  0.09882  0.49459  1.0000
  H   H1124     1.0  0.63112  0.07996  0.49341  1.0000
  C   C644      1.0  0.67162  0.09411  0.49360  1.0000
  H   H1125     1.0  0.59074  0.43956  0.40411  1.0000
  C   C645      1.0  0.52720  0.61187  0.29398  1.0000
  H   H1126     1.0  0.96824  0.55392  0.01431  1.0000
  H   H1127     1.0  0.85468  0.64796  0.99652  1.0000
  S   S142      1.0  0.52234  0.42190  0.46437  1.0000
  H   H1128     1.0  0.54236  0.59710  0.29264  1.0000
  H   H1129     1.0  0.52628  0.55655  0.40384  1.0000
  H   H1130     1.0  0.51333  0.36007  0.39426  1.0000
  C   C646      1.0  0.56918  0.43617  0.40354  1.0000
  H   H1131     1.0  0.57280  0.51518  0.32518  1.0000
  H   H1132     1.0  0.50071  0.33750  0.35207  1.0000
  H   H1133     1.0  0.62167  0.46715  0.30021  1.0000
  S   S143      1.0  0.92155  0.64476  0.99935  1.0000
  C   C647      1.0  0.50456  0.60690  0.30911  1.0000
  H   H1134     1.0  0.59825  0.46303  0.34206  1.0000
  H   H1135     1.0  0.51597  0.47203  0.44039  1.0000
  H   H1136     1.0  0.80784  0.65549  0.00803  1.0000
  C   C648      1.0  0.53041  0.63577  0.28040  1.0000
  H   H1137     1.0  0.59241  0.50909  0.35282  1.0000
  C   C649      1.0  0.98709  0.49889  0.02007  1.0000
  H   H1138     1.0  0.56549  0.41472  0.40303  1.0000
  H   H1139     1.0  0.97064  0.48814  0.01086  1.0000
  C   C650      1.0  0.61241  0.48469  0.30920  1.0000
  N   N36       1.0  0.55253  0.49478  0.35642  1.0000
  C   C651      1.0  0.53154  0.48082  0.34085  1.0000
  C   C652      1.0  0.55921  0.47936  0.38086  1.0000
  C   C653      1.0  0.54125  0.52081  0.36490  1.0000
  C   C654      1.0  0.57687  0.50015  0.34039  1.0000
  H   H1140     1.0  0.56729  0.44087  0.36197  1.0000
  C   C655      1.0  0.52216  0.49464  0.31552  1.0000
  C   C656      1.0  0.55880  0.53782  0.38306  1.0000
  C   C657      1.0  0.55723  0.44900  0.37936  1.0000
  Fe  Fe72      1.0  0.96454  0.63840  0.00791  1.0000
  H   H1141     1.0  0.56020  0.44412  0.42171  1.0000
  H   H1142     1.0  0.50139  0.51422  0.45524  1.0000
  C   C658      1.0  0.54398  0.56218  0.39234  1.0000
  H   H1143     1.0  0.51388  0.47771  0.35337  1.0000
  H   H1144     1.0  0.53788  0.46089  0.33504  1.0000
  H   H1145     1.0  0.57929  0.48454  0.38785  1.0000
  H   H1146     1.0  0.54580  0.48483  0.39727  1.0000
  H   H1147     1.0  0.52228  0.51754  0.37522  1.0000
  H   H1148     1.0  0.53673  0.53335  0.34773  1.0000
  H   H1149     1.0  0.62764  0.49543  0.32050  1.0000
  S   S144      1.0  0.51664  0.34409  0.45553  1.0000
  H   H1150     1.0  0.71610  0.65955  0.01503  1.0000
  C   C659      1.0  0.50405  0.43177  0.43703  1.0000
  H   H1151     1.0  0.90820  0.55212  0.00010  1.0000
  H   H1152     1.0  0.53893  0.49986  0.30266  1.0000
  H   H1153     1.0  0.57660  0.54463  0.37245  1.0000
  H   H1154     1.0  0.56505  0.52689  0.40069  1.0000
  H   H1155     1.0  0.53623  0.44298  0.37844  1.0000
  H   H1156     1.0  0.77541  0.66051  0.10170  1.0000
  H   H1157     1.0  0.53780  0.57426  0.37538  1.0000
  H   H1158     1.0  0.92563  0.57993  0.01384  1.0000
  C   C660      1.0  0.50388  0.47684  0.29977  1.0000
  H   H1159     1.0  0.57564  0.46513  0.31485  1.0000
  H   H1160     1.0  0.55694  0.57428  0.40497  1.0000
  C   C661      1.0  0.92015  0.56973  0.99542  1.0000
  H   H1161     1.0  0.51411  0.45851  0.29398  1.0000
  H   H1162     1.0  0.54785  0.63916  0.26871  1.0000
  C   C662      1.0  0.96259  0.54351  0.99599  1.0000
  H   H1163     1.0  0.60506  0.49747  0.29326  1.0000
  Fe  Fe73      1.0  0.51217  0.38132  0.47855  1.0000
  C   C663      1.0  0.58981  0.47619  0.32706  1.0000
  S   S145      1.0  0.50161  0.57638  0.32589  1.0000
  S   S146      1.0  0.97806  0.60577  0.03428  1.0000
  H   H1164     1.0  0.97890  0.51165  0.03574  1.0000
  C   C664      1.0  0.51096  0.65507  0.28180  1.0000
  H   H1165     1.0  0.94982  0.52720  0.00254  1.0000
  H   H1166     1.0  0.51101  0.51272  0.32026  1.0000
  C   C665      1.0  0.50464  0.45802  0.42924  1.0000
  H   H1167     1.0  0.49754  0.48705  0.28174  1.0000
  H   H1168     1.0  0.99382  0.46765  0.04804  1.0000
  S   S147      1.0  0.98202  0.45915  0.86869  1.0000
  C   C666      1.0  0.94475  0.56216  0.97998  1.0000
  S   S148      1.0  0.91029  0.62325  0.92717  1.0000
  H   H1169     1.0  0.55959  0.37860  0.59628  1.0000
  H   H1170     1.0  0.97285  0.53411  0.94246  1.0000
  C   C667      1.0  0.73577  0.35354  0.53797  1.0000
  S   S149      1.0  0.94357  0.52466  0.85958  1.0000
  H   H1171     1.0  0.94285  0.50317  0.92081  1.0000
  C   C668      1.0  0.54853  0.33753  0.59716  1.0000
  H   H1172     1.0  0.66397  0.33295  0.62256  1.0000
  H   H1173     1.0  0.55993  0.36286  0.56480  1.0000
  H   H1174     1.0  0.52896  0.37147  0.58016  1.0000
  Fe  Fe74      1.0  0.98160  0.50258  0.86184  1.0000
  H   H1175     1.0  0.95983  0.59321  0.92630  1.0000
  C   C669      1.0  0.95681  0.64425  0.86405  1.0000
  C   C670      1.0  0.93936  0.37388  0.78293  1.0000
  C   C671      1.0  0.96285  0.37200  0.76872  1.0000
  H   H1176     1.0  0.71000  0.34881  0.61685  1.0000
  H   H1177     1.0  0.75530  0.32884  0.60635  1.0000
  C   C672      1.0  0.95902  0.40901  0.80926  1.0000
  C   C673      1.0  0.93756  0.39262  0.80307  1.0000
  H   H1178     1.0  0.52684  0.41810  0.54521  1.0000
  C   C674      1.0  0.95950  0.61972  0.84615  1.0000
  H   H1179     1.0  0.95729  0.42318  0.82491  1.0000
  H   H1180     1.0  0.91949  0.39433  0.81415  1.0000
  C   C675      1.0  0.92088  0.59524  0.91001  1.0000
  C   C676      1.0  0.90333  0.58402  0.89226  1.0000
  C   C677      1.0  0.91066  0.56225  0.87736  1.0000
  C   C678      1.0  0.93566  0.55133  0.87996  1.0000
  C   C679      1.0  0.95350  0.56244  0.89770  1.0000
  C   C680      1.0  0.94607  0.58444  0.91282  1.0000
  H   H1181     1.0  0.88390  0.59227  0.88992  1.0000
  H   H1182     1.0  0.89683  0.55385  0.86363  1.0000
  H   H1183     1.0  0.95512  0.58063  0.97525  1.0000
  H   H1184     1.0  0.74799  0.39349  0.54723  1.0000
  H   H1185     1.0  0.97571  0.35617  0.82174  1.0000
  C   C681      1.0  0.54922  0.36420  0.58368  1.0000
  C   C682      1.0  0.96993  0.58156  0.80259  1.0000
  N   N37       1.0  0.98724  0.61043  0.84073  1.0000
  H   H1186     1.0  0.58231  0.33109  0.53605  1.0000
  H   H1187     1.0  0.96189  0.63942  0.88459  1.0000
  C   C683      1.0  0.96149  0.49646  0.95865  1.0000
  N   N38       1.0  0.98699  0.53361  0.98226  1.0000
  C   C684      1.0  0.98271  0.40676  0.79547  1.0000
  C   C685      1.0  0.98048  0.34225  0.83768  1.0000
  C   C686      1.0  0.51008  0.43085  0.55082  1.0000
  H   H1188     1.0  0.94326  0.50146  0.96941  1.0000
  H   H1189     1.0  0.70397  0.35224  0.56546  1.0000
  H   H1190     1.0  0.74209  0.38734  0.51303  1.0000
  C   C687      1.0  0.72517  0.34672  0.56567  1.0000
  C   C688      1.0  0.73503  0.38307  0.53316  1.0000
  S   S150      1.0  0.91245  0.35209  0.77794  1.0000
  C   C689      1.0  0.95326  0.48732  0.93144  1.0000
  H   H1191     1.0  0.71464  0.39059  0.53516  1.0000
  H   H1192     1.0  0.51771  0.44738  0.56276  1.0000
  H   H1193     1.0  0.91461  0.63904  0.86991  1.0000
  C   C690      1.0  0.97072  0.55371  0.79158  1.0000
  C   C691      1.0  0.98528  0.58345  0.82867  1.0000
  H   H1194     1.0  0.68100  0.33499  0.65338  1.0000
  H   H1195     1.0  0.98792  0.60354  0.88246  1.0000
  H   H1196     1.0  0.72347  0.34412  0.52273  1.0000
  H   H1197     1.0  0.93988  0.47019  0.93308  1.0000
  H   H1198     1.0  0.93815  0.55275  0.96156  1.0000
  H   H1199     1.0  0.56918  0.33119  0.59992  1.0000
  Fe  Fe75      1.0  0.93497  0.64324  0.95755  1.0000
  H   H1200     1.0  0.98715  0.63363  0.80531  1.0000
  H   H1201     1.0  0.94921  0.62432  0.82755  1.0000
  H   H1202     1.0  0.53950  0.34052  0.61667  1.0000
  H   H1203     1.0  0.96982  0.66031  0.85752  1.0000
  H   H1204     1.0  0.97854  0.59472  0.78760  1.0000
  S   S151      1.0  0.52869  0.36436  0.51559  1.0000
  H   H1205     1.0  0.51171  0.45128  0.51449  1.0000
  C   C692      1.0  0.98443  0.38825  0.77507  1.0000
  H   H1206     1.0  0.97302  0.55436  0.89942  1.0000
  S   S152      1.0  0.97694  0.63395  0.96603  1.0000
  H   H1207     1.0  0.94772  0.60385  0.85553  1.0000
  H   H1208     1.0  0.94894  0.58669  0.80553  1.0000
  H   H1209     1.0  0.93124  0.33820  0.82647  1.0000
  H   H1210     1.0  0.75620  0.34686  0.53493  1.0000
  H   H1211     1.0  0.90799  0.58326  0.98353  1.0000
  H   H1212     1.0  0.96446  0.35787  0.75302  1.0000
  H   H1213     1.0  0.97570  0.56979  0.84277  1.0000
  H   H1214     1.0  0.95316  0.36488  0.86207  1.0000
  H   H1215     1.0  0.95949  0.55282  0.77301  1.0000
  H   H1216     1.0  0.78166  0.34191  0.56965  1.0000
  H   H1217     1.0  0.96164  0.53972  0.80557  1.0000
  H   H1218     1.0  0.73439  0.36046  0.57991  1.0000
  H   H1219     1.0  0.99284  0.39282  0.85401  1.0000
  H   H1220     1.0  0.49619  0.41910  0.56278  1.0000
  H   H1221     1.0  0.99129  0.54763  0.78754  1.0000
  C   C693      1.0  0.49654  0.44098  0.52621  1.0000
  C   C694      1.0  0.99225  0.37827  0.87014  1.0000
  C   C695      1.0  0.97307  0.35608  0.86372  1.0000
  H   H1222     1.0  0.99404  0.57013  0.96152  1.0000
  H   H1223     1.0  0.97133  0.47970  0.96832  1.0000
  H   H1224     1.0  0.97077  0.48128  0.92002  1.0000
  H   H1225     1.0  0.97280  0.34207  0.88027  1.0000
  C   C696      1.0  0.98069  0.51993  0.95691  1.0000
  H   H1226     1.0  0.98581  0.38851  0.88825  1.0000
  C   C697      1.0  0.92868  0.65467  0.86413  1.0000
  Fe  Fe76      1.0  0.69529  0.92821  0.26610  1.0000
  S   S153      1.0  0.71498  0.91125  0.30131  1.0000
  S   S154      1.0  0.70714  0.92259  0.22365  1.0000
  Fe  Fe77      1.0  0.65063  0.95158  0.29896  1.0000
  S   S155      1.0  0.66700  0.93626  0.33681  1.0000
  S   S156      1.0  0.61027  0.96995  0.29774  1.0000
  Fe  Fe78      1.0  0.70616  0.94998  0.32112  1.0000
  S   S157      1.0  0.73939  0.97324  0.34067  1.0000
  Fe  Fe79      1.0  0.67410  0.89928  0.31370  1.0000
  S   S158      1.0  0.66440  0.85782  0.32638  1.0000
  S   S159      1.0  0.68904  0.96779  0.28451  1.0000
  S   S160      1.0  0.65527  0.91373  0.27719  1.0000
  Fe  Fe80      1.0  0.75874  0.82181  0.09317  1.0000
  S   S161      1.0  0.79404  0.81302  0.11801  1.0000
  S   S162      1.0  0.75587  0.86232  0.07593  1.0000
  Fe  Fe81      1.0  0.72914  0.77310  0.11158  1.0000
  S   S163      1.0  0.76172  0.76139  0.13842  1.0000
  S   S164      1.0  0.68941  0.75343  0.10741  1.0000
  Fe  Fe82      1.0  0.76420  0.80413  0.14911  1.0000
  S   S165      1.0  0.76918  0.82003  0.19026  1.0000
  Fe  Fe83      1.0  0.78871  0.77132  0.10459  1.0000
  S   S166      1.0  0.82032  0.74031  0.09740  1.0000
  S   S167      1.0  0.72935  0.81478  0.12500  1.0000
  S   S168      1.0  0.75555  0.78087  0.07694  1.0000
  Fe  Fe84      1.0  0.55515  0.74082  0.19344  1.0000
  S   S169      1.0  0.56525  0.69924  0.20365  1.0000
  S   S170      1.0  0.54632  0.75403  0.15236  1.0000
  Fe  Fe85      1.0  0.57189  0.76216  0.24691  1.0000
  S   S171      1.0  0.58411  0.72242  0.26138  1.0000
  S   S172      1.0  0.56975  0.80136  0.26775  1.0000
  Fe  Fe86      1.0  0.60158  0.71747  0.22085  1.0000
  S   S173      1.0  0.64263  0.70349  0.21132  1.0000
  Fe  Fe87      1.0  0.54659  0.70727  0.24308  1.0000
  S   S174      1.0  0.59249  0.75839  0.20852  1.0000
  S   S175      1.0  0.53347  0.74773  0.23089  1.0000
  C   C698      1.0  0.68172  0.80518  0.20017  1.0000
  H   H1227     1.0  0.68493  0.85301  0.12105  1.0000
  C   C699      1.0  0.84517  0.73687  0.07309  1.0000
  C   C700      1.0  0.85012  0.75617  0.05434  1.0000
  C   C701      1.0  0.86929  0.75196  0.03477  1.0000
  C   C702      1.0  0.88359  0.72839  0.03359  1.0000
  C   C703      1.0  0.87871  0.70914  0.05240  1.0000
  C   C704      1.0  0.85970  0.71343  0.07209  1.0000
  H   H1228     1.0  0.83928  0.77436  0.05499  1.0000
  N   N39       1.0  0.69440  0.78825  0.22082  1.0000
  H   H1229     1.0  0.88961  0.69096  0.05183  1.0000
  H   H1230     1.0  0.85611  0.69840  0.08655  1.0000
  C   C705      1.0  0.67648  0.73717  0.13512  1.0000
  C   C706      1.0  0.69298  0.72545  0.15352  1.0000
  C   C707      1.0  0.68230  0.71407  0.17628  1.0000
  C   C708      1.0  0.65515  0.71489  0.18109  1.0000
  C   C709      1.0  0.63858  0.72583  0.16224  1.0000
  C   C710      1.0  0.64920  0.73664  0.13920  1.0000
  H   H1231     1.0  0.71400  0.72534  0.15034  1.0000
  H   H1232     1.0  0.69520  0.70537  0.19060  1.0000
  H   H1233     1.0  0.61755  0.72611  0.16545  1.0000
  H   H1234     1.0  0.63623  0.74534  0.12495  1.0000
  H   H1235     1.0  0.80507  0.77731  0.01850  1.0000
  H   H1236     1.0  0.58057  0.91801  0.28574  1.0000
  H   H1237     1.0  0.52867  0.82904  0.10526  1.0000
  H   H1238     1.0  0.97821  0.76285  0.04750  1.0000
  C   C711      1.0  0.51019  0.74672  0.35350  1.0000
  H   H1239     1.0  0.51376  0.92992  0.20455  1.0000
  H   H1240     1.0  0.63182  0.78585  0.08061  1.0000
  H   H1241     1.0  0.59856  0.93904  0.15104  1.0000
  H   H1242     1.0  0.74701  0.68152  0.06850  1.0000
  C   C712      1.0  0.72380  0.89354  0.21523  1.0000
  C   C713      1.0  0.74179  0.88193  0.23222  1.0000
  C   C714      1.0  0.75600  0.85967  0.22419  1.0000
  C   C715      1.0  0.75218  0.84884  0.19923  1.0000
  C   C716      1.0  0.73414  0.86052  0.18235  1.0000
  C   C717      1.0  0.71999  0.88269  0.19036  1.0000
  H   H1243     1.0  0.74510  0.89034  0.25135  1.0000
  H   H1244     1.0  0.76992  0.85074  0.23738  1.0000
  H   H1245     1.0  0.73120  0.85269  0.16305  1.0000
  H   H1246     1.0  0.70632  0.89170  0.17707  1.0000
  C   C718      1.0  0.63894  0.84228  0.30854  1.0000
  C   C719      1.0  0.63913  0.81496  0.30516  1.0000
  C   C720      1.0  0.61872  0.80223  0.29149  1.0000
  C   C721      1.0  0.59751  0.81669  0.28189  1.0000
  C   C722      1.0  0.59719  0.84393  0.28554  1.0000
  C   C723      1.0  0.61794  0.85672  0.29846  1.0000
  H   H1247     1.0  0.65504  0.80362  0.31332  1.0000
  H   H1248     1.0  0.61875  0.78118  0.28947  1.0000
  H   H1249     1.0  0.58059  0.85516  0.27873  1.0000
  H   H1250     1.0  0.61712  0.87766  0.30160  1.0000
  C   C724      1.0  0.65464  0.83278  0.07983  1.0000
  H   H1251     1.0  0.52767  0.77719  0.10557  1.0000
  H   H1252     1.0  0.49675  0.75686  0.18106  1.0000
  H   H1253     1.0  0.57306  0.85890  0.02253  1.0000
  H   H1254     1.0  0.65588  0.80966  0.99914  1.0000
  H   H1255     1.0  0.52408  0.74913  0.37015  1.0000
  H   H1256     1.0  0.70879  0.77324  0.01772  1.0000
  C   C725      1.0  0.73076  0.84831  0.03033  1.0000
  C   C726      1.0  0.73651  0.86822  0.04825  1.0000
  C   C727      1.0  0.72691  0.89358  0.04407  1.0000
  C   C728      1.0  0.71170  0.89914  0.02195  1.0000
  H   H1257     1.0  0.73133  0.90900  0.05792  1.0000
  H   H1258     1.0  0.70447  0.91879  0.01875  1.0000
  H   H1259     1.0  0.67859  0.86450  0.06251  1.0000
  H   H1260     1.0  0.66523  0.87890  0.10710  1.0000
  C   C729      1.0  0.70809  0.80616  0.23994  1.0000
  C   C730      1.0  0.69132  0.82905  0.25073  1.0000
  C   C731      1.0  0.70422  0.84151  0.27459  1.0000
  C   C732      1.0  0.65194  0.80776  0.16025  1.0000
  H   H1261     1.0  0.72569  0.81502  0.23059  1.0000
  H   H1262     1.0  0.69621  0.81960  0.19230  1.0000
  H   H1263     1.0  0.66543  0.81688  0.20886  1.0000
  H   H1264     1.0  0.68950  0.84455  0.23559  1.0000
  H   H1265     1.0  0.69417  0.86023  0.27913  1.0000
  H   H1266     1.0  0.70253  0.82827  0.29173  1.0000
  H   H1267     1.0  0.72529  0.84577  0.27091  1.0000
  H   H1268     1.0  0.63446  0.81361  0.17193  1.0000
  H   H1269     1.0  0.66271  0.82541  0.15349  1.0000
  N   N40       1.0  0.73564  0.94965  0.13799  1.0000
  C   C733      1.0  0.75414  0.92896  0.14818  1.0000
  C   C734      1.0  0.72700  0.96672  0.16060  1.0000
  C   C735      1.0  0.71136  0.93601  0.12762  1.0000
  C   C736      1.0  0.74754  0.96584  0.11618  1.0000
  C   C737      1.0  0.77771  0.97047  0.11687  1.0000
  C   C738      1.0  0.76022  0.90604  0.12918  1.0000
  C   C739      1.0  0.68859  0.95420  0.11872  1.0000
  C   C740      1.0  0.74880  0.98140  0.17579  1.0000
  H   H1270     1.0  0.56332  0.98595  0.27158  1.0000
  H   H1271     1.0  0.53790  0.80480  0.31836  1.0000
  C   C741      1.0  0.78423  0.89049  0.13807  1.0000
  C   C742      1.0  0.66707  0.93881  0.10464  1.0000
  H   H1272     1.0  0.74616  0.92023  0.16642  1.0000
  H   H1273     1.0  0.77314  0.93756  0.15434  1.0000
  H   H1274     1.0  0.49651  0.76367  0.35509  1.0000
  H   H1275     1.0  0.71570  0.95467  0.17498  1.0000
  H   H1276     1.0  0.70323  0.92234  0.14257  1.0000
  H   H1277     1.0  0.71649  0.92369  0.11035  1.0000
  H   H1278     1.0  0.74364  0.95656  0.09679  1.0000
  H   H1279     1.0  0.82980  0.66345  0.03458  1.0000
  H   H1280     1.0  0.78831  0.95194  0.11268  1.0000
  S   S176      1.0  0.90699  0.72396  0.00807  1.0000
  H   H1281     1.0  0.74328  0.89226  0.12859  1.0000
  H   H1282     1.0  0.76387  0.91322  0.10902  1.0000
  H   H1283     1.0  0.69580  0.96959  0.10516  1.0000
  H   H1284     1.0  0.67914  0.96379  0.13582  1.0000
  H   H1285     1.0  0.76465  0.96813  0.18234  1.0000
  H   H1286     1.0  0.78463  0.91623  0.45337  1.0000
  H   H1287     1.0  0.81645  0.92916  0.35994  1.0000
  H   H1288     1.0  0.73776  0.98532  0.11523  1.0000
  C   C743      1.0  0.79256  0.93332  0.44247  1.0000
  H   H1289     1.0  0.58222  0.95216  0.23835  1.0000
  H   H1290     1.0  0.52872  0.78272  0.03363  1.0000
  C   C744      1.0  0.50602  0.88002  0.18668  1.0000
  H   H1291     1.0  0.80214  0.90295  0.13757  1.0000
  H   H1292     1.0  0.78129  0.88283  0.15819  1.0000
  H   H1293     1.0  0.78737  0.87359  0.12474  1.0000
  H   H1294     1.0  0.65146  0.95248  0.09806  1.0000
  H   H1295     1.0  0.78588  0.95149  0.45249  1.0000
  H   H1296     1.0  0.65806  0.92423  0.11803  1.0000
  H   H1297     1.0  0.57201  0.80024  0.36771  1.0000
  C   C745      1.0  0.78264  0.93324  0.41431  1.0000
  H   H1298     1.0  0.66184  0.75839  0.05288  1.0000
  C   C746      1.0  0.55897  0.67931  0.32908  1.0000
  H   H1299     1.0  0.78262  0.86360  0.37404  1.0000
  H   H1300     1.0  0.81763  0.84702  0.32595  1.0000
  S   S177      1.0  0.51983  0.84328  0.03171  1.0000
  H   H1301     1.0  0.52154  0.81231  0.20238  1.0000
  H   H1302     1.0  0.56362  0.67652  0.30801  1.0000
  C   C747      1.0  0.73618  0.69734  0.01533  1.0000
  H   H1303     1.0  0.56539  0.93230  0.08176  1.0000
  C   C748      1.0  0.67961  0.85031  0.07885  1.0000
  C   C749      1.0  0.50788  0.75943  0.30645  1.0000
  C   C750      1.0  0.73666  0.88981  0.38721  1.0000
  C   C751      1.0  0.56055  0.87249  0.01227  1.0000
  H   H1304     1.0  0.69577  0.88118  0.39617  1.0000
  C   C752      1.0  0.79167  0.90824  0.39948  1.0000
  C   C753      1.0  0.98313  0.76578  0.00540  1.0000
  H   H1305     1.0  0.74685  0.92875  0.37384  1.0000
  C   C754      1.0  0.77067  0.68171  0.10285  1.0000
  C   C755      1.0  0.75334  0.74031  0.20896  1.0000
  H   H1306     1.0  0.59290  0.89455  0.99607  1.0000
  C   C756      1.0  0.70727  0.89450  0.38334  1.0000
  H   H1307     1.0  0.56109  0.76436  0.31263  1.0000
  H   H1308     1.0  0.67513  0.92874  0.08706  1.0000
  N   N41       1.0  0.52476  0.74772  0.32767  1.0000
  H   H1309     1.0  0.74098  0.89303  0.40821  1.0000
  C   C757      1.0  0.76427  0.69258  0.07576  1.0000
  H   H1310     1.0  0.78547  0.89082  0.41104  1.0000
  H   H1311     1.0  0.72972  0.70181  0.03551  1.0000
  H   H1312     1.0  0.63542  0.86229  0.17833  1.0000
  H   H1313     1.0  0.66139  0.87752  0.15966  1.0000
  C   C758      1.0  0.55604  0.70845  0.33535  1.0000
  H   H1314     1.0  0.58316  0.78192  0.09368  1.0000
  H   H1315     1.0  0.50918  0.82381  0.15032  1.0000
  C   C759      1.0  0.64938  0.87903  0.17774  1.0000
  H   H1316     1.0  0.86223  0.68184  0.00281  1.0000
  H   H1317     1.0  0.67126  0.82241  0.25623  1.0000
  H   H1318     1.0  0.63988  0.96417  0.23981  1.0000
  H   H1319     1.0  0.73827  0.82877  0.03343  1.0000
  H   H1320     1.0  0.66269  0.87778  0.19489  1.0000
  H   H1321     1.0  0.53373  0.83808  0.17039  1.0000
  H   H1322     1.0  0.76089  0.73352  0.04194  1.0000
  C   C760      1.0  0.75312  0.90837  0.36958  1.0000
  C   C761      1.0  0.63442  0.90496  0.17796  1.0000
  H   H1323     1.0  0.61018  0.93462  0.24890  1.0000
  H   H1324     1.0  0.72843  0.78418  0.19583  1.0000
  H   H1325     1.0  0.64505  0.79666  0.14285  1.0000
  H   H1326     1.0  0.58463  0.96813  0.16502  1.0000
  C   C762      1.0  0.51155  0.77697  0.11938  1.0000
  H   H1327     1.0  0.64913  0.92091  0.17597  1.0000
  H   H1328     1.0  0.60101  0.82550  0.08392  1.0000
  H   H1329     1.0  0.71620  0.79526  0.25676  1.0000
  C   C763      1.0  0.77927  0.74550  0.00611  1.0000
  H   H1330     1.0  0.53955  0.95081  0.15658  1.0000
  H   H1331     1.0  0.84733  0.84437  0.34483  1.0000
  H   H1332     1.0  0.54111  0.87451  0.14261  1.0000
  H   H1333     1.0  0.98437  0.78746  0.00624  1.0000
  C   C764      1.0  0.72739  0.97843  0.39377  1.0000
  C   C765      1.0  0.52815  0.95868  0.05220  1.0000
  H   H1334     1.0  0.66455  0.72275  0.26087  1.0000
  H   H1335     1.0  0.65599  0.94064  0.21954  1.0000
  C   C766      1.0  0.52362  0.93866  0.07460  1.0000
  H   H1336     1.0  0.55212  0.93321  0.27106  1.0000
  H   H1337     1.0  0.50628  0.92605  0.07077  1.0000
  C   C767      1.0  0.66995  0.79034  0.17645  1.0000
  H   H1338     1.0  0.68603  0.78367  0.16332  1.0000
  H   H1339     1.0  0.63182  0.90460  0.22020  1.0000
  C   C768      1.0  0.54321  0.79444  0.33669  1.0000
  H   H1340     1.0  0.60470  0.89055  0.20405  1.0000
  H   H1341     1.0  0.62808  0.84677  0.03788  1.0000
  C   C769      1.0  0.68261  0.86619  0.10400  1.0000
  H   H1342     1.0  0.66001  0.73857  0.29206  1.0000
  C   C770      1.0  0.51513  0.76606  0.14422  1.0000
  H   H1343     1.0  0.70206  0.91505  0.38834  1.0000
  H   H1344     1.0  0.56248  0.94402  0.19925  1.0000
  H   H1345     1.0  0.82598  0.94944  0.31590  1.0000
  C   C771      1.0  0.71481  0.77156  0.20732  1.0000
  C   C772      1.0  0.55696  0.94298  0.14603  1.0000
  C   C773      1.0  0.61823  0.90771  0.20343  1.0000
  C   C774      1.0  0.64492  0.95917  0.21934  1.0000
  H   H1346     1.0  0.76463  0.72684  0.22169  1.0000
  H   H1347     1.0  0.82672  0.71023  0.02612  1.0000
  C   C775      1.0  0.96790  0.75647  0.02947  1.0000
  H   H1348     1.0  0.57130  0.91309  0.18628  1.0000
  H   H1349     1.0  0.62132  0.90484  0.16074  1.0000
  H   H1350     1.0  0.76395  0.66539  0.02008  1.0000
  H   H1351     1.0  0.74087  0.76409  0.24107  1.0000
  H   H1352     1.0  0.68000  0.98306  0.22271  1.0000
  H   H1353     1.0  0.70550  0.75845  0.19286  1.0000
  H   H1354     1.0  0.65398  0.78131  0.23318  1.0000
  H   H1355     1.0  0.67448  0.78030  0.27534  1.0000
  H   H1356     1.0  0.65835  0.77317  0.18297  1.0000
  H   H1357     1.0  0.69809  0.75616  0.26597  1.0000
  H   H1358     1.0  0.55035  0.90863  0.05998  1.0000
  H   H1359     1.0  0.76092  0.93470  0.41511  1.0000
  H   H1360     1.0  0.74504  0.72880  0.19246  1.0000
  H   H1361     1.0  0.79050  0.95109  0.40475  1.0000
  N   N42       1.0  0.60302  0.93283  0.20701  1.0000
  C   C776      1.0  0.61981  0.95684  0.20242  1.0000
  H   H1362     1.0  0.62637  0.95794  0.18175  1.0000
  H   H1363     1.0  0.58835  0.89234  0.24531  1.0000
  C   C777      1.0  0.51635  0.84288  0.15819  1.0000
  C   C778      1.0  0.67347  0.77135  0.23345  1.0000
  C   C779      1.0  0.73140  0.75331  0.22480  1.0000
  H   H1364     1.0  0.67127  0.97485  0.18956  1.0000
  H   H1365     1.0  0.69767  0.83841  0.07654  1.0000
  H   H1366     1.0  0.55197  0.85503  0.10056  1.0000
  C   C780      1.0  0.59351  0.93384  0.23500  1.0000
  C   C781      1.0  0.57628  0.91040  0.24401  1.0000
  H   H1367     1.0  0.65602  0.82058  0.09786  1.0000
  H   H1368     1.0  0.63854  0.74638  0.26516  1.0000
  C   C782      1.0  0.67791  0.76323  0.26234  1.0000
  H   H1369     1.0  0.67048  0.75315  0.22179  1.0000
  C   C783      1.0  0.54734  0.92064  0.07790  1.0000
  H   H1370     1.0  0.59365  0.82160  0.04965  1.0000
  H   H1371     1.0  0.70161  0.89048  0.36274  1.0000
  H   H1372     1.0  0.54181  0.72242  0.29832  1.0000
  C   C784      1.0  0.56463  0.91539  0.27114  1.0000
  H   H1373     1.0  0.54290  0.97331  0.05918  1.0000
  C   C785      1.0  0.69797  0.76020  0.03141  1.0000
  C   C786      1.0  0.54241  0.84245  0.11553  1.0000
  H   H1374     1.0  0.55373  0.92195  0.14154  1.0000
  C   C787      1.0  0.80345  0.76294  0.00223  1.0000
  H   H1375     1.0  0.71882  0.73740  0.23273  1.0000
  C   C788      1.0  0.70660  0.87949  0.00359  1.0000
  H   H1376     1.0  0.96636  0.73480  0.02965  1.0000
  C   C789      1.0  0.57895  0.93328  0.18953  1.0000
  C   C790      1.0  0.62706  0.79767  0.06289  1.0000
  C   C791      1.0  0.53410  0.72115  0.31865  1.0000
  H   H1377     1.0  0.68487  0.79554  0.07043  1.0000
  H   H1378     1.0  0.55774  0.83072  0.12556  1.0000
  N   N43       1.0  0.78530  0.70083  0.02979  1.0000
  C   C792      1.0  0.58173  0.94669  0.16242  1.0000
  H   H1379     1.0  0.60797  0.97492  0.20589  1.0000
  C   C793      1.0  0.82579  0.84768  0.34607  1.0000
  N   N44       1.0  0.50387  0.97238  0.04215  1.0000
  C   C794      1.0  0.57890  0.79124  0.07452  1.0000
  H   H1380     1.0  0.74660  0.90466  0.34921  1.0000
  H   H1381     1.0  0.68898  0.81091  0.03968  1.0000
  H   H1382     1.0  0.80004  0.90800  0.31742  1.0000
  C   C795      1.0  0.65903  0.74144  0.27058  1.0000
  H   H1383     1.0  0.78118  0.87565  0.34174  1.0000
  C   C796      1.0  0.67140  0.77203  0.03881  1.0000
  H   H1384     1.0  0.55991  0.90671  0.23028  1.0000
  C   C797      1.0  0.80449  0.94935  0.31214  1.0000
  H   H1385     1.0  0.49809  0.92685  0.14377  1.0000
  H   H1386     1.0  0.80126  0.94799  0.29071  1.0000
  H   H1387     1.0  0.55902  0.95390  0.12738  1.0000
  H   H1388     1.0  0.82172  0.75117  0.00124  1.0000
  Fe  Fe88      1.0  0.64965  0.97123  0.00806  1.0000
  C   C798      1.0  0.60016  0.81127  0.06756  1.0000
  C   C799      1.0  0.79504  0.92764  0.35580  1.0000
  C   C800      1.0  0.79042  0.87933  0.36114  1.0000
  H   H1389     1.0  0.71206  0.83881  0.99365  1.0000
  H   H1390     1.0  0.56141  0.75774  0.34672  1.0000
  H   H1391     1.0  0.52052  0.94916  0.09340  1.0000
  H   H1392     1.0  0.62353  0.78308  0.04722  1.0000
  C   C801      1.0  0.54870  0.76509  0.33068  1.0000
  H   H1393     1.0  0.69650  0.68669  0.00401  1.0000
  C   C802      1.0  0.82041  0.87429  0.35874  1.0000
  H   H1394     1.0  0.66142  0.84554  0.02866  1.0000
  H   H1395     1.0  0.78445  0.97774  0.13610  1.0000
  H   H1396     1.0  0.55955  0.80118  0.07587  1.0000
  N   N45       1.0  0.78259  0.90588  0.37152  1.0000
  C   C803      1.0  0.63776  0.81876  0.00717  1.0000
  C   C804      1.0  0.67465  0.79948  0.05160  1.0000
  C   C805      1.0  0.71599  0.85402  0.00788  1.0000
  H   H1397     1.0  0.70996  0.75700  0.04921  1.0000
  H   H1398     1.0  0.74055  0.86899  0.38236  1.0000
  C   C806      1.0  0.77998  0.72982  0.03221  1.0000
  C   C807      1.0  0.52731  0.85945  0.13505  1.0000
  H   H1399     1.0  0.53789  0.94762  0.03607  1.0000
  C   C808      1.0  0.64422  0.83283  0.03318  1.0000
  H   H1400     1.0  0.70045  0.87865  0.10253  1.0000
  H   H1401     1.0  0.76707  0.75535  0.20111  1.0000
  H   H1402     1.0  0.65922  0.77262  0.02098  1.0000
  H   H1403     1.0  0.63790  0.84641  0.08287  1.0000
  H   H1404     1.0  0.51763  0.70699  0.31728  1.0000
  N   N46       1.0  0.64996  0.81542  0.05629  1.0000
  H   H1405     1.0  0.57751  0.77579  0.05928  1.0000
  H   H1406     1.0  0.81352  0.90830  0.40032  1.0000
  H   H1407     1.0  0.77022  0.92653  0.32050  1.0000
  H   H1408     1.0  0.79587  0.96809  0.31916  1.0000
  H   H1409     1.0  0.76183  0.75863  0.00642  1.0000
  H   H1410     1.0  0.75902  0.71345  0.07862  1.0000
  H   H1411     1.0  0.55238  0.89841  0.27717  1.0000
  C   C809      1.0  0.81163  0.69785  0.01630  1.0000
  H   H1412     1.0  0.78759  0.69240  0.11152  1.0000
  H   H1413     1.0  0.79448  0.73906  0.04570  1.0000
  H   H1414     1.0  0.82972  0.87423  0.37834  1.0000
  C   C810      1.0  0.53320  0.86969  0.01386  1.0000
  H   H1415     1.0  0.81693  0.83166  0.35786  1.0000
  H   H1416     1.0  0.75344  0.68431  0.11600  1.0000
  H   H1417     1.0  0.50768  0.70475  0.36334  1.0000
  H   H1418     1.0  0.73488  0.71572  0.00389  1.0000
  C   C811      1.0  0.71651  0.67801  0.00356  1.0000
  H   H1419     1.0  0.55203  0.71067  0.35657  1.0000
  C   C812      1.0  0.51265  0.99268  0.02252  1.0000
  H   H1420     1.0  0.80555  0.69723  0.06664  1.0000
  H   H1421     1.0  0.83033  0.88935  0.34661  1.0000
  H   H1422     1.0  0.54383  0.90716  0.09455  1.0000
  H   H1423     1.0  0.78688  0.94688  0.36193  1.0000
  C   C813      1.0  0.79133  0.92610  0.32570  1.0000
  S   S178      1.0  0.97380  0.68146  0.01017  1.0000
  H   H1424     1.0  0.87301  0.76704  0.02039  1.0000
  H   H1425     1.0  0.81068  0.70515  0.99586  1.0000
  H   H1426     1.0  0.51339  0.89353  0.17132  1.0000
  C   C814      1.0  0.56740  0.80811  0.34803  1.0000
  H   H1427     1.0  0.51166  0.86963  0.12405  1.0000
  H   H1428     1.0  0.52363  0.87540  0.19858  1.0000
  C   C815      1.0  0.53747  0.77543  0.01504  1.0000
  H   H1429     1.0  0.81438  0.93291  0.44293  1.0000
  S   S179      1.0  0.51335  0.68537  0.26464  1.0000
  C   C816      1.0  0.50116  0.91831  0.21802  1.0000
  C   C817      1.0  0.78786  0.68914  0.05681  1.0000
  H   H1430     1.0  0.58470  0.80532  0.33509  1.0000
  H   H1431     1.0  0.57521  0.71800  0.33099  1.0000
  H   H1432     1.0  0.62235  0.80361  0.00966  1.0000
  C   C818      1.0  0.66332  0.98049  0.20900  1.0000
  H   H1433     1.0  0.72995  0.97943  0.21413  1.0000
  H   H1434     1.0  0.69482  0.74097  0.02176  1.0000
  H   H1435     1.0  0.94777  0.76487  0.02969  1.0000
  C   C819      1.0  0.50755  0.82503  0.21324  1.0000
  H   H1436     1.0  0.51946  0.76100  0.28794  1.0000
  H   H1437     1.0  0.49605  0.88546  0.00163  1.0000
  H   H1438     1.0  0.92281  0.96633  0.47237  1.0000
  H   H1439     1.0  0.52687  0.79686  0.35088  1.0000
  H   H1440     1.0  0.70951  0.96767  0.38977  1.0000
  H   H1441     1.0  0.71341  0.98231  0.15386  1.0000
  H   H1442     1.0  0.80787  0.99279  0.09665  1.0000
  C   C820      1.0  0.74474  0.98426  0.37330  1.0000
  H   H1443     1.0  0.56364  0.82947  0.34983  1.0000
  H   H1444     1.0  0.54057  0.66853  0.33384  1.0000
  S   S180      1.0  0.63519  0.93006  0.00386  1.0000
  Fe  Fe89      1.0  0.93161  0.68774  0.99801  1.0000
  H   H1445     1.0  0.51337  0.90986  0.23381  1.0000
  C   C821      1.0  0.60484  0.99401  0.27388  1.0000
  H   H1446     1.0  0.79123  0.66765  0.05557  1.0000
  H   H1447     1.0  0.57521  0.67087  0.34079  1.0000
  H   H1448     1.0  0.54992  0.75819  0.01954  1.0000
  H   H1449     1.0  0.51095  0.80073  0.24779  1.0000
  H   H1450     1.0  0.78054  0.98341  0.07632  1.0000
  C   C822      1.0  0.78618  0.99034  0.09615  1.0000
  C   C823      1.0  0.76463  0.68637  0.01416  1.0000
  C   C824      1.0  0.91562  0.98349  0.48367  1.0000
  H   H1451     1.0  0.51865  0.84095  0.22299  1.0000
  S   S181      1.0  0.65056  0.98986  0.04834  1.0000
  H   H1452     1.0  0.50419  0.75185  0.00549  1.0000
  H   H1453     1.0  0.55013  0.79104  0.00657  1.0000
  C   C825      1.0  0.51713  0.88738  0.00057  1.0000
  H   H1454     1.0  0.55156  0.97998  0.00876  1.0000
  C   C826      1.0  0.53147  0.98278  0.00076  1.0000
  C   C827      1.0  0.82287  0.66964  0.01496  1.0000
  H   H1455     1.0  0.72000  0.98134  0.43530  1.0000
  C   C828      1.0  0.57182  0.89282  0.99746  1.0000
  H   H1456     1.0  0.49684  0.93519  0.02269  1.0000
  C   C829      1.0  0.73759  0.99447  0.20034  1.0000
  H   H1457     1.0  0.50203  0.77978  0.31150  1.0000
  C   C830      1.0  0.51583  0.76752  0.99589  1.0000
  C   C831      1.0  0.84651  0.66812  0.99646  1.0000
  C   C832      1.0  0.73342  0.98621  0.41958  1.0000
  H   H1458     1.0  0.94284  0.80120  0.99440  1.0000
  Fe  Fe90      1.0  0.61264  0.94479  0.96946  1.0000
  H   H1459     1.0  0.97619  0.85903  0.79981  1.0000
  S   S182      1.0  0.56927  0.93586  0.96477  1.0000
  H   H1460     1.0  0.98877  0.81550  0.81466  1.0000
  C   C833      1.0  0.62794  0.83811  0.98665  1.0000
  H   H1461     1.0  0.53246  0.78835  0.89544  1.0000
  C   C834      1.0  0.96628  0.75837  0.93180  1.0000
  C   C835      1.0  0.89058  0.86361  0.74480  1.0000
  S   S183      1.0  0.64461  0.93785  0.93980  1.0000
  H   H1462     1.0  0.60883  0.84659  0.99270  1.0000
  Fe  Fe91      1.0  0.92588  0.96542  0.69942  1.0000
  S   S184      1.0  0.93523  0.93099  0.67359  1.0000
  H   H1463     1.0  0.96629  0.89882  0.76669  1.0000
  H   H1464     1.0  0.95615  0.94595  0.77273  1.0000
  H   H1465     1.0  0.94171  0.84599  0.97489  1.0000
  C   C836      1.0  0.92753  0.83055  0.96888  1.0000
  Fe  Fe92      1.0  0.94345  0.96125  0.64288  1.0000
  S   S185      1.0  0.93266  0.95660  0.60043  1.0000
  Fe  Fe93      1.0  0.97707  0.93748  0.68608  1.0000
  H   H1466     1.0  0.92703  0.88662  0.71864  1.0000
  H   H1467     1.0  0.93807  0.71891  0.90642  1.0000
  H   H1468     1.0  0.51196  0.80685  0.98185  1.0000
  H   H1469     1.0  0.92770  0.74493  0.94680  1.0000
  C   C837      1.0  0.52839  0.90737  0.98531  1.0000
  S   S186      1.0  0.62495  0.98645  0.97542  1.0000
  H   H1470     1.0  0.92664  0.77433  0.92707  1.0000
  H   H1471     1.0  0.97966  0.81348  0.96679  1.0000
  H   H1472     1.0  0.94780  0.83767  0.79964  1.0000
  H   H1473     1.0  0.72172  0.67352  0.98292  1.0000
  H   H1474     1.0  0.79177  0.98698  0.67570  1.0000
  C   C838      1.0  0.96528  0.79989  0.95747  1.0000
  C   C839      1.0  0.99362  0.97883  0.56562  1.0000
  H   H1475     1.0  0.96124  0.88602  0.72177  1.0000
  N   N47       1.0  0.94103  0.86737  0.75393  1.0000
  H   H1476     1.0  0.97879  0.96283  0.56576  1.0000
  S   S187      1.0  0.68897  0.88646  0.97498  1.0000
  C   C840      1.0  0.94338  0.87396  0.72524  1.0000
  Fe  Fe94      1.0  0.98259  0.67738  0.96729  1.0000
  H   H1477     1.0  0.91042  0.85834  0.78201  1.0000
  H   H1478     1.0  0.52850  0.75818  0.91325  1.0000
  S   S188      1.0  0.68529  0.96540  0.98246  1.0000
  C   C841      1.0  0.49839  0.79136  0.98889  1.0000
  H   H1479     1.0  0.97524  0.73858  0.93070  1.0000
  H   H1480     1.0  0.50226  0.77008  0.89255  1.0000
  H   H1481     1.0  0.95541  0.87281  0.67181  1.0000
  H   H1482     1.0  0.62519  0.82788  0.96768  1.0000
  C   C842      1.0  0.92913  0.73870  0.90534  1.0000
  C   C843      1.0  0.51813  0.77596  0.90625  1.0000
  H   H1483     1.0  0.88896  0.88514  0.74314  1.0000
  H   H1484     1.0  0.98466  0.98962  0.52616  1.0000
  C   C844      1.0  0.90271  0.97142  0.59220  1.0000
  H   H1485     1.0  0.98068  0.68691  0.90867  1.0000
  C   C845      1.0  0.50684  0.79142  0.92931  1.0000
  H   H1486     1.0  0.81484  0.98329  0.70216  1.0000
  H   H1487     1.0  0.93620  0.74851  0.88725  1.0000
  H   H1488     1.0  0.86225  0.86183  0.77685  1.0000
  C   C846      1.0  0.91491  0.85499  0.76094  1.0000
  H   H1489     1.0  0.98190  0.85563  0.75280  1.0000
  H   H1490     1.0  0.89103  0.97866  0.63200  1.0000
  H   H1491     1.0  0.92412  0.78871  0.96778  1.0000
  H   H1492     1.0  0.92697  0.67098  0.87845  1.0000
  S   S189      1.0  0.94155  0.68655  0.95508  1.0000
  H   H1493     1.0  0.94888  0.75422  0.98268  1.0000
  H   H1494     1.0  0.49748  0.80920  0.92112  1.0000
  H   H1495     1.0  0.86540  0.83169  0.75829  1.0000
  H   H1496     1.0  0.52355  0.79720  0.94191  1.0000
  S   S190      1.0  0.96701  0.96933  0.71473  1.0000
  C   C847      1.0  0.96276  0.84828  0.76041  1.0000
  H   H1497     1.0  0.71573  0.98524  0.90928  1.0000
  C   C848      1.0  0.89557  0.97397  0.56587  1.0000
  H   H1498     1.0  0.90940  0.83269  0.98086  1.0000
  H   H1499     1.0  0.92239  0.95586  0.77669  1.0000
  C   C849      1.0  0.92723  0.91534  0.76490  1.0000
  Fe  Fe95      1.0  0.66808  0.92540  0.97503  1.0000
  C   C850      1.0  0.86509  0.85341  0.75699  1.0000
  H   H1500     1.0  0.94483  0.97868  0.51312  1.0000
  C   C851      1.0  0.55578  0.91033  0.98386  1.0000
  H   H1501     1.0  0.86771  0.99053  0.53867  1.0000
  H   H1502     1.0  0.92228  0.83332  0.94801  1.0000
  Fe  Fe96      1.0  0.65958  0.97856  0.94907  1.0000
  H   H1503     1.0  0.84815  0.85928  0.74468  1.0000
  C   C852      1.0  0.93649  0.93961  0.77986  1.0000
  H   H1504     1.0  0.62825  0.98670  0.84341  1.0000
  C   C853      1.0  0.96677  0.84209  0.78984  1.0000
  H   H1505     1.0  0.97709  0.73554  0.97646  1.0000
  C   C854      1.0  0.93922  0.80335  0.97313  1.0000
  C   C855      1.0  0.93616  0.75496  0.92951  1.0000
  H   H1506     1.0  0.89180  0.85559  0.72464  1.0000
  H   H1507     1.0  0.90746  0.73636  0.90412  1.0000
  H   H1508     1.0  0.51583  0.92056  0.97456  1.0000
  S   S191      1.0  0.98603  0.96530  0.65325  1.0000
  H   H1509     1.0  0.92647  0.92073  0.74395  1.0000
  H   H1510     1.0  0.90716  0.91071  0.77205  1.0000
  H   H1511     1.0  0.84308  0.98272  0.75146  1.0000
  N   N48       1.0  0.97641  0.77249  0.95571  1.0000
  H   H1512     1.0  0.90787  0.96551  0.55080  1.0000
  H   H1513     1.0  0.97220  0.76871  0.91363  1.0000
  H   H1514     1.0  0.71559  0.98948  0.78615  1.0000
  C   C856      1.0  0.97035  0.75611  0.97954  1.0000
  H   H1515     1.0  0.95941  0.82917  0.75042  1.0000
  C   C857      1.0  0.94577  0.89188  0.76984  1.0000
  C   C858      1.0  0.94045  0.85820  0.67804  1.0000
  H   H1516     1.0  0.97771  0.70527  0.86368  1.0000
  S   S192      1.0  0.89087  0.96526  0.72657  1.0000
  H   H1517     1.0  0.97596  0.80048  0.78543  1.0000
  H   H1518     1.0  0.94404  0.88769  0.79111  1.0000
  H   H1519     1.0  0.91583  0.83327  0.75880  1.0000
  C   C859      1.0  0.87289  0.98807  0.55900  1.0000
  H   H1520     1.0  0.92052  0.86668  0.67565  1.0000
  H   H1521     1.0  0.93751  0.93555  0.80116  1.0000
  H   H1522     1.0  0.94217  0.84079  0.66510  1.0000
  H   H1523     1.0  0.52548  0.75941  0.97816  1.0000
  H   H1524     1.0  0.80157  0.77400  0.98365  1.0000
  H   H1525     1.0  0.82667  0.98411  0.66897  1.0000
  H   H1526     1.0  0.96501  0.84132  0.70739  1.0000
  H   H1527     1.0  0.89901  0.97704  0.49628  1.0000
  H   H1528     1.0  0.93047  0.83484  0.71172  1.0000
  C   C860      1.0  0.94506  0.85013  0.70641  1.0000
  C   C861      1.0  0.98498  0.81858  0.79351  1.0000
  H   H1529     1.0  0.52457  0.96383  0.99272  1.0000
  H   H1530     1.0  0.96227  0.80792  0.93746  1.0000
  C   C862      1.0  0.88629  0.98150  0.61165  1.0000
  H   H1531     1.0  0.84067  0.67301  0.97614  1.0000
  H   H1532     1.0  0.64234  0.85422  0.98372  1.0000
  H   H1533     1.0  0.99475  0.98763  0.58548  1.0000
  H   H1534     1.0  0.77682  0.73264  0.98879  1.0000
  C   C863      1.0  0.99434  0.70999  0.87592  1.0000
  C   C864      1.0  0.81175  0.99228  0.68265  1.0000
  H   H1535     1.0  0.92332  0.66213  0.84448  1.0000
  H   H1536     1.0  0.76998  0.68585  0.99301  1.0000
