data_image0
_chemical_formula_structural       CHSH7FeS3CS2FeS2FeS2FeHFeHS2C2HFeS2H2SFeSHFeS2FeS2Fe3S3C6H4CHCHCHC4SH3C6H5C6H4CHC4H4SHCHCH2CHCHC3HNC12H22C3H5C2H2CHFeH2S2C2H4CSCHNC2SH4C2H2CH3CH2CHCHNCH2NHFeCH5SH3CHCFeH2CHCSC2H2CHCH13FeCH8CH4CHC3H6NCHC4SH2CH2CH5C2H2CH4C2H2CH4C3HC2H3SC2H10FeC2H7C2HFeSHCH9C2H11CSC2H3C3H2SH3CFeS2FeS2FeSFeSFeS3FeS2FeS2FeSFeCS2HS2HFeS2FeS2FeS2FeSFeS3HC6H5C2HC6H4C2H2C2H2C6H4C6H7SHC6H8CHCHC2H4SH3CH2C2H4CH5CH4C2H5CH2CH2CHCHCHC2H2NC7H15CH3C2NHCSH2C2H2CHC2H8CH4CHNCHCH3CFeCH2CHC2H7CH4CHCH2CH4CH2SCHC4H3CNC12H27NC11H17CH8CH3C2H2SNFeCH9NHC2H2CHCH4C3HC2NH3CHFeH7C2H6SCH3FeH2CHCNHCH4FeH2C3H3SHFeS2FeS2FeSFeS3FeS2H4FeSFeS2FeSFeS3FeS2FeSHFeSFeS3C6H7CH2C6H5SHCH3C5H2NCH2C6H4C6H4C4H2C6H5CHNC4HCH2C2H3CH11FeC3H4C2HCNC5HC5H9CH16SH3NC11H19CH6SH2CHCH4CH2C2HC2HC2H2SH3CHCH13C2H5CH6C4HCHC2H3C2H5NHNCHC2H3CH3C3HC2H2CH7CH7C2H3NC12H31FeCH2C3H2CH2CH8FeHC2H2CH2C2H4CHC2H3C2H3CHCH4NH3CHSHS2HCHCH3CSFeS2FeS2FeSFeHS2FeSH2SCFeSCSFeS2HFeHFeS3FeSHFeS2FeSFeS3HC6H4C4HCNHC6H4C6H5C6H6C7H5C2HC3H2C2HCH5CH4CH3S2H7CH4FeCH2CH2CH3CHCH14CH4CH3SH4NC3HSHSCFeCHNHSC2NCHNC12H16CHCH16CHCHCHSH5FeH4CHC2HC2HNFeH3CH4CH6CHCHC2HC2HCH11C2H2C2H3CHC2HCH3C2H2CH2CH2C3HCH5SH2C2HCH5CSFeSFeS2FeS2FeSFeS3FeHSH4FeS2HFeS2FeS2FeSFeS3C6H5SHC6H5CH2C6H6CH5C6H4C6H4C6H4C6H3C7H8NHC2H2C2H2CHCH3C2HCH3CH6C3H2NHSH3CH2C2H8CH6C2HNC9HCH24NC12H13CHCHCH5CHCH4CHC2HCH2NCH4SCHFeH2C3HCH7C2H2CHC2HCH6CH4SCH4CHCH5CH2CH5CH3CHC2H2FeH2CH5CH2CNH2C3HCH4CHCHCNH3CH3CH2CH3CH2SCH3CH5SC2NSNH3C2H3CHC3HCH4CNH4SC2H2CHCH5CHCH3CHCH4CH2CHSHSCHCH2CHFeHCHCSH3CH2CHNCH2FeSC2H2CHC3H5C3H2SHCH3CH6CHNHC2H3CHCH2C3H4C2FeH2CHCH3C4HCHCH3C2H4SC2H4CHCH3CH2NH3SH2CHCH3S2H3SH2SHFeS2H2NCHCFeS2H2CH3C6H4C2HCH4CHCH3CH2C3H8SH4C3H2CH2C3HC2H7CH2CH3CHCSHC2H2NH2FeHNH2FeCH4C2H3C2FeSH3C3H6C2H2C2H6C2NCHCH3CHC3H4CH2CH2CHC3H2CH2CHC2SHC2H6CH2C2H6C2NC3HC2H2CHCHC2HFeHC3H6CH2FeHSH4C2H4CSH2CHFeCSFe2S2FeHFeS2FeS2FeS2FeSFeS4C3SC2H4C6H4C7H3C6H7CNC9H20NC5H8CH6CH5CHCH2C2HCH2C2H6C2HC2NHCH3SHCHC2H2CH9CSHFeC2HCHSCH4NC3H3CH2C3SHCHCH2FeH2CH5CHCH2CH4CHCH4S2H2CH5CHCSHCH4CH5SH3CH4CH2C3HC5HCHCH3CHCH2NHCHSHNHCHC2H2CSHC2HC3HFeHCH2CHC3FeH2C3HC4SHCH5CHSHCH4C6H2SHCFeH2SCHCHCNCH2CHCH5CHCNH9CH9CH4CH2C2HCH2C3HCH2CH3CH6CH3C3FeC2HCHCH3CHC2SHCH3SHC2H6CH3SHCHCHFeHSHFeSFeSHSCH2C3H7CHCHC2FeCH3CH3NH3CHC3H2C4H3CHC5H3SHCHNHCH5C2H5CH3CHCH5NH3SH3CH2CHFeS2FeS2FeSFeS3FeS2FeS2FeSFeS3HCH2SHS2FeS2CHCH3C6H7C8H2C6H2S2C6H4C6H4C6H4C7HC4H4CH2CH2CH3CHNH4CHCHC2H4C2H2CH6CHCH2CH10CHCHCHC3HC4H6NHFeH4CNC2HCH6CH7CH9CH4CHCHCH3CNHC3H4CFeCHCHCH2C2H8CH3C3H4CHC2H5SH3CH5NH4CH2CH3CHFeH2CHCHSCH6C3H4C2HCHC2H5NCH9S2HC2H5FeCH2CH2CHCH3C2H3CHCFeS2H11Fe2S3CHSHC2HCH2CHC2H6CHC2HNH3C6H8CNC2HC3HC4H5CHCH2FeHC2H4CHC2HCH3CHCH2C3H4CH5NCH4CH3CHCH2CH2CH9C2HC4H9CHCHC2NHCHC2HCHSH3C2H3CHCSHC2H5CH6C2HCH4CH4CH9CSH2CFeS2FeS2FeSFeS3FeSCFeS2HFeS2FeS2HFeHFeHS2HFeS2FeS2FeSFeS3H2C7H2C6HSC6H4CHCHSC2NCH3C2H2C6H4C2NCHSC6H4C6H4C6H4C6H4C6H5CSCH6CH3NC8HC3H16CH6C2H4CSHCHCH2CH3CHCHC2SH3C2H4CHCH2CH5CH4CH3CH2CH2CH2CH3NHNH2C2HCHSH6SCHCH9CH4CH2C3H12CNHSHNH2CHC2H2FeH6C3HC2HFeH2CH5CHCS2H2CH3NCH3C2H5CH7CHCH2CH4C3H9CH4C3HCHCHCHCH2CH2CH2CHCH2C3HCNH2CH2CHC2H6CHCH2CH9C3H2CHCH2CH2NHCH7CHCH3CH6C2HCH6C3H3CH6CHC2HCH3CH4CHCH2CH5C3HCFeHSH3CH3CHC2NCHCHNH4C2HSC2H9CH3CHC2HS2FeH2FeSFe2SHCFeSFeS2FeS2FeSFeS2H2SFeS2Fe2SH2FeS2FeHS2HFeS3C6H5SCHC6H2SHC6H4C6H4C6HSH2CH3CHC2HC3H4CHSH2SHFeHCSCH2C2H7CHCHCH2CH2CH6CH2C2H5CH4CFeCNC7HC2HCH2SH10SH7C2H2CHNC6HC5H25CHCSH2CS2C2HCNSH2CH4NCHCH2C3FeCH3CHCHCH2CH3CFeH2CH4CH3CHSH2CH2CHCH2CH2CH4SCH7CH2CFeH7CH2CH2SHCS2H3FeSFeS2FeSFeS3FeS2FeS2Fe2S3FeS2FeHSH3FeS2FeS2FeSFeS3C6H9C6H6C4H6C6H4C6H4CH3CHC6H4CH5CH3C2SH2CNH5C2SHCH3CHCHC2H2CH4CHNH3C3H9NCNH2C3H4C2H4CH2CHSC2H3NCHCH2C3H3C3SHCH2CH2CHCH7CH6CHSH2C4H4CHCHC4H2NC5HC2H10CH3CH2C2HCH5CH5SH2C2H4CHNC10HCH24CH3NC12H21FeH3C2HNHC2HCHCH3SCHC3HCH6CH6CH3C3H3FeH5FeH4CH5CH2CHCH4CH13CHFeS2H2FeS2FeS2FeS2FeSFeS3H3CFeSFeS2FeSFeS3FeS2FeSFeSFeS3C6H4C7H4CHCH3CHC3H2C6H4CHC2H3C6H4C6H2C7H8CNC10H22NH3CHCHCH3CH2SCH2C2H5CH2CHCH2CHCHC2H4C2H8CHCH4SH8CH2C2HSH2CHC2HCHNHC2SHCHCH2CH4CHCH5NH5C2HCHCHC2H4N2HCHCH2CH4CH6C4H2CH6C2H2CH3CFeH4C2H8CHC2H2C3H2CHCHCH5CH4CHCH5CH8CSCH4CHNHC2H2CH2CH3CH4C2H3CH7C2H3SH7SFeS2FeS2FeSFeS2FeSFeSCHFeS2FeS2H2FeHS2FeS2FeS2FeCFeS3C6H8CH3C6H4C6H4C6H5CH2C4H4C2H2CH3C2H12C3H3CSH3CHCH3C2HCH3CH3NHC4HC4SC3H8CH3NC3HCHNHCH7CFeNH5SHCH4CHCFeHC2H2NCH3C3HNH4C3H3CHC4H5CH5CH2CSH2CHCHC2HFeH3CH5C2H2CHC2H2CH3CHCNH2CSH4C2H3CH4CH8FeHCH2SCHCH5CSH2C2H2CHCHC3H2C2H7NHSHFeCH2CH4NH3CH2C3H6SCH4C2H2CH2CH
_chemical_formula_sum              "C1944 H3456 S432 Fe216 N108"
_cell_length_a       55.2736
_cell_length_b       54.8187
_cell_length_c       93.1944
_cell_angle_alpha    90.0517
_cell_angle_beta     90.8167
_cell_angle_gamma    112.811

_space_group_name_H-M_alt    "P 1"
_space_group_IT_number       1

loop_
  _space_group_symop_operation_xyz
  'x, y, z'

loop_
  _atom_site_type_symbol
  _atom_site_label
  _atom_site_symmetry_multiplicity
  _atom_site_fract_x
  _atom_site_fract_y
  _atom_site_fract_z
  _atom_site_occupancy
  C   C1        1.0  0.25404  0.36567  0.22884  1.0000
  H   H1        1.0  0.43709  0.45252  0.21456  1.0000
  S   S1        1.0  0.24517  0.06270  0.02381  1.0000
  H   H2        1.0  0.01166  0.37221  0.14215  1.0000
  H   H3        1.0  0.24160  0.47028  0.14178  1.0000
  H   H4        1.0  0.10312  0.37290  0.17416  1.0000
  H   H5        1.0  0.33485  0.29218  0.00866  1.0000
  H   H6        1.0  0.38952  0.40997  0.04022  1.0000
  H   H7        1.0  0.26997  0.38494  0.22632  1.0000
  H   H8        1.0  0.14280  0.20888  0.01280  1.0000
  Fe  Fe1       1.0  0.26661  0.26416  0.02777  1.0000
  S   S2        1.0  0.25404  0.28773  0.01200  1.0000
  S   S3        1.0  0.28890  0.28248  0.04856  1.0000
  S   S4        1.0  0.17981  0.26488  0.01205  1.0000
  C   C2        1.0  0.44935  0.47313  0.21141  1.0000
  S   S5        1.0  0.22739  0.22930  0.02754  1.0000
  S   S6        1.0  0.28382  0.24612  0.01096  1.0000
  Fe  Fe2       1.0  0.33904  0.42248  0.09318  1.0000
  S   S7        1.0  0.35355  0.46736  0.09322  1.0000
  S   S8        1.0  0.32855  0.40252  0.07094  1.0000
  Fe  Fe3       1.0  0.33616  0.42033  0.12597  1.0000
  S   S9        1.0  0.34992  0.46406  0.12811  1.0000
  S   S10       1.0  0.32012  0.39586  0.14582  1.0000
  Fe  Fe4       1.0  0.32286  0.46181  0.10975  1.0000
  H   H9        1.0  0.15156  0.39050  0.16982  1.0000
  Fe  Fe5       1.0  0.37995  0.46679  0.11163  1.0000
  H   H10       1.0  0.39542  0.49347  0.17961  1.0000
  S   S11       1.0  0.30658  0.41762  0.10859  1.0000
  S   S12       1.0  0.36811  0.42224  0.11063  1.0000
  C   C3        1.0  0.35430  0.02249  0.02252  1.0000
  C   C4        1.0  0.39725  0.20275  0.00538  1.0000
  H   H11       1.0  0.02526  0.38884  0.07616  1.0000
  Fe  Fe6       1.0  0.36138  0.43538  0.22583  1.0000
  S   S13       1.0  0.37971  0.42675  0.20596  1.0000
  S   S14       1.0  0.34648  0.46761  0.22367  1.0000
  H   H12       1.0  0.11563  0.31813  0.10592  1.0000
  H   H13       1.0  0.05317  0.41452  0.09451  1.0000
  S   S15       1.0  0.05376  0.20951  0.01413  1.0000
  Fe  Fe7       1.0  0.09083  0.41697  0.23516  1.0000
  S   S16       1.0  0.07118  0.40654  0.21310  1.0000
  H   H14       1.0  0.31724  0.20492  0.04910  1.0000
  Fe  Fe8       1.0  0.09069  0.40149  0.10620  1.0000
  S   S17       1.0  0.11166  0.43429  0.09107  1.0000
  S   S18       1.0  0.05834  0.36153  0.09989  1.0000
  Fe  Fe9       1.0  0.12347  0.43326  0.13228  1.0000
  S   S19       1.0  0.14696  0.46825  0.11868  1.0000
  S   S20       1.0  0.13664  0.43301  0.15552  1.0000
  Fe  Fe10      1.0  0.10809  0.46192  0.10809  1.0000
  Fe  Fe11      1.0  0.24125  0.02342  0.01298  1.0000
  Fe  Fe12      1.0  0.14844  0.43767  0.10297  1.0000
  S   S21       1.0  0.18147  0.43396  0.09046  1.0000
  S   S22       1.0  0.08444  0.42866  0.12271  1.0000
  S   S23       1.0  0.12780  0.40327  0.11721  1.0000
  C   C5        1.0  0.08977  0.41587  0.19723  1.0000
  C   C6        1.0  0.11698  0.42309  0.19746  1.0000
  C   C7        1.0  0.13103  0.42902  0.18460  1.0000
  C   C8        1.0  0.11815  0.42796  0.17138  1.0000
  C   C9        1.0  0.09106  0.42148  0.17113  1.0000
  C   C10       1.0  0.07689  0.41515  0.18400  1.0000
  H   H15       1.0  0.12709  0.42342  0.20751  1.0000
  H   H16       1.0  0.15195  0.43396  0.18486  1.0000
  H   H17       1.0  0.08102  0.42105  0.16105  1.0000
  H   H18       1.0  0.05587  0.40971  0.18374  1.0000
  C   C11       1.0  0.32597  0.48054  0.16154  1.0000
  H   H19       1.0  0.24828  0.37464  0.01331  1.0000
  C   C12       1.0  0.04261  0.10832  0.03465  1.0000
  H   H20       1.0  0.03689  0.43683  0.09619  1.0000
  C   C13       1.0  0.26668  0.47253  0.10633  1.0000
  H   H21       1.0  0.00948  0.38968  0.02561  1.0000
  C   C14       1.0  0.22237  0.47199  0.10532  1.0000
  C   C15       1.0  0.21399  0.44891  0.09695  1.0000
  C   C16       1.0  0.23205  0.43787  0.09318  1.0000
  C   C17       1.0  0.25827  0.44951  0.09794  1.0000
  S   S24       1.0  0.23856  0.17123  0.00169  1.0000
  H   H22       1.0  0.28754  0.19215  0.03840  1.0000
  H   H23       1.0  0.22572  0.42026  0.08653  1.0000
  H   H24       1.0  0.27205  0.44092  0.09487  1.0000
  C   C18       1.0  0.33643  0.40686  0.16248  1.0000
  C   C19       1.0  0.32263  0.39799  0.17524  1.0000
  C   C20       1.0  0.33535  0.40542  0.18868  1.0000
  C   C21       1.0  0.36229  0.42080  0.18942  1.0000
  C   C22       1.0  0.37608  0.42978  0.17665  1.0000
  C   C23       1.0  0.36308  0.42336  0.16323  1.0000
  H   H25       1.0  0.30217  0.38482  0.17472  1.0000
  H   H26       1.0  0.32466  0.39805  0.19844  1.0000
  H   H27       1.0  0.39699  0.44120  0.17713  1.0000
  H   H28       1.0  0.37393  0.43006  0.15345  1.0000
  H   H29       1.0  0.23619  0.39013  0.16384  1.0000
  C   C24       1.0  0.29827  0.31569  0.05486  1.0000
  C   C25       1.0  0.30805  0.32215  0.06899  1.0000
  C   C26       1.0  0.31664  0.34838  0.07426  1.0000
  C   C27       1.0  0.31584  0.36864  0.06539  1.0000
  C   C28       1.0  0.30561  0.36209  0.05133  1.0000
  C   C29       1.0  0.29686  0.33583  0.04609  1.0000
  H   H30       1.0  0.30927  0.30678  0.07589  1.0000
  H   H31       1.0  0.32448  0.35302  0.08508  1.0000
  H   H32       1.0  0.30479  0.37757  0.04440  1.0000
  H   H33       1.0  0.28943  0.33125  0.03520  1.0000
  C   C30       1.0  0.03479  0.32435  0.05454  1.0000
  H   H34       1.0  0.20864  0.48091  0.10799  1.0000
  C   C31       1.0  0.03221  0.32117  0.08064  1.0000
  C   C32       1.0  0.05045  0.34745  0.08230  1.0000
  C   C33       1.0  0.06113  0.36199  0.06998  1.0000
  C   C34       1.0  0.05313  0.35059  0.05622  1.0000
  H   H35       1.0  0.07393  0.28679  0.14413  1.0000
  H   H36       1.0  0.19008  0.43682  0.20189  1.0000
  H   H37       1.0  0.07536  0.38209  0.07103  1.0000
  H   H38       1.0  0.06127  0.36218  0.04679  1.0000
  S   S25       1.0  0.07812  0.44221  0.25006  1.0000
  H   H39       1.0  0.34389  0.20643  0.02797  1.0000
  C   C35       1.0  0.25877  0.41661  0.13945  1.0000
  H   H40       1.0  0.35481  0.05554  0.03556  1.0000
  C   C36       1.0  0.43159  0.48745  0.20697  1.0000
  H   H41       1.0  0.24598  0.39711  0.11144  1.0000
  H   H42       1.0  0.03952  0.26457  0.16204  1.0000
  C   C37       1.0  0.24293  0.09256  0.01737  1.0000
  H   H43       1.0  0.30430  0.44144  0.16901  1.0000
  C   C38       1.0  0.27758  0.45435  0.15598  1.0000
  H   H44       1.0  0.29453  0.09564  0.00318  1.0000
  C   C39       1.0  0.24472  0.13729  0.02267  1.0000
  C   C40       1.0  0.24628  0.11328  0.02717  1.0000
  C   C41       1.0  0.10963  0.35501  0.15403  1.0000
  H   H45       1.0  0.24988  0.11063  0.03839  1.0000
  N   N1        1.0  0.20308  0.31475  0.04968  1.0000
  C   C42       1.0  0.22202  0.32217  0.03740  1.0000
  C   C43       1.0  0.19932  0.28736  0.05476  1.0000
  C   C44       1.0  0.17681  0.31324  0.04390  1.0000
  C   C45       1.0  0.21172  0.33459  0.06195  1.0000
  C   C46       1.0  0.24176  0.34989  0.06447  1.0000
  C   C47       1.0  0.22371  0.34709  0.02890  1.0000
  C   C48       1.0  0.15342  0.30222  0.05431  1.0000
  C   C49       1.0  0.22420  0.28318  0.05980  1.0000
  C   C50       1.0  0.21754  0.25445  0.06416  1.0000
  C   C51       1.0  0.24751  0.36558  0.07856  1.0000
  C   C52       1.0  0.24794  0.35719  0.01948  1.0000
  C   C53       1.0  0.12941  0.30661  0.04851  1.0000
  H   H46       1.0  0.21653  0.30556  0.02951  1.0000
  H   H47       1.0  0.24208  0.32497  0.04107  1.0000
  H   H48       1.0  0.18578  0.28147  0.06399  1.0000
  H   H49       1.0  0.18985  0.27260  0.04602  1.0000
  H   H50       1.0  0.17123  0.30073  0.03399  1.0000
  H   H51       1.0  0.17805  0.33321  0.04063  1.0000
  H   H52       1.0  0.20366  0.35020  0.06048  1.0000
  H   H53       1.0  0.20322  0.32477  0.07220  1.0000
  H   H54       1.0  0.25025  0.36427  0.05573  1.0000
  H   H55       1.0  0.25258  0.33668  0.06481  1.0000
  H   H56       1.0  0.20623  0.34210  0.02168  1.0000
  H   H57       1.0  0.22429  0.36332  0.03618  1.0000
  H   H58       1.0  0.15865  0.31189  0.06502  1.0000
  H   H59       1.0  0.14746  0.28053  0.05561  1.0000
  H   H60       1.0  0.23875  0.28778  0.05113  1.0000
  H   H61       1.0  0.23308  0.29547  0.06940  1.0000
  H   H62       1.0  0.21243  0.41348  0.15343  1.0000
  H   H63       1.0  0.06814  0.45197  0.07909  1.0000
  H   H64       1.0  0.20456  0.24932  0.07361  1.0000
  H   H65       1.0  0.26902  0.37684  0.07985  1.0000
  H   H66       1.0  0.23779  0.37991  0.07860  1.0000
  H   H67       1.0  0.24070  0.35204  0.08784  1.0000
  C   C54       1.0  0.34116  0.04048  0.02811  1.0000
  C   C55       1.0  0.03385  0.41621  0.09349  1.0000
  C   C56       1.0  0.03121  0.41120  0.05230  1.0000
  H   H68       1.0  0.12326  0.29687  0.03785  1.0000
  H   H69       1.0  0.11280  0.29792  0.05597  1.0000
  H   H70       1.0  0.13374  0.32809  0.04750  1.0000
  H   H71       1.0  0.10296  0.34027  0.17627  1.0000
  H   H72       1.0  0.01481  0.36438  0.03612  1.0000
  C   C57       1.0  0.10194  0.25292  0.01307  1.0000
  C   C58       1.0  0.25220  0.41831  0.18089  1.0000
  H   H73       1.0  0.41713  0.37371  0.00340  1.0000
  H   H74       1.0  0.08452  0.35752  0.12616  1.0000
  C   C59       1.0  0.31190  0.19366  0.01201  1.0000
  H   H75       1.0  0.39210  0.37837  0.02155  1.0000
  Fe  Fe13      1.0  0.02236  0.22736  0.01483  1.0000
  H   H76       1.0  0.23861  0.37855  0.18995  1.0000
  H   H77       1.0  0.29010  0.18496  0.01249  1.0000
  S   S26       1.0  0.32709  0.40885  0.23869  1.0000
  S   S27       1.0  0.27854  0.01663  0.00931  1.0000
  C   C60       1.0  0.25411  0.39851  0.19193  1.0000
  C   C61       1.0  0.09997  0.32429  0.10985  1.0000
  H   H78       1.0  0.01587  0.50051  0.08116  1.0000
  H   H79       1.0  0.12085  0.34269  0.15148  1.0000
  H   H80       1.0  0.31046  0.44361  0.15009  1.0000
  H   H81       1.0  0.20527  0.45512  0.18613  1.0000
  C   C62       1.0  0.25376  0.40878  0.16534  1.0000
  S   S28       1.0  0.09013  0.49193  0.10271  1.0000
  C   C63       1.0  0.02416  0.46581  0.07642  1.0000
  H   H82       1.0  0.24407  0.33546  0.24474  1.0000
  N   N2        1.0  0.25495  0.42810  0.15357  1.0000
  C   C64       1.0  0.07855  0.46285  0.05730  1.0000
  C   C65       1.0  0.02459  0.30959  0.06688  1.0000
  S   S29       1.0  0.13397  0.44124  0.23779  1.0000
  H   H83       1.0  0.31991  0.34053  0.01363  1.0000
  H   H84       1.0  0.12059  0.37446  0.14884  1.0000
  H   H85       1.0  0.27072  0.40264  0.16470  1.0000
  H   H86       1.0  0.23499  0.36810  0.22882  1.0000
  C   C66       1.0  0.20446  0.47976  0.20420  1.0000
  C   C67       1.0  0.22974  0.43265  0.15350  1.0000
  H   H87       1.0  0.20763  0.24074  0.05517  1.0000
  H   H88       1.0  0.07335  0.42714  0.06910  1.0000
  C   C68       1.0  0.20269  0.47878  0.22083  1.0000
  H   H89       1.0  0.11766  0.49211  0.05329  1.0000
  H   H90       1.0  0.42554  0.48973  0.17530  1.0000
  H   H91       1.0  0.32168  0.49014  0.17112  1.0000
  C   C69       1.0  0.14115  0.37135  0.17530  1.0000
  H   H92       1.0  0.02897  0.37803  0.15918  1.0000
  H   H93       1.0  0.29178  0.14264  0.00750  1.0000
  C   C70       1.0  0.19592  0.41345  0.23812  1.0000
  H   H94       1.0  0.01843  0.14516  0.01069  1.0000
  C   C71       1.0  0.23825  0.09637  0.00290  1.0000
  H   H95       1.0  0.31969  0.17335  0.03102  1.0000
  N   N3        1.0  0.36081  0.34869  0.00941  1.0000
  C   C72       1.0  0.07622  0.29539  0.15509  1.0000
  H   H96       1.0  0.10355  0.49762  0.23453  1.0000
  H   H97       1.0  0.25156  0.40511  0.20287  1.0000
  N   N4        1.0  0.03464  0.42706  0.06603  1.0000
  H   H98       1.0  0.02762  0.33709  0.14703  1.0000
  Fe  Fe14      1.0  0.31354  0.44276  0.23775  1.0000
  C   C73       1.0  0.35640  0.38161  0.02815  1.0000
  H   H99       1.0  0.34850  0.26074  0.02200  1.0000
  H   H100      1.0  0.36934  0.29963  0.00700  1.0000
  H   H101      1.0  0.06207  0.32166  0.16665  1.0000
  H   H102      1.0  0.36405  0.18285  0.01863  1.0000
  H   H103      1.0  0.26613  0.36322  0.02617  1.0000
  S   S30       1.0  0.02399  0.31193  0.03684  1.0000
  H   H104      1.0  0.07752  0.45384  0.04654  1.0000
  H   H105      1.0  0.10587  0.31411  0.13146  1.0000
  H   H106      1.0  0.35997  0.01353  0.03199  1.0000
  C   C74       1.0  0.31272  0.15107  0.00429  1.0000
  H   H107      1.0  0.01234  0.37717  0.10258  1.0000
  C   C75       1.0  0.08880  0.22537  0.01350  1.0000
  Fe  Fe15      1.0  0.24358  0.21320  0.00918  1.0000
  H   H108      1.0  0.25625  0.49844  0.21587  1.0000
  H   H109      1.0  0.33599  0.05090  0.01910  1.0000
  C   C76       1.0  0.10762  0.47676  0.06137  1.0000
  H   H110      1.0  0.37565  0.42461  0.02660  1.0000
  C   C77       1.0  0.30887  0.20466  0.03817  1.0000
  S   S31       1.0  0.02624  0.26712  0.00668  1.0000
  C   C78       1.0  0.37293  0.37569  0.01639  1.0000
  C   C79       1.0  0.21995  0.42104  0.23096  1.0000
  H   H111      1.0  0.18365  0.43213  0.13982  1.0000
  H   H112      1.0  0.26821  0.43766  0.18337  1.0000
  C   C80       1.0  0.11229  0.35930  0.17055  1.0000
  H   H113      1.0  0.41005  0.19510  0.01163  1.0000
  C   C81       1.0  0.23525  0.39170  0.13399  1.0000
  H   H114      1.0  0.21746  0.39603  0.13214  1.0000
  H   H115      1.0  0.47767  0.49673  0.16223  1.0000
  H   H116      1.0  0.45050  0.48367  0.14964  1.0000
  H   H117      1.0  0.13951  0.28580  0.01213  1.0000
  H   H118      1.0  0.23051  0.37531  0.14179  1.0000
  H   H119      1.0  0.25335  0.35136  0.22024  1.0000
  H   H120      1.0  0.04601  0.10895  0.04645  1.0000
  H   H121      1.0  0.28024  0.46705  0.14631  1.0000
  H   H122      1.0  0.37905  0.33448  0.02652  1.0000
  H   H123      1.0  0.27600  0.41093  0.14019  1.0000
  H   H124      1.0  0.08268  0.38284  0.14676  1.0000
  H   H125      1.0  0.31745  0.21490  0.00942  1.0000
  H   H126      1.0  0.11000  0.48665  0.07202  1.0000
  Fe  Fe16      1.0  0.36944  0.48414  0.24383  1.0000
  C   C82       1.0  0.03121  0.37727  0.14737  1.0000
  H   H127      1.0  0.37149  0.28732  0.03266  1.0000
  H   H128      1.0  0.14250  0.37511  0.18706  1.0000
  H   H129      1.0  0.22766  0.44144  0.13045  1.0000
  H   H130      1.0  0.07032  0.47833  0.05659  1.0000
  H   H131      1.0  0.22413  0.36411  0.11604  1.0000
  H   H132      1.0  0.27333  0.46567  0.16483  1.0000
  H   H133      1.0  0.04312  0.35599  0.13157  1.0000
  H   H134      1.0  0.06300  0.32413  0.12803  1.0000
  C   C83       1.0  0.01578  0.39820  0.10474  1.0000
  H   H135      1.0  0.06697  0.36511  0.16226  1.0000
  H   H136      1.0  0.26385  0.43177  0.13082  1.0000
  H   H137      1.0  0.22813  0.44277  0.16357  1.0000
  H   H138      1.0  0.18646  0.48129  0.19955  1.0000
  C   C84       1.0  0.24140  0.38159  0.11979  1.0000
  H   H139      1.0  0.34514  0.32626  0.02864  1.0000
  C   C85       1.0  0.14477  0.24882  0.01246  1.0000
  C   C86       1.0  0.06558  0.31766  0.15531  1.0000
  C   C87       1.0  0.30462  0.45296  0.15920  1.0000
  H   H140      1.0  0.02514  0.49862  0.06289  1.0000
  H   H141      1.0  0.18073  0.48860  0.24462  1.0000
  H   H142      1.0  0.41905  0.47649  0.19789  1.0000
  H   H143      1.0  0.31145  0.22520  0.03537  1.0000
  H   H144      1.0  0.08065  0.30784  0.10790  1.0000
  H   H145      1.0  0.06285  0.28014  0.17643  1.0000
  N   N5        1.0  0.08197  0.34310  0.14796  1.0000
  C   C88       1.0  0.22635  0.44990  0.14107  1.0000
  H   H146      1.0  0.02267  0.14556  0.03501  1.0000
  C   C89       1.0  0.47224  0.49181  0.15075  1.0000
  C   C90       1.0  0.24382  0.42928  0.23867  1.0000
  C   C91       1.0  0.36017  0.32818  0.02039  1.0000
  C   C92       1.0  0.35397  0.29989  0.01446  1.0000
  S   S32       1.0  0.27342  0.43906  0.22908  1.0000
  H   H147      1.0  0.09709  0.30253  0.15853  1.0000
  H   H148      1.0  0.19684  0.45988  0.15220  1.0000
  C   C93       1.0  0.12967  0.26450  0.01254  1.0000
  H   H149      1.0  0.15100  0.35765  0.17283  1.0000
  H   H150      1.0  0.12364  0.34810  0.12696  1.0000
  C   C94       1.0  0.37105  0.40893  0.03487  1.0000
  H   H151      1.0  0.10076  0.34181  0.10358  1.0000
  H   H152      1.0  0.24744  0.34154  0.01175  1.0000
  H   H153      1.0  0.22002  0.42027  0.21938  1.0000
  H   H154      1.0  0.33657  0.27913  0.03404  1.0000
  H   H155      1.0  0.18226  0.46537  0.22338  1.0000
  C   C95       1.0  0.19959  0.45189  0.14167  1.0000
  C   C96       1.0  0.04208  0.35644  0.14344  1.0000
  H   H156      1.0  0.17764  0.40696  0.23207  1.0000
  H   H157      1.0  0.06819  0.25687  0.16451  1.0000
  C   C97       1.0  0.08227  0.33899  0.13189  1.0000
  H   H158      1.0  0.27370  0.39731  0.19157  1.0000
  H   H159      1.0  0.23592  0.25171  0.06701  1.0000
  H   H160      1.0  0.01033  0.28948  0.06581  1.0000
  H   H161      1.0  0.46201  0.48326  0.22074  1.0000
  C   C98       1.0  0.35259  0.28067  0.02658  1.0000
  C   C99       1.0  0.06950  0.36286  0.15058  1.0000
  H   H162      1.0  0.04389  0.39957  0.05267  1.0000
  H   H163      1.0  0.01176  0.10268  0.01930  1.0000
  C   C100      1.0  0.06379  0.44164  0.06857  1.0000
  H   H164      1.0  0.25830  0.37554  0.12118  1.0000
  H   H165      1.0  0.23316  0.42023  0.18248  1.0000
  H   H166      1.0  0.04441  0.39710  0.14361  1.0000
  H   H167      1.0  0.04571  0.30885  0.15027  1.0000
  C   C101      1.0  0.23984  0.14102  0.00822  1.0000
  C   C102      1.0  0.10437  0.33120  0.12583  1.0000
  C   C103      1.0  0.36852  0.18417  0.00707  1.0000
  H   H168      1.0  0.24708  0.15279  0.03040  1.0000
  C   C104      1.0  0.24876  0.48389  0.10991  1.0000
  C   C105      1.0  0.25936  0.35555  0.24334  1.0000
  H   H169      1.0  0.35207  0.36684  0.03687  1.0000
  H   H170      1.0  0.22548  0.45380  0.20123  1.0000
  H   H171      1.0  0.36889  0.49977  0.06488  1.0000
  S   S33       1.0  0.29946  0.48726  0.11246  1.0000
  C   C106      1.0  0.02072  0.44571  0.06409  1.0000
  C   C107      1.0  0.06067  0.27292  0.16515  1.0000
  H   H172      1.0  0.19803  0.46538  0.13317  1.0000
  H   H173      1.0  0.04722  0.09192  0.03009  1.0000
  H   H174      1.0  0.01274  0.45543  0.08584  1.0000
  H   H175      1.0  0.21666  0.46877  0.24801  1.0000
  H   H176      1.0  0.21485  0.46826  0.22492  1.0000
  H   H177      1.0  0.05616  0.12721  0.02991  1.0000
  H   H178      1.0  0.34518  0.47883  0.16329  1.0000
  H   H179      1.0  0.32739  0.49304  0.15197  1.0000
  H   H180      1.0  0.04500  0.47640  0.07968  1.0000
  H   H181      1.0  0.32354  0.14857  0.01390  1.0000
  Fe  Fe17      1.0  0.00543  0.27013  0.02693  1.0000
  C   C108      1.0  0.13161  0.22127  0.01287  1.0000
  C   C109      1.0  0.20219  0.50048  0.24386  1.0000
  H   H182      1.0  0.33762  0.38136  0.02362  1.0000
  H   H183      1.0  0.11729  0.46238  0.06169  1.0000
  H   H184      1.0  0.27892  0.35441  0.24271  1.0000
  H   H185      1.0  0.39830  0.48464  0.15380  1.0000
  H   H186      1.0  0.03778  0.42450  0.04290  1.0000
  H   H187      1.0  0.35859  0.41276  0.04311  1.0000
  H   H188      1.0  0.41875  0.48648  0.21621  1.0000
  C   C110      1.0  0.20644  0.45477  0.19803  1.0000
  C   C111      1.0  0.32270  0.19355  0.02741  1.0000
  H   H189      1.0  0.09076  0.26532  0.01315  1.0000
  Fe  Fe18      1.0  0.21525  0.25243  0.01085  1.0000
  S   S34       1.0  0.38699  0.45358  0.24523  1.0000
  H   H190      1.0  0.33106  0.01186  0.00315  1.0000
  C   C112      1.0  0.01408  0.10378  0.03114  1.0000
  H   H191      1.0  0.32309  0.02876  0.03406  1.0000
  H   H192      1.0  0.02500  0.40363  0.11556  1.0000
  H   H193      1.0  0.25537  0.49443  0.23487  1.0000
  H   H194      1.0  0.02375  0.30970  0.09006  1.0000
  H   H195      1.0  0.40059  0.22287  0.00945  1.0000
  H   H196      1.0  0.36661  0.16422  0.00342  1.0000
  H   H197      1.0  0.37239  0.03523  0.01695  1.0000
  H   H198      1.0  0.32973  0.10907  0.00614  1.0000
  H   H199      1.0  0.10200  0.49461  0.14458  1.0000
  C   C113      1.0  0.01375  0.48682  0.07199  1.0000
  C   C114      1.0  0.02267  0.40779  0.07808  1.0000
  H   H200      1.0  0.37792  0.39163  0.00822  1.0000
  H   H201      1.0  0.38609  0.00860  0.00456  1.0000
  H   H202      1.0  0.46182  0.47232  0.20233  1.0000
  H   H203      1.0  0.47910  0.47623  0.14724  1.0000
  H   H204      1.0  0.33631  0.49489  0.05873  1.0000
  H   H205      1.0  0.25523  0.50184  0.11629  1.0000
  H   H206      1.0  0.22166  0.49711  0.20058  1.0000
  H   H207      1.0  0.29362  0.36359  0.00233  1.0000
  H   H208      1.0  0.02671  0.45685  0.05389  1.0000
  H   H209      1.0  0.40783  0.33978  0.00870  1.0000
  H   H210      1.0  0.09403  0.18837  0.01366  1.0000
  C   C115      1.0  0.33302  0.34268  0.00434  1.0000
  S   S35       1.0  0.41892  0.49917  0.11883  1.0000
  C   C116      1.0  0.10387  0.20968  0.01337  1.0000
  C   C117      1.0  0.00688  0.12612  0.03767  1.0000
  H   H211      1.0  0.00846  0.12445  0.04950  1.0000
  H   H212      1.0  0.06196  0.34843  0.00163  1.0000
  H   H213      1.0  0.39443  0.50336  0.20174  1.0000
  C   C118      1.0  0.41461  0.50291  0.17433  1.0000
  C   C119      1.0  0.32690  0.08325  0.47304  1.0000
  C   C120      1.0  0.25539  0.13363  0.48763  1.0000
  H   H214      1.0  0.04214  0.33951  0.31161  1.0000
  H   H215      1.0  0.05050  0.31078  0.33082  1.0000
  S   S36       1.0  0.35246  0.41347  0.28050  1.0000
  H   H216      1.0  0.27576  0.31969  0.27821  1.0000
  H   H217      1.0  0.31623  0.10689  0.48802  1.0000
  H   H218      1.0  0.45875  0.34827  0.29819  1.0000
  C   C121      1.0  0.28742  0.33445  0.27022  1.0000
  Fe  Fe19      1.0  0.08001  0.41454  0.26754  1.0000
  S   S37       1.0  0.05626  0.40707  0.28829  1.0000
  S   S38       1.0  0.12272  0.43872  0.27225  1.0000
  Fe  Fe20      1.0  0.42116  0.34007  0.36284  1.0000
  S   S39       1.0  0.40638  0.30670  0.34685  1.0000
  S   S40       1.0  0.40010  0.33957  0.38401  1.0000
  Fe  Fe21      1.0  0.47398  0.36895  0.34680  1.0000
  S   S41       1.0  0.46226  0.33558  0.33055  1.0000
  Fe  Fe22      1.0  0.42275  0.33872  0.33016  1.0000
  S   S42       1.0  0.40614  0.33943  0.30758  1.0000
  Fe  Fe23      1.0  0.44702  0.30638  0.34853  1.0000
  S   S43       1.0  0.45402  0.26942  0.35601  1.0000
  S   S44       1.0  0.43455  0.37241  0.34601  1.0000
  S   S45       1.0  0.46169  0.33946  0.36491  1.0000
  Fe  Fe24      1.0  0.43751  0.11639  0.33596  1.0000
  S   S46       1.0  0.45777  0.10630  0.35479  1.0000
  S   S47       1.0  0.44027  0.15746  0.32866  1.0000
  Fe  Fe25      1.0  0.41501  0.05819  0.32482  1.0000
  S   S48       1.0  0.43301  0.04428  0.34323  1.0000
  S   S49       1.0  0.39561  0.03629  0.30414  1.0000
  Fe  Fe26      1.0  0.41967  0.07058  0.35705  1.0000
  S   S50       1.0  0.40630  0.06319  0.38036  1.0000
  Fe  Fe27      1.0  0.46956  0.08088  0.33971  1.0000
  C   C122      1.0  0.01980  0.33481  0.33876  1.0000
  S   S51       1.0  0.39891  0.08202  0.33888  1.0000
  S   S52       1.0  0.45206  0.09339  0.32063  1.0000
  H   H219      1.0  0.47275  0.16038  0.30228  1.0000
  S   S53       1.0  0.21582  0.04550  0.42914  1.0000
  S   S54       1.0  0.27441  0.02439  0.43816  1.0000
  H   H220      1.0  0.33204  0.05641  0.43474  1.0000
  Fe  Fe28      1.0  0.04837  0.22336  0.44183  1.0000
  S   S55       1.0  0.09283  0.24226  0.43891  1.0000
  S   S56       1.0  0.02875  0.25264  0.44268  1.0000
  Fe  Fe29      1.0  0.27286  0.24313  0.42920  1.0000
  S   S57       1.0  0.24733  0.19971  0.42689  1.0000
  S   S58       1.0  0.28837  0.26041  0.40709  1.0000
  Fe  Fe30      1.0  0.26239  0.24115  0.46187  1.0000
  S   S59       1.0  0.23762  0.19772  0.46142  1.0000
  S   S60       1.0  0.26189  0.26343  0.48240  1.0000
  Fe  Fe31      1.0  0.26798  0.19463  0.44671  1.0000
  S   S61       1.0  0.28503  0.16340  0.44836  1.0000
  Fe  Fe32      1.0  0.21904  0.20701  0.44171  1.0000
  S   S62       1.0  0.17463  0.18635  0.43954  1.0000
  S   S63       1.0  0.29494  0.23762  0.44864  1.0000
  S   S64       1.0  0.24244  0.25066  0.44258  1.0000
  H   H221      1.0  0.45192  0.46870  0.29928  1.0000
  C   C123      1.0  0.11513  0.22622  0.43886  1.0000
  C   C124      1.0  0.10669  0.19869  0.43949  1.0000
  C   C125      1.0  0.12518  0.18681  0.43971  1.0000
  C   C126      1.0  0.15224  0.20229  0.43936  1.0000
  C   C127      1.0  0.16070  0.22981  0.43860  1.0000
  C   C128      1.0  0.14221  0.24170  0.43831  1.0000
  H   H222      1.0  0.08590  0.18656  0.43980  1.0000
  H   H223      1.0  0.11845  0.16547  0.44016  1.0000
  H   H224      1.0  0.18145  0.24191  0.43820  1.0000
  H   H225      1.0  0.14888  0.26301  0.43771  1.0000
  H   H226      1.0  0.22110  0.03818  0.48054  1.0000
  C   C129      1.0  0.05916  0.31433  0.30231  1.0000
  C   C130      1.0  0.36334  0.23374  0.34792  1.0000
  H   H227      1.0  0.20421  0.21546  0.47823  1.0000
  C   C131      1.0  0.23549  0.07880  0.43352  1.0000
  C   C132      1.0  0.26187  0.08638  0.43748  1.0000
  C   C133      1.0  0.27709  0.11268  0.44134  1.0000
  C   C134      1.0  0.26586  0.13155  0.44176  1.0000
  C   C135      1.0  0.23956  0.12429  0.43759  1.0000
  C   C136      1.0  0.22447  0.09798  0.43336  1.0000
  H   H228      1.0  0.27052  0.07196  0.43784  1.0000
  H   H229      1.0  0.29749  0.11828  0.44443  1.0000
  H   H230      1.0  0.23072  0.13878  0.43783  1.0000
  H   H231      1.0  0.20406  0.09236  0.43028  1.0000
  C   C137      1.0  0.37456  0.04301  0.38655  1.0000
  C   C138      1.0  0.45194  0.02915  0.37964  1.0000
  H   H232      1.0  0.43034  0.47668  0.27715  1.0000
  H   H233      1.0  0.31878  0.06322  0.46802  1.0000
  C   C139      1.0  0.36981  0.04166  0.40139  1.0000
  C   C140      1.0  0.21941  0.42138  0.26085  1.0000
  H   H234      1.0  0.45170  0.43299  0.34540  1.0000
  H   H235      1.0  0.43081  0.26634  0.40613  1.0000
  C   C141      1.0  0.36941  0.31640  0.39027  1.0000
  C   C142      1.0  0.36432  0.31491  0.40509  1.0000
  C   C143      1.0  0.33998  0.29746  0.41049  1.0000
  C   C144      1.0  0.32013  0.28161  0.40109  1.0000
  C   C145      1.0  0.32527  0.28300  0.38628  1.0000
  C   C146      1.0  0.34979  0.30003  0.38091  1.0000
  H   H236      1.0  0.37927  0.32753  0.41244  1.0000
  H   H237      1.0  0.33639  0.29680  0.42189  1.0000
  H   H238      1.0  0.31010  0.27095  0.37887  1.0000
  H   H239      1.0  0.35327  0.30107  0.36949  1.0000
  C   C147      1.0  0.44765  0.23772  0.34825  1.0000
  C   C148      1.0  0.44712  0.21686  0.35725  1.0000
  C   C149      1.0  0.44369  0.19181  0.35154  1.0000
  C   C150      1.0  0.44156  0.18753  0.33669  1.0000
  C   C151      1.0  0.44181  0.20829  0.32772  1.0000
  C   C152      1.0  0.44457  0.23313  0.33344  1.0000
  H   H240      1.0  0.44970  0.22020  0.36870  1.0000
  H   H241      1.0  0.44329  0.17600  0.35858  1.0000
  H   H242      1.0  0.44012  0.20524  0.31621  1.0000
  H   H243      1.0  0.44506  0.24893  0.32636  1.0000
  H   H244      1.0  0.11387  0.22916  0.49577  1.0000
  H   H245      1.0  0.41853  0.42964  0.34151  1.0000
  H   H246      1.0  0.16895  0.31431  0.27352  1.0000
  S   S65       1.0  0.16563  0.40133  0.26247  1.0000
  H   H247      1.0  0.03108  0.39887  0.31538  1.0000
  C   C153      1.0  0.36958  0.39460  0.28773  1.0000
  C   C154      1.0  0.38106  0.38134  0.27905  1.0000
  C   C155      1.0  0.39249  0.36482  0.28532  1.0000
  C   C156      1.0  0.39316  0.36189  0.30032  1.0000
  C   C157      1.0  0.38256  0.37594  0.30900  1.0000
  C   C158      1.0  0.37065  0.39200  0.30272  1.0000
  H   H248      1.0  0.38037  0.38308  0.26751  1.0000
  H   H249      1.0  0.40055  0.35395  0.27850  1.0000
  H   H250      1.0  0.38274  0.37374  0.32053  1.0000
  H   H251      1.0  0.36183  0.40216  0.30954  1.0000
  H   H252      1.0  0.27304  0.42510  0.30236  1.0000
  H   H253      1.0  0.48323  0.15445  0.37201  1.0000
  H   H254      1.0  0.32404  0.34233  0.28209  1.0000
  H   H255      1.0  0.15756  0.19894  0.47991  1.0000
  C   C159      1.0  0.28038  0.08062  0.47622  1.0000
  H   H256      1.0  0.42774  0.43498  0.31563  1.0000
  C   C160      1.0  0.20385  0.47914  0.26774  1.0000
  H   H257      1.0  0.38552  0.05279  0.40876  1.0000
  C   C161      1.0  0.14037  0.23457  0.47751  1.0000
  C   C162      1.0  0.07310  0.49842  0.27106  1.0000
  H   H258      1.0  0.48512  0.13543  0.29788  1.0000
  H   H259      1.0  0.42910  0.44593  0.26956  1.0000
  H   H260      1.0  0.13786  0.25317  0.47471  1.0000
  H   H261      1.0  0.44547  0.46054  0.33795  1.0000
  S   S66       1.0  0.33528  0.46214  0.25789  1.0000
  H   H262      1.0  0.21236  0.28559  0.45088  1.0000
  H   H263      1.0  0.48252  0.03034  0.35677  1.0000
  H   H264      1.0  0.18964  0.29773  0.26773  1.0000
  C   C163      1.0  0.45308  0.45866  0.28914  1.0000
  H   H265      1.0  0.49429  0.19231  0.32222  1.0000
  H   H266      1.0  0.18209  0.04736  0.47443  1.0000
  C   C164      1.0  0.43912  0.43868  0.33780  1.0000
  C   C165      1.0  0.37759  0.19344  0.39004  1.0000
  H   H267      1.0  0.01913  0.31025  0.30296  1.0000
  H   H268      1.0  0.37391  0.23329  0.33793  1.0000
  H   H269      1.0  0.26182  0.43687  0.25963  1.0000
  H   H270      1.0  0.20318  0.49667  0.27345  1.0000
  C   C166      1.0  0.48869  0.02344  0.36691  1.0000
  H   H271      1.0  0.36705  0.18879  0.40036  1.0000
  H   H272      1.0  0.23800  0.32300  0.26700  1.0000
  H   H273      1.0  0.40819  0.22585  0.40020  1.0000
  H   H274      1.0  0.39883  0.00962  0.37005  1.0000
  H   H275      1.0  0.30254  0.37729  0.26774  1.0000
  C   C167      1.0  0.26801  0.25333  0.49969  1.0000
  H   H276      1.0  0.03367  0.37473  0.35989  1.0000
  H   H277      1.0  0.48326  0.03314  0.29897  1.0000
  H   H278      1.0  0.27207  0.05908  0.47387  1.0000
  H   H279      1.0  0.35613  0.10917  0.35322  1.0000
  C   C168      1.0  0.39671  0.22282  0.39002  1.0000
  C   C169      1.0  0.16742  0.25589  0.49844  1.0000
  H   H280      1.0  0.49319  0.36374  0.30317  1.0000
  H   H281      1.0  0.03308  0.31354  0.36232  1.0000
  H   H282      1.0  0.18859  0.29557  0.47882  1.0000
  H   H283      1.0  0.41141  0.22559  0.38146  1.0000
  H   H284      1.0  0.19491  0.05904  0.45686  1.0000
  C   C170      1.0  0.11570  0.21794  0.48621  1.0000
  H   H285      1.0  0.50282  0.11877  0.37544  1.0000
  H   H286      1.0  0.40221  0.17779  0.37814  1.0000
  C   C171      1.0  0.03148  0.30331  0.32479  1.0000
  H   H287      1.0  0.24011  0.12531  0.49581  1.0000
  H   H288      1.0  0.37863  0.15428  0.38964  1.0000
  C   C172      1.0  0.19473  0.04541  0.46571  1.0000
  H   H289      1.0  0.43275  0.40693  0.32280  1.0000
  C   C173      1.0  0.31558  0.33592  0.27117  1.0000
  H   H290      1.0  0.03495  0.27853  0.37795  1.0000
  C   C174      1.0  0.27073  0.16293  0.49113  1.0000
  H   H291      1.0  0.22188  0.08707  0.48107  1.0000
  C   C175      1.0  0.25938  0.37444  0.25569  1.0000
  C   C176      1.0  0.48664  0.08312  0.38845  1.0000
  H   H292      1.0  0.25240  0.05273  0.49689  1.0000
  H   H293      1.0  0.48968  0.18327  0.34666  1.0000
  N   N6        1.0  0.38462  0.24311  0.38855  1.0000
  C   C177      1.0  0.36809  0.23899  0.37502  1.0000
  C   C178      1.0  0.36861  0.24330  0.40157  1.0000
  C   C179      1.0  0.40685  0.27004  0.38758  1.0000
  C   C180      1.0  0.42325  0.28071  0.40160  1.0000
  C   C181      1.0  0.33924  0.22421  0.40149  1.0000
  C   C182      1.0  0.32755  0.22190  0.41644  1.0000
  C   C183      1.0  0.44699  0.30625  0.39888  1.0000
  H   H294      1.0  0.36068  0.25515  0.37399  1.0000
  H   H295      1.0  0.37821  0.23969  0.41149  1.0000
  H   H296      1.0  0.36810  0.26328  0.40305  1.0000
  H   H297      1.0  0.39926  0.28521  0.38408  1.0000
  H   H298      1.0  0.41127  0.28522  0.40986  1.0000
  H   H299      1.0  0.32786  0.23196  0.39417  1.0000
  H   H300      1.0  0.33612  0.20412  0.39773  1.0000
  H   H301      1.0  0.33681  0.21221  0.42395  1.0000
  H   H302      1.0  0.33042  0.24175  0.42074  1.0000
  H   H303      1.0  0.30613  0.20979  0.41587  1.0000
  H   H304      1.0  0.35665  0.25038  0.34717  1.0000
  H   H305      1.0  0.18619  0.02487  0.46144  1.0000
  H   H306      1.0  0.06239  0.32498  0.29191  1.0000
  H   H307      1.0  0.45838  0.31332  0.40902  1.0000
  H   H308      1.0  0.30524  0.07234  0.49250  1.0000
  C   C184      1.0  0.02447  0.38511  0.29344  1.0000
  H   H309      1.0  0.48156  0.43551  0.32570  1.0000
  H   H310      1.0  0.46727  0.02923  0.31601  1.0000
  H   H311      1.0  0.24550  0.13278  0.47705  1.0000
  C   C185      1.0  0.18849  0.31323  0.27506  1.0000
  C   C186      1.0  0.24224  0.01676  0.38583  1.0000
  N   N7        1.0  0.47375  0.43018  0.30284  1.0000
  H   H312      1.0  0.17074  0.28002  0.46270  1.0000
  C   C187      1.0  0.42945  0.45658  0.27977  1.0000
  S   S67       1.0  0.02915  0.20230  0.46189  1.0000
  H   H313      1.0  0.21519  0.47042  0.27444  1.0000
  H   H314      1.0  0.28502  0.17247  0.48254  1.0000
  C   C188      1.0  0.39251  0.17519  0.38872  1.0000
  C   C189      1.0  0.23651  0.08117  0.47564  1.0000
  H   H315      1.0  0.44547  0.03206  0.39056  1.0000
  H   H316      1.0  0.23066  0.30105  0.46695  1.0000
  C   C190      1.0  0.47837  0.36197  0.29461  1.0000
  H   H317      1.0  0.48425  0.03768  0.40283  1.0000
  C   C191      1.0  0.30745  0.08649  0.48360  1.0000
  C   C192      1.0  0.01449  0.37030  0.35436  1.0000
  H   H318      1.0  0.24079  0.09260  0.46546  1.0000
  H   H319      1.0  0.01417  0.25322  0.36579  1.0000
  H   H320      1.0  0.38256  0.01232  0.27619  1.0000
  H   H321      1.0  0.28746  0.12802  0.47791  1.0000
  H   H322      1.0  0.46598  0.08063  0.38639  1.0000
  H   H323      1.0  0.48378  0.18761  0.37304  1.0000
  H   H324      1.0  0.34602  0.21478  0.34873  1.0000
  H   H325      1.0  0.38831  0.22077  0.36089  1.0000
  C   C193      1.0  0.19508  0.18681  0.49504  1.0000
  H   H326      1.0  0.46344  0.38623  0.28236  1.0000
  H   H327      1.0  0.18658  0.24331  0.46490  1.0000
  H   H328      1.0  0.02722  0.28204  0.32270  1.0000
  H   H329      1.0  0.01552  0.44225  0.34885  1.0000
  C   C194      1.0  0.25672  0.07411  0.49869  1.0000
  H   H330      1.0  0.01736  0.38347  0.34494  1.0000
  N   N8        1.0  0.26068  0.36495  0.27078  1.0000
  C   C195      1.0  0.23770  0.33946  0.27381  1.0000
  H   H331      1.0  0.29040  0.23133  0.49244  1.0000
  C   C196      1.0  0.25918  0.38572  0.28106  1.0000
  H   H332      1.0  0.44856  0.02672  0.29971  1.0000
  H   H333      1.0  0.23348  0.04661  0.46267  1.0000
  H   H334      1.0  0.48343  0.35333  0.28489  1.0000
  C   C197      1.0  0.28405  0.41178  0.28234  1.0000
  Fe  Fe33      1.0  0.13232  0.41391  0.25597  1.0000
  C   C198      1.0  0.49494  0.06577  0.37796  1.0000
  H   H335      1.0  0.48853  0.07809  0.39980  1.0000
  H   H336      1.0  0.23859  0.02339  0.37505  1.0000
  C   C199      1.0  0.27888  0.43253  0.29134  1.0000
  H   H337      1.0  0.23927  0.33322  0.28506  1.0000
  C   C200      1.0  0.49084  0.15620  0.30160  1.0000
  C   C201      1.0  0.02728  0.29353  0.35752  1.0000
  H   H338      1.0  0.29204  0.36512  0.28518  1.0000
  H   H339      1.0  0.25498  0.37756  0.29212  1.0000
  H   H340      1.0  0.24263  0.39150  0.27800  1.0000
  H   H341      1.0  0.49786  0.40131  0.28705  1.0000
  H   H342      1.0  0.47100  0.47148  0.28345  1.0000
  H   H343      1.0  0.34161  0.02491  0.41823  1.0000
  H   H344      1.0  0.20760  0.25963  0.47928  1.0000
  C   C202      1.0  0.49051  0.02867  0.39366  1.0000
  H   H345      1.0  0.44692  0.04303  0.37268  1.0000
  H   H346      1.0  0.29091  0.42039  0.27171  1.0000
  H   H347      1.0  0.30033  0.40818  0.28775  1.0000
  H   H348      1.0  0.48299  0.39982  0.31380  1.0000
  C   C203      1.0  0.03667  0.31794  0.31015  1.0000
  H   H349      1.0  0.46004  0.30286  0.39084  1.0000
  C   C204      1.0  0.47111  0.40185  0.30447  1.0000
  H   H350      1.0  0.07323  0.20108  0.48390  1.0000
  H   H351      1.0  0.50299  0.46875  0.29789  1.0000
  C   C205      1.0  0.18815  0.28267  0.46956  1.0000
  H   H352      1.0  0.09026  0.19833  0.46807  1.0000
  H   H353      1.0  0.15799  0.20589  0.49850  1.0000
  H   H354      1.0  0.07763  0.32265  0.30877  1.0000
  H   H355      1.0  0.29709  0.45077  0.29210  1.0000
  C   C206      1.0  0.01713  0.38558  0.30781  1.0000
  H   H356      1.0  0.49167  0.07167  0.36688  1.0000
  H   H357      1.0  0.26319  0.43775  0.28633  1.0000
  S   S68       1.0  0.01745  0.19546  0.42690  1.0000
  C   C207      1.0  0.21001  0.34012  0.27174  1.0000
  H   H358      1.0  0.28647  0.12330  0.49675  1.0000
  C   C208      1.0  0.19593  0.21313  0.48916  1.0000
  C   C209      1.0  0.18784  0.25561  0.47462  1.0000
  C   C210      1.0  0.09066  0.21146  0.47722  1.0000
  C   C211      1.0  0.32932  0.01239  0.38259  1.0000
  H   H359      1.0  0.44056  0.32193  0.39498  1.0000
  H   H360      1.0  0.02151  0.45703  0.27938  1.0000
  H   H361      1.0  0.40762  0.17940  0.39740  1.0000
  C   C212      1.0  0.46941  0.44013  0.31730  1.0000
  N   N9        1.0  0.19110  0.23070  0.39249  1.0000
  C   C213      1.0  0.20670  0.23619  0.37885  1.0000
  C   C214      1.0  0.19664  0.20964  0.40069  1.0000
  C   C215      1.0  0.16234  0.22175  0.38861  1.0000
  C   C216      1.0  0.19886  0.25516  0.40179  1.0000
  C   C217      1.0  0.22854  0.26903  0.40542  1.0000
  C   C218      1.0  0.20680  0.26010  0.36991  1.0000
  C   C219      1.0  0.14323  0.21370  0.40143  1.0000
  C   C220      1.0  0.18481  0.18131  0.39411  1.0000
  C   C221      1.0  0.19408  0.16234  0.40234  1.0000
  C   C222      1.0  0.23423  0.29400  0.41443  1.0000
  C   C223      1.0  0.22453  0.26448  0.35691  1.0000
  C   C224      1.0  0.11464  0.20194  0.39627  1.0000
  H   H362      1.0  0.19911  0.21871  0.37155  1.0000
  H   H363      1.0  0.22749  0.23909  0.38118  1.0000
  H   H364      1.0  0.21821  0.21510  0.40180  1.0000
  H   H365      1.0  0.18973  0.20842  0.41191  1.0000
  H   H366      1.0  0.15636  0.20505  0.38076  1.0000
  H   H367      1.0  0.15849  0.23781  0.38302  1.0000
  H   H368      1.0  0.19196  0.26991  0.39693  1.0000
  H   H369      1.0  0.18884  0.25019  0.41228  1.0000
  H   H370      1.0  0.24059  0.27497  0.39565  1.0000
  H   H371      1.0  0.23517  0.25557  0.41169  1.0000
  H   H372      1.0  0.18677  0.25668  0.36586  1.0000
  H   H373      1.0  0.21422  0.27871  0.37628  1.0000
  H   H374      1.0  0.14573  0.23131  0.40810  1.0000
  H   H375      1.0  0.14650  0.19881  0.40835  1.0000
  H   H376      1.0  0.16306  0.17312  0.39451  1.0000
  H   H377      1.0  0.19061  0.18123  0.38279  1.0000
  H   H378      1.0  0.18891  0.16170  0.41384  1.0000
  H   H379      1.0  0.18442  0.14205  0.39779  1.0000
  H   H380      1.0  0.21565  0.16852  0.40143  1.0000
  H   H381      1.0  0.22289  0.28921  0.42451  1.0000
  H   H382      1.0  0.25549  0.30289  0.41729  1.0000
  H   H383      1.0  0.22917  0.30876  0.40828  1.0000
  H   H384      1.0  0.21765  0.24669  0.34983  1.0000
  H   H385      1.0  0.22419  0.28155  0.35061  1.0000
  H   H386      1.0  0.24513  0.26892  0.36042  1.0000
  H   H387      1.0  0.11001  0.21640  0.38960  1.0000
  H   H388      1.0  0.11059  0.18353  0.38997  1.0000
  N   N10       1.0  0.30570  0.07927  0.39546  1.0000
  C   C225      1.0  0.33121  0.08838  0.38742  1.0000
  C   C226      1.0  0.30967  0.07041  0.41037  1.0000
  C   C227      1.0  0.28614  0.05569  0.38745  1.0000
  C   C228      1.0  0.29444  0.10030  0.39611  1.0000
  C   C229      1.0  0.31090  0.12604  0.40432  1.0000
  C   C230      1.0  0.33020  0.09585  0.37144  1.0000
  C   C231      1.0  0.25969  0.04030  0.39501  1.0000
  C   C232      1.0  0.33678  0.08539  0.41790  1.0000
  C   C233      1.0  0.33630  0.07786  0.43369  1.0000
  C   C234      1.0  0.29795  0.14610  0.40345  1.0000
  C   C235      1.0  0.35731  0.10429  0.36471  1.0000
  H   H389      1.0  0.02659  0.31312  0.44065  1.0000
  H   H390      1.0  0.33914  0.07251  0.38774  1.0000
  H   H391      1.0  0.34642  0.10583  0.39270  1.0000
  H   H392      1.0  0.29401  0.07099  0.41753  1.0000
  H   H393      1.0  0.30739  0.04931  0.41020  1.0000
  H   H394      1.0  0.29512  0.04112  0.38503  1.0000
  H   H395      1.0  0.28071  0.06184  0.37692  1.0000
  H   H396      1.0  0.28998  0.10552  0.38513  1.0000
  H   H397      1.0  0.27526  0.09258  0.40162  1.0000
  H   H398      1.0  0.33095  0.13544  0.39998  1.0000
  H   H399      1.0  0.31196  0.12172  0.41588  1.0000
  H   H400      1.0  0.31689  0.07874  0.36503  1.0000
  H   H401      1.0  0.32364  0.11250  0.37037  1.0000
  H   H402      1.0  0.24849  0.05295  0.39679  1.0000
  H   H403      1.0  0.26281  0.03249  0.40554  1.0000
  H   H404      1.0  0.35210  0.08024  0.41267  1.0000
  H   H405      1.0  0.34325  0.10712  0.41738  1.0000
  C   C236      1.0  0.47814  0.38909  0.29111  1.0000
  H   H406      1.0  0.35574  0.08911  0.43880  1.0000
  H   H407      1.0  0.32119  0.08259  0.43944  1.0000
  H   H408      1.0  0.30909  0.16346  0.41035  1.0000
  H   H409      1.0  0.29769  0.15285  0.39224  1.0000
  H   H410      1.0  0.27753  0.13735  0.40748  1.0000
  H   H411      1.0  0.37173  0.12200  0.37023  1.0000
  H   H412      1.0  0.36448  0.08795  0.36532  1.0000
  H   H413      1.0  0.21524  0.18695  0.49519  1.0000
  C   C237      1.0  0.44072  0.42881  0.32264  1.0000
  H   H414      1.0  0.41095  0.44593  0.28557  1.0000
  H   H415      1.0  0.08922  0.22982  0.47299  1.0000
  H   H416      1.0  0.20721  0.35484  0.27899  1.0000
  C   C238      1.0  0.34490  0.02596  0.40680  1.0000
  C   C239      1.0  0.00471  0.28767  0.34628  1.0000
  H   H417      1.0  0.21918  0.42152  0.27245  1.0000
  H   H418      1.0  0.31587  0.31613  0.26894  1.0000
  S   S69       1.0  0.27713  0.01121  0.47861  1.0000
  N   N11       1.0  0.48129  0.03609  0.37963  1.0000
  Fe  Fe34      1.0  0.23166  0.01387  0.43399  1.0000
  C   C240      1.0  0.50386  0.11247  0.38667  1.0000
  H   H419      1.0  0.35024  0.22053  0.37540  1.0000
  H   H420      1.0  0.42096  0.27000  0.37922  1.0000
  H   H421      1.0  0.39908  0.25603  0.35909  1.0000
  H   H422      1.0  0.33144  0.09849  0.46454  1.0000
  H   H423      1.0  0.13943  0.22406  0.46715  1.0000
  H   H424      1.0  0.36319  0.18860  0.38102  1.0000
  H   H425      1.0  0.45064  0.38896  0.30717  1.0000
  H   H426      1.0  0.28383  0.09033  0.46559  1.0000
  H   H427      1.0  0.00526  0.28600  0.41213  1.0000
  N   N12       1.0  0.16654  0.24032  0.48493  1.0000
  H   H428      1.0  0.11640  0.19893  0.48979  1.0000
  C   C241      1.0  0.16818  0.21395  0.48833  1.0000
  C   C242      1.0  0.22257  0.05152  0.47138  1.0000
  H   H429      1.0  0.35747  0.02905  0.36573  1.0000
  H   H430      1.0  0.19026  0.30761  0.28636  1.0000
  C   C243      1.0  0.45376  0.43097  0.29185  1.0000
  H   H431      1.0  0.18353  0.46409  0.26639  1.0000
  C   C244      1.0  0.38182  0.23756  0.36084  1.0000
  H   H432      1.0  0.43373  0.41680  0.29468  1.0000
  H   H433      1.0  0.50219  0.22701  0.34917  1.0000
  H   H434      1.0  0.45746  0.42390  0.28124  1.0000
  H   H435      1.0  0.18238  0.17014  0.48810  1.0000
  C   C245      1.0  0.21238  0.29733  0.46059  1.0000
  C   C246      1.0  0.32446  0.01123  0.39741  1.0000
  C   C247      1.0  0.50074  0.44768  0.29784  1.0000
  H   H436      1.0  0.34544  0.08568  0.47879  1.0000
  C   C248      1.0  0.28637  0.36179  0.27358  1.0000
  C   C249      1.0  0.27390  0.11837  0.48687  1.0000
  N   N13       1.0  0.26137  0.08859  0.48458  1.0000
  H   H437      1.0  0.10155  0.19698  0.40571  1.0000
  H   H438      1.0  0.47635  0.46209  0.31745  1.0000
  H   H439      1.0  0.21229  0.31667  0.45712  1.0000
  C   C250      1.0  0.01886  0.27366  0.36980  1.0000
  H   H440      1.0  0.05440  0.29304  0.30008  1.0000
  Fe  Fe35      1.0  0.35145  0.42998  0.25805  1.0000
  H   H441      1.0  0.20975  0.22907  0.49594  1.0000
  H   H442      1.0  0.50345  0.44333  0.28645  1.0000
  H   H443      1.0  0.04481  0.29208  0.35257  1.0000
  H   H444      1.0  0.07154  0.48463  0.28006  1.0000
  H   H445      1.0  0.49076  0.14578  0.32375  1.0000
  H   H446      1.0  0.25701  0.17327  0.49180  1.0000
  H   H447      1.0  0.16112  0.27247  0.49605  1.0000
  C   C251      1.0  0.46473  0.02218  0.30469  1.0000
  C   C252      1.0  0.35412  0.02833  0.37716  1.0000
  H   H448      1.0  0.49245  0.00462  0.41964  1.0000
  H   H449      1.0  0.04002  0.34147  0.34341  1.0000
  H   H450      1.0  0.20681  0.34498  0.26050  1.0000
  H   H451      1.0  0.49694  0.12450  0.39386  1.0000
  H   H452      1.0  0.06351  0.48662  0.26138  1.0000
  H   H453      1.0  0.21007  0.27990  0.49977  1.0000
  S   S70       1.0  0.08963  0.38737  0.25242  1.0000
  C   C253      1.0  0.19554  0.41331  0.25312  1.0000
  H   H454      1.0  0.50195  0.15825  0.34591  1.0000
  H   H455      1.0  0.01169  0.36716  0.27270  1.0000
  H   H456      1.0  0.02154  0.34808  0.32950  1.0000
  Fe  Fe36      1.0  0.12132  0.46419  0.25385  1.0000
  H   H457      1.0  0.50212  0.23187  0.33006  1.0000
  H   H458      1.0  0.23735  0.50086  0.25512  1.0000
  C   C254      1.0  0.24350  0.42987  0.25365  1.0000
  H   H459      1.0  0.32807  0.35010  0.26318  1.0000
  C   C255      1.0  0.49588  0.17555  0.37397  1.0000
  N   N14       1.0  0.01030  0.30640  0.33376  1.0000
  H   H460      1.0  0.00651  0.42281  0.27392  1.0000
  C   C256      1.0  0.21675  0.48695  0.25314  1.0000
  H   H461      1.0  0.27945  0.32685  0.25945  1.0000
  H   H462      1.0  0.27620  0.39337  0.25371  1.0000
  H   H463      1.0  0.24183  0.37938  0.25423  1.0000
  H   H464      1.0  0.00652  0.42759  0.32378  1.0000
  Fe  Fe37      1.0  0.00755  0.22945  0.46180  1.0000
  H   H465      1.0  0.00596  0.20156  0.49045  1.0000
  H   H466      1.0  0.22303  0.00674  0.39108  1.0000
  C   C257      1.0  0.00512  0.21245  0.49996  1.0000
  C   C258      1.0  0.00632  0.36775  0.28378  1.0000
  C   C259      1.0  0.00701  0.31439  0.44048  1.0000
  H   H467      1.0  0.00701  0.32895  0.44878  1.0000
  H   H468      1.0  0.50393  0.17764  0.38510  1.0000
  H   H469      1.0  0.30328  0.00864  0.63917  1.0000
  S   S71       1.0  0.23141  0.05956  0.56144  1.0000
  H   H470      1.0  0.32655  0.03195  0.69914  1.0000
  Fe  Fe38      1.0  0.23081  0.19524  0.58664  1.0000
  S   S72       1.0  0.27324  0.22284  0.58649  1.0000
  S   S73       1.0  0.21900  0.15386  0.59608  1.0000
  Fe  Fe39      1.0  0.21350  0.23821  0.57492  1.0000
  S   S74       1.0  0.25475  0.26863  0.57365  1.0000
  S   S75       1.0  0.18120  0.25109  0.56755  1.0000
  Fe  Fe40      1.0  0.26347  0.23472  0.56460  1.0000
  S   S76       1.0  0.28740  0.23279  0.54522  1.0000
  Fe  Fe41      1.0  0.26060  0.25420  0.59563  1.0000
  S   S77       1.0  0.27321  0.27636  0.61720  1.0000
  S   S78       1.0  0.22171  0.20533  0.56441  1.0000
  S   S79       1.0  0.21850  0.22550  0.59716  1.0000
  Fe  Fe42      1.0  0.04135  0.21745  0.59212  1.0000
  S   S80       1.0  0.04412  0.24848  0.57591  1.0000
  S   S81       1.0  0.07489  0.20867  0.60150  1.0000
  H   H471      1.0  0.08996  0.27509  0.54112  1.0000
  H   H472      1.0  0.35172  0.07864  0.69153  1.0000
  H   H473      1.0  0.17692  0.27325  0.52685  1.0000
  H   H474      1.0  0.19968  0.04039  0.61018  1.0000
  Fe  Fe43      1.0  0.37945  0.46362  0.67732  1.0000
  S   S82       1.0  0.34595  0.44994  0.69303  1.0000
  Fe  Fe44      1.0  0.35366  0.41142  0.65976  1.0000
  S   S83       1.0  0.32013  0.39465  0.67478  1.0000
  S   S84       1.0  0.35462  0.38973  0.63890  1.0000
  Fe  Fe45      1.0  0.31803  0.43487  0.67408  1.0000
  S   S85       1.0  0.28031  0.43931  0.66585  1.0000
  Fe  Fe46      1.0  0.35089  0.41099  0.69237  1.0000
  S   S86       1.0  0.34927  0.38759  0.71290  1.0000
  S   S87       1.0  0.35121  0.45146  0.65842  1.0000
  S   S88       1.0  0.38491  0.42485  0.67737  1.0000
  Fe  Fe47      1.0  0.07506  0.39075  0.66845  1.0000
  S   S89       1.0  0.09156  0.38853  0.69043  1.0000
  S   S90       1.0  0.05220  0.34859  0.65985  1.0000
  Fe  Fe48      1.0  0.09588  0.45166  0.67074  1.0000
  S   S91       1.0  0.11297  0.45226  0.69270  1.0000
  H   H475      1.0  0.36095  0.19264  0.52279  1.0000
  Fe  Fe49      1.0  0.12807  0.42257  0.68383  1.0000
  S   S92       1.0  0.16802  0.42316  0.69154  1.0000
  Fe  Fe50      1.0  0.07500  0.41814  0.69731  1.0000
  S   S93       1.0  0.05648  0.41604  0.71934  1.0000
  S   S94       1.0  0.11271  0.42329  0.66139  1.0000
  S   S95       1.0  0.05672  0.41900  0.67577  1.0000
  C   C260      1.0  0.24898  0.43385  0.67318  1.0000
  C   C261      1.0  0.22883  0.43473  0.66399  1.0000
  C   C262      1.0  0.20381  0.43101  0.66930  1.0000
  C   C263      1.0  0.19873  0.42683  0.68396  1.0000
  C   C264      1.0  0.21884  0.42586  0.69311  1.0000
  C   C265      1.0  0.24371  0.42916  0.68778  1.0000
  H   H476      1.0  0.23265  0.43832  0.65267  1.0000
  H   H477      1.0  0.18854  0.43149  0.66208  1.0000
  H   H478      1.0  0.21519  0.42259  0.70447  1.0000
  H   H479      1.0  0.25893  0.42848  0.69501  1.0000
  H   H480      1.0  0.06065  0.37330  0.63130  1.0000
  H   H481      1.0  0.45789  0.40974  0.74147  1.0000
  H   H482      1.0  0.21160  0.29220  0.52528  1.0000
  C   C266      1.0  0.31207  0.24079  0.66973  1.0000
  H   H483      1.0  0.14081  0.47772  0.64414  1.0000
  H   H484      1.0  0.06000  0.47727  0.68188  1.0000
  C   C267      1.0  0.41364  0.36421  0.73339  1.0000
  C   C268      1.0  0.38946  0.35793  0.74003  1.0000
  C   C269      1.0  0.37012  0.36549  0.73367  1.0000
  C   C270      1.0  0.37476  0.37957  0.72070  1.0000
  C   C271      1.0  0.39908  0.38618  0.71415  1.0000
  C   C272      1.0  0.41832  0.37839  0.72043  1.0000
  H   H485      1.0  0.31385  0.33202  0.67631  1.0000
  H   H486      1.0  0.34749  0.02104  0.68869  1.0000
  H   H487      1.0  0.40294  0.39698  0.70417  1.0000
  H   H488      1.0  0.43692  0.38326  0.71517  1.0000
  H   H489      1.0  0.22408  0.30188  0.59524  1.0000
  S   S96       1.0  0.43839  0.35427  0.74053  1.0000
  H   H490      1.0  0.02334  0.14358  0.51267  1.0000
  C   C273      1.0  0.02283  0.40288  0.72415  1.0000
  H   H491      1.0  0.48028  0.02593  0.74312  1.0000
  H   H492      1.0  0.28146  0.16544  0.50154  1.0000
  H   H493      1.0  0.19465  0.47822  0.65319  1.0000
  C   C274      1.0  0.03319  0.31318  0.61411  1.0000
  C   C275      1.0  0.02761  0.29692  0.62618  1.0000
  C   C276      1.0  0.03349  0.30817  0.64005  1.0000
  C   C277      1.0  0.04549  0.33577  0.64204  1.0000
  C   C278      1.0  0.05149  0.35204  0.62996  1.0000
  H   H494      1.0  0.24090  0.09690  0.51223  1.0000
  H   H495      1.0  0.02872  0.29540  0.64930  1.0000
  N   N15       1.0  0.34102  0.31474  0.68338  1.0000
  C   C279      1.0  0.08700  0.23974  0.52918  1.0000
  H   H496      1.0  0.24820  0.27491  0.51043  1.0000
  H   H497      1.0  0.38488  0.35759  0.64827  1.0000
  C   C280      1.0  0.33146  0.35844  0.63289  1.0000
  C   C281      1.0  0.31238  0.34154  0.64197  1.0000
  C   C282      1.0  0.29490  0.31651  0.63697  1.0000
  C   C283      1.0  0.29580  0.30826  0.62274  1.0000
  C   C284      1.0  0.31452  0.32541  0.61356  1.0000
  C   C285      1.0  0.33236  0.35024  0.61866  1.0000
  H   H498      1.0  0.31125  0.34772  0.65285  1.0000
  H   H499      1.0  0.28047  0.30345  0.64415  1.0000
  H   H500      1.0  0.31554  0.31937  0.60260  1.0000
  H   H501      1.0  0.34704  0.36316  0.61154  1.0000
  C   C286      1.0  0.15226  0.23972  0.57747  1.0000
  C   C287      1.0  0.14749  0.21993  0.58776  1.0000
  C   C288      1.0  0.12372  0.21062  0.59518  1.0000
  C   C289      1.0  0.10453  0.22077  0.59216  1.0000
  C   C290      1.0  0.10933  0.24052  0.58186  1.0000
  C   C291      1.0  0.13323  0.25014  0.57463  1.0000
  H   H502      1.0  0.16201  0.21166  0.58994  1.0000
  H   H503      1.0  0.12010  0.19534  0.60316  1.0000
  H   H504      1.0  0.09480  0.24863  0.57957  1.0000
  H   H505      1.0  0.13694  0.26559  0.56673  1.0000
  C   C292      1.0  0.27902  0.24020  0.52777  1.0000
  C   C293      1.0  0.26363  0.25505  0.52575  1.0000
  C   C294      1.0  0.05414  0.16775  0.52737  1.0000
  C   C295      1.0  0.28875  0.23183  0.51565  1.0000
  H   H506      1.0  0.25644  0.26206  0.53497  1.0000
  H   H507      1.0  0.30144  0.22116  0.51705  1.0000
  C   C296      1.0  0.22537  0.08386  0.57154  1.0000
  C   C297      1.0  0.22837  0.08564  0.58648  1.0000
  C   C298      1.0  0.22597  0.10699  0.59391  1.0000
  C   C299      1.0  0.22094  0.12686  0.58646  1.0000
  C   C300      1.0  0.21706  0.12455  0.57159  1.0000
  C   C301      1.0  0.21917  0.10306  0.56419  1.0000
  H   H508      1.0  0.23336  0.07107  0.59224  1.0000
  H   H509      1.0  0.22880  0.10855  0.60544  1.0000
  H   H510      1.0  0.21277  0.13952  0.56578  1.0000
  H   H511      1.0  0.21664  0.10166  0.55265  1.0000
  H   H512      1.0  0.47967  0.47425  0.72267  1.0000
  C   C302      1.0  0.44326  0.47430  0.71444  1.0000
  H   H513      1.0  0.19874  0.25131  0.51140  1.0000
  N   N16       1.0  0.09538  0.20062  0.54087  1.0000
  C   C303      1.0  0.08438  0.22177  0.54240  1.0000
  C   C304      1.0  0.37425  0.01492  0.73534  1.0000
  C   C305      1.0  0.12473  0.21437  0.53881  1.0000
  C   C306      1.0  0.08418  0.18333  0.52783  1.0000
  H   H514      1.0  0.37342  0.06764  0.68137  1.0000
  C   C307      1.0  0.14111  0.19704  0.54110  1.0000
  H   H515      1.0  0.27132  0.01604  0.66445  1.0000
  H   H516      1.0  0.02439  0.29237  0.70690  1.0000
  C   C308      1.0  0.15770  0.02402  0.60521  1.0000
  C   C309      1.0  0.16854  0.21002  0.53482  1.0000
  H   H517      1.0  0.09379  0.23466  0.55181  1.0000
  H   H518      1.0  0.06317  0.21319  0.54485  1.0000
  H   H519      1.0  0.36547  0.22155  0.53365  1.0000
  C   C310      1.0  0.46164  0.47530  0.72707  1.0000
  H   H520      1.0  0.13328  0.23156  0.54629  1.0000
  H   H521      1.0  0.04941  0.35356  0.60681  1.0000
  H   H522      1.0  0.17326  0.47592  0.68569  1.0000
  H   H523      1.0  0.09290  0.16828  0.52675  1.0000
  H   H524      1.0  0.02511  0.50264  0.67352  1.0000
  H   H525      1.0  0.16517  0.46424  0.66332  1.0000
  H   H526      1.0  0.13157  0.17719  0.53612  1.0000
  H   H527      1.0  0.14363  0.19429  0.55277  1.0000
  H   H528      1.0  0.38703  0.36128  0.68125  1.0000
  H   H529      1.0  0.00987  0.37000  0.66984  1.0000
  H   H530      1.0  0.16380  0.06345  0.56381  1.0000
  Fe  Fe51      1.0  0.00834  0.21759  0.56552  1.0000
  C   C311      1.0  0.39450  0.30717  0.70902  1.0000
  C   C312      1.0  0.35745  0.32608  0.67034  1.0000
  C   C313      1.0  0.17616  0.48045  0.65596  1.0000
  H   H531      1.0  0.12898  0.22290  0.52788  1.0000
  H   H532      1.0  0.18041  0.19835  0.53773  1.0000
  H   H533      1.0  0.29218  0.23922  0.66627  1.0000
  H   H534      1.0  0.17883  0.23043  0.53907  1.0000
  C   C314      1.0  0.33834  0.03579  0.68921  1.0000
  C   C315      1.0  0.23501  0.07632  0.50825  1.0000
  H   H535      1.0  0.48874  0.43956  0.72412  1.0000
  C   C316      1.0  0.15991  0.02817  0.58866  1.0000
  N   N17       1.0  0.30011  0.16230  0.55258  1.0000
  C   C317      1.0  0.31992  0.18033  0.54234  1.0000
  C   C318      1.0  0.27303  0.16145  0.54893  1.0000
  C   C319      1.0  0.30754  0.17407  0.56749  1.0000
  C   C320      1.0  0.30031  0.13481  0.55287  1.0000
  C   C321      1.0  0.29577  0.11967  0.53842  1.0000
  H   H536      1.0  0.35617  0.19377  0.55560  1.0000
  C   C322      1.0  0.28682  0.16176  0.57931  1.0000
  C   C323      1.0  0.26565  0.16211  0.53285  1.0000
  C   C324      1.0  0.23694  0.15845  0.53093  1.0000
  C   C325      1.0  0.30180  0.09479  0.53990  1.0000
  C   C326      1.0  0.29828  0.17135  0.59427  1.0000
  H   H537      1.0  0.05496  0.14246  0.50937  1.0000
  H   H538      1.0  0.25800  0.14374  0.55372  1.0000
  H   H539      1.0  0.27022  0.17868  0.55387  1.0000
  H   H540      1.0  0.31165  0.19570  0.56733  1.0000
  H   H541      1.0  0.32600  0.17242  0.57132  1.0000
  H   H542      1.0  0.31900  0.13534  0.55777  1.0000
  H   H543      1.0  0.28477  0.12169  0.56002  1.0000
  H   H544      1.0  0.30832  0.13180  0.52982  1.0000
  H   H545      1.0  0.27481  0.11297  0.53515  1.0000
  C   C327      1.0  0.14751  0.04396  0.56581  1.0000
  H   H546      1.0  0.27931  0.13989  0.57936  1.0000
  H   H547      1.0  0.26989  0.16759  0.57764  1.0000
  H   H548      1.0  0.27763  0.18161  0.52827  1.0000
  H   H549      1.0  0.26892  0.14680  0.52641  1.0000
  H   H550      1.0  0.22370  0.13883  0.53497  1.0000
  H   H551      1.0  0.23319  0.17428  0.53679  1.0000
  H   H552      1.0  0.23248  0.15978  0.51937  1.0000
  H   H553      1.0  0.28888  0.08126  0.54801  1.0000
  H   H554      1.0  0.29832  0.08409  0.52947  1.0000
  H   H555      1.0  0.05170  0.36373  0.71097  1.0000
  H   H556      1.0  0.28245  0.16390  0.60230  1.0000
  H   H557      1.0  0.31369  0.16377  0.59706  1.0000
  H   H558      1.0  0.30689  0.19331  0.59484  1.0000
  H   H559      1.0  0.06537  0.19666  0.56797  1.0000
  H   H560      1.0  0.17909  0.03947  0.62512  1.0000
  H   H561      1.0  0.01027  0.34450  0.72334  1.0000
  S   S97       1.0  0.02430  0.29987  0.59650  1.0000
  H   H562      1.0  0.20632  0.49191  0.70425  1.0000
  H   H563      1.0  0.10831  0.02674  0.59557  1.0000
  H   H564      1.0  0.29709  0.35753  0.69975  1.0000
  N   N18       1.0  0.25764  0.37489  0.62787  1.0000
  C   C328      1.0  0.24997  0.35713  0.64080  1.0000
  C   C329      1.0  0.26021  0.35904  0.61512  1.0000
  C   C330      1.0  0.28453  0.39616  0.63092  1.0000
  C   C331      1.0  0.23871  0.38815  0.62464  1.0000
  C   C332      1.0  0.20941  0.37278  0.62849  1.0000
  C   C333      1.0  0.25138  0.37146  0.65533  1.0000
  C   C334      1.0  0.29772  0.41435  0.61812  1.0000
  C   C335      1.0  0.23572  0.33435  0.61070  1.0000
  C   C336      1.0  0.24161  0.31997  0.59798  1.0000
  C   C337      1.0  0.19216  0.38639  0.62228  1.0000
  C   C338      1.0  0.23693  0.35215  0.66709  1.0000
  H   H565      1.0  0.48692  0.39436  0.72669  1.0000
  H   H566      1.0  0.26296  0.34596  0.64190  1.0000
  H   H567      1.0  0.22994  0.34167  0.63949  1.0000
  H   H568      1.0  0.26552  0.37157  0.60536  1.0000
  H   H569      1.0  0.27666  0.35238  0.61710  1.0000
  H   H570      1.0  0.29837  0.38722  0.63483  1.0000
  H   H571      1.0  0.28361  0.40943  0.63977  1.0000
  H   H572      1.0  0.24481  0.40744  0.63049  1.0000
  H   H573      1.0  0.23957  0.39346  0.61307  1.0000
  H   H574      1.0  0.20693  0.37206  0.64029  1.0000
  H   H575      1.0  0.20160  0.35215  0.62453  1.0000
  H   H576      1.0  0.27215  0.38142  0.65887  1.0000
  H   H577      1.0  0.24305  0.38682  0.65444  1.0000
  H   H578      1.0  0.28391  0.42173  0.61271  1.0000
  H   H579      1.0  0.30455  0.40338  0.61018  1.0000
  H   H580      1.0  0.22911  0.31996  0.61959  1.0000
  H   H581      1.0  0.21960  0.34024  0.60712  1.0000
  H   H582      1.0  0.24682  0.33290  0.58839  1.0000
  H   H583      1.0  0.25810  0.31389  0.60062  1.0000
  C   C339      1.0  0.09084  0.18435  0.55443  1.0000
  H   H584      1.0  0.19314  0.38699  0.61037  1.0000
  H   H585      1.0  0.17144  0.37532  0.62533  1.0000
  H   H586      1.0  0.19859  0.40692  0.62656  1.0000
  H   H587      1.0  0.23946  0.36308  0.67742  1.0000
  H   H588      1.0  0.21563  0.34272  0.66448  1.0000
  H   H589      1.0  0.24504  0.33662  0.66839  1.0000
  S   S98       1.0  0.01533  0.22778  0.60700  1.0000
  H   H590      1.0  0.02485  0.46072  0.68381  1.0000
  H   H591      1.0  0.04865  0.15123  0.53514  1.0000
  C   C340      1.0  0.49601  0.43463  0.73438  1.0000
  H   H592      1.0  0.31509  0.17347  0.53108  1.0000
  C   C341      1.0  0.04480  0.15556  0.51251  1.0000
  H   H593      1.0  0.33277  0.04556  0.66718  1.0000
  H   H594      1.0  0.15436  0.49319  0.71472  1.0000
  H   H595      1.0  0.27446  0.33151  0.68849  1.0000
  H   H596      1.0  0.02858  0.27938  0.67375  1.0000
  C   C342      1.0  0.14919  0.06719  0.58843  1.0000
  H   H597      1.0  0.00747  0.18286  0.51442  1.0000
  H   H598      1.0  0.10100  0.03113  0.57757  1.0000
  C   C343      1.0  0.25875  0.26213  0.51181  1.0000
  C   C344      1.0  0.13375  0.08343  0.58242  1.0000
  H   H599      1.0  0.17157  0.04887  0.53941  1.0000
  C   C345      1.0  0.30523  0.32166  0.69875  1.0000
  C   C346      1.0  0.37563  0.35585  0.67105  1.0000
  H   H600      1.0  0.05871  0.33673  0.73870  1.0000
  C   C347      1.0  0.14439  0.11146  0.58869  1.0000
  C   C348      1.0  0.04514  0.34078  0.61608  1.0000
  H   H601      1.0  0.36365  0.36799  0.66992  1.0000
  H   H602      1.0  0.43768  0.43420  0.73170  1.0000
  S   S99       1.0  0.10037  0.49049  0.65963  1.0000
  H   H603      1.0  0.17056  0.07926  0.58718  1.0000
  H   H604      1.0  0.14587  0.06578  0.60019  1.0000
  H   H605      1.0  0.40598  0.29444  0.70889  1.0000
  C   C349      1.0  0.01621  0.39636  0.73858  1.0000
  H   H606      1.0  0.35648  0.01558  0.71468  1.0000
  C   C350      1.0  0.11352  0.02391  0.58438  1.0000
  H   H607      1.0  0.18074  0.04018  0.58597  1.0000
  H   H608      1.0  0.05680  0.25326  0.53631  1.0000
  H   H609      1.0  0.11272  0.07388  0.58527  1.0000
  H   H610      1.0  0.16066  0.50035  0.68866  1.0000
  H   H611      1.0  0.04844  0.17133  0.50437  1.0000
  H   H612      1.0  0.35137  0.36028  0.73882  1.0000
  H   H613      1.0  0.28134  0.03221  0.62570  1.0000
  H   H614      1.0  0.04662  0.46228  0.69869  1.0000
  H   H615      1.0  0.18870  0.30209  0.51538  1.0000
  H   H616      1.0  0.27725  0.02806  0.50781  1.0000
  H   H617      1.0  0.34439  0.32355  0.66074  1.0000
  H   H618      1.0  0.30748  0.04438  0.67873  1.0000
  H   H619      1.0  0.31097  0.23181  0.68051  1.0000
  C   C351      1.0  0.01772  0.33014  0.71863  1.0000
  C   C352      1.0  0.32181  0.43830  0.62302  1.0000
  H   H620      1.0  0.31633  0.45034  0.63096  1.0000
  H   H621      1.0  0.13221  0.12224  0.58485  1.0000
  H   H622      1.0  0.14407  0.11101  0.60061  1.0000
  H   H623      1.0  0.47954  0.46696  0.67323  1.0000
  H   H624      1.0  0.29327  0.30012  0.69822  1.0000
  C   C353      1.0  0.36016  0.06332  0.69070  1.0000
  H   H625      1.0  0.32264  0.10005  0.54315  1.0000
  H   H626      1.0  0.17079  0.49198  0.63411  1.0000
  H   H627      1.0  0.40930  0.35351  0.66011  1.0000
  H   H628      1.0  0.31595  0.32617  0.70923  1.0000
  H   H629      1.0  0.15301  0.24332  0.50626  1.0000
  H   H630      1.0  0.08207  0.36635  0.73073  1.0000
  C   C354      1.0  0.07741  0.26174  0.53262  1.0000
  C   C355      1.0  0.17029  0.48558  0.71464  1.0000
  C   C356      1.0  0.19114  0.50049  0.70372  1.0000
  C   C357      1.0  0.37640  0.30132  0.69580  1.0000
  H   H631      1.0  0.38309  0.30331  0.71908  1.0000
  C   C358      1.0  0.34888  0.18407  0.54506  1.0000
  H   H632      1.0  0.33214  0.27731  0.65886  1.0000
  C   C359      1.0  0.18169  0.04326  0.61343  1.0000
  C   C360      1.0  0.19254  0.28477  0.51930  1.0000
  H   H633      1.0  0.05819  0.13809  0.56885  1.0000
  H   H634      1.0  0.15627  0.00845  0.58390  1.0000
  H   H635      1.0  0.40646  0.38513  0.65885  1.0000
  C   C361      1.0  0.04218  0.49927  0.69442  1.0000
  C   C362      1.0  0.32034  0.03371  0.67592  1.0000
  H   H636      1.0  0.02608  0.49429  0.70218  1.0000
  H   H637      1.0  0.16729  0.21077  0.52298  1.0000
  H   H638      1.0  0.10764  0.24935  0.52572  1.0000
  H   H639      1.0  0.21554  0.48578  0.67676  1.0000
  H   H640      1.0  0.27497  0.08131  0.50540  1.0000
  N   N19       1.0  0.46463  0.44845  0.74996  1.0000
  H   H641      1.0  0.34512  0.30785  0.70598  1.0000
  N   N20       1.0  0.14224  0.04013  0.58177  1.0000
  C   C363      1.0  0.15599  0.02367  0.55793  1.0000
  H   H642      1.0  0.45900  0.01220  0.71919  1.0000
  C   C364      1.0  0.00498  0.21571  0.52611  1.0000
  C   C365      1.0  0.32217  0.28648  0.68042  1.0000
  H   H643      1.0  0.37196  0.06423  0.70060  1.0000
  H   H644      1.0  0.01447  0.31444  0.72685  1.0000
  H   H645      1.0  0.43835  0.45571  0.70815  1.0000
  C   C366      1.0  0.06082  0.35423  0.73206  1.0000
  H   H646      1.0  0.38914  0.30704  0.68629  1.0000
  H   H647      1.0  0.31070  0.04087  0.64727  1.0000
  H   H648      1.0  0.16477  0.01433  0.53650  1.0000
  C   C367      1.0  0.28421  0.00678  0.65978  1.0000
  C   C368      1.0  0.23063  0.05844  0.52137  1.0000
  C   C369      1.0  0.46143  0.01197  0.74753  1.0000
  H   H649      1.0  0.15647  0.45685  0.63736  1.0000
  C   C370      1.0  0.04778  0.34562  0.71733  1.0000
  C   C371      1.0  0.06063  0.15726  0.57391  1.0000
  H   H650      1.0  0.10634  0.19473  0.56262  1.0000
  H   H651      1.0  0.13979  0.02531  0.60966  1.0000
  C   C372      1.0  0.32496  0.33108  0.68622  1.0000
  H   H652      1.0  0.21553  0.06082  0.52831  1.0000
  H   H653      1.0  0.22382  0.03733  0.51806  1.0000
  H   H654      1.0  0.24896  0.06363  0.52785  1.0000
  H   H655      1.0  0.17935  0.48824  0.72554  1.0000
  H   H656      1.0  0.30347  0.28611  0.67553  1.0000
  H   H657      1.0  0.02560  0.35177  0.69181  1.0000
  H   H658      1.0  0.07757  0.16341  0.58156  1.0000
  C   C373      1.0  0.06473  0.17841  0.56247  1.0000
  H   H659      1.0  0.40535  0.00490  0.70590  1.0000
  H   H660      1.0  0.03285  0.31330  0.69167  1.0000
  H   H661      1.0  0.13796  0.02527  0.53716  1.0000
  H   H662      1.0  0.05200  0.36652  0.73774  1.0000
  H   H663      1.0  0.40858  0.32811  0.70898  1.0000
  H   H664      1.0  0.31909  0.20035  0.54259  1.0000
  H   H665      1.0  0.05754  0.33375  0.71211  1.0000
  C   C374      1.0  0.26592  0.00698  0.50733  1.0000
  C   C375      1.0  0.44793  0.45285  0.73793  1.0000
  H   H666      1.0  0.27265  0.32896  0.70777  1.0000
  H   H667      1.0  0.35096  0.27025  0.67292  1.0000
  H   H668      1.0  0.36476  0.27967  0.69554  1.0000
  N   N21       1.0  0.11274  0.28828  0.62254  1.0000
  C   C376      1.0  0.08475  0.27094  0.62613  1.0000
  C   C377      1.0  0.11422  0.29768  0.60718  1.0000
  C   C378      1.0  0.12886  0.27144  0.62385  1.0000
  C   C379      1.0  0.12429  0.31130  0.63285  1.0000
  C   C380      1.0  0.11003  0.33061  0.63376  1.0000
  C   C381      1.0  0.08011  0.25947  0.64152  1.0000
  C   C382      1.0  0.15689  0.28315  0.61743  1.0000
  C   C383      1.0  0.09089  0.30388  0.60119  1.0000
  C   C384      1.0  0.09685  0.31641  0.58634  1.0000
  C   C385      1.0  0.11962  0.34914  0.64675  1.0000
  C   C386      1.0  0.05122  0.24180  0.64365  1.0000
  C   C387      1.0  0.17198  0.26556  0.62077  1.0000
  H   H669      1.0  0.07715  0.25403  0.61840  1.0000
  H   H670      1.0  0.07145  0.28156  0.62471  1.0000
  H   H671      1.0  0.13267  0.31539  0.60557  1.0000
  H   H672      1.0  0.11515  0.28218  0.59975  1.0000
  H   H673      1.0  0.11836  0.25183  0.61853  1.0000
  H   H674      1.0  0.13134  0.26704  0.63530  1.0000
  H   H675      1.0  0.12581  0.30408  0.64385  1.0000
  H   H676      1.0  0.14483  0.32369  0.62999  1.0000
  H   H677      1.0  0.08859  0.32008  0.63479  1.0000
  H   H678      1.0  0.11418  0.34320  0.62405  1.0000
  H   H679      1.0  0.09160  0.24714  0.64367  1.0000
  H   H680      1.0  0.08555  0.27562  0.64963  1.0000
  H   H681      1.0  0.16856  0.30313  0.62180  1.0000
  H   H682      1.0  0.15593  0.28455  0.60556  1.0000
  H   H683      1.0  0.07316  0.28527  0.60004  1.0000
  H   H684      1.0  0.08590  0.31740  0.60822  1.0000
  H   H685      1.0  0.07947  0.31979  0.58217  1.0000
  H   H686      1.0  0.11377  0.33577  0.58693  1.0000
  H   H687      1.0  0.10121  0.30310  0.57872  1.0000
  H   H688      1.0  0.10998  0.36357  0.64667  1.0000
  H   H689      1.0  0.11434  0.33775  0.65688  1.0000
  H   H690      1.0  0.14120  0.36031  0.64652  1.0000
  H   H691      1.0  0.04496  0.22477  0.63604  1.0000
  H   H692      1.0  0.04838  0.23396  0.65475  1.0000
  H   H693      1.0  0.03861  0.25317  0.64198  1.0000
  H   H694      1.0  0.19130  0.27346  0.61541  1.0000
  H   H695      1.0  0.17542  0.26497  0.63251  1.0000
  H   H696      1.0  0.16097  0.24510  0.61674  1.0000
  H   H697      1.0  0.04343  0.18056  0.52984  1.0000
  H   H698      1.0  0.46418  0.48665  0.68177  1.0000
  H   H699      1.0  0.36936  0.33715  0.69968  1.0000
  Fe  Fe52      1.0  0.22459  0.01786  0.56904  1.0000
  C   C388      1.0  0.36667  0.20176  0.53361  1.0000
  H   H700      1.0  0.33791  0.35189  0.68888  1.0000
  H   H701      1.0  0.04728  0.17163  0.55529  1.0000
  C   C389      1.0  0.28623  0.33581  0.69861  1.0000
  C   C390      1.0  0.39524  0.36336  0.65881  1.0000
  C   C391      1.0  0.16009  0.47662  0.64205  1.0000
  H   H702      1.0  0.31648  0.27538  0.69067  1.0000
  H   H703      1.0  0.35108  0.16481  0.54475  1.0000
  C   C392      1.0  0.33129  0.26971  0.66998  1.0000
  H   H704      1.0  0.13510  0.08522  0.57057  1.0000
  H   H705      1.0  0.13016  0.04477  0.55994  1.0000
  C   C393      1.0  0.29526  0.02089  0.64552  1.0000
  H   H706      1.0  0.07819  0.27357  0.52284  1.0000
  H   H707      1.0  0.18443  0.06411  0.61143  1.0000
  H   H708      1.0  0.04270  0.15445  0.58006  1.0000
  H   H709      1.0  0.08982  0.19525  0.51786  1.0000
  H   H710      1.0  0.17581  0.02588  0.56176  1.0000
  H   H711      1.0  0.36100  0.02055  0.66529  1.0000
  H   H712      1.0  0.31882  0.22944  0.66198  1.0000
  H   H713      1.0  0.38735  0.20450  0.53587  1.0000
  Fe  Fe53      1.0  0.01573  0.25705  0.59026  1.0000
  H   H714      1.0  0.16485  0.12254  0.58519  1.0000
  C   C394      1.0  0.27357  0.02425  0.63639  1.0000
  C   C395      1.0  0.04346  0.47333  0.68934  1.0000
  H   H715      1.0  0.07480  0.22803  0.52007  1.0000
  H   H716      1.0  0.36993  0.31508  0.66770  1.0000
  C   C396      1.0  0.47438  0.42725  0.74581  1.0000
  H   H717      1.0  0.01834  0.27572  0.62483  1.0000
  H   H718      1.0  0.38177  0.03617  0.73681  1.0000
  C   C397      1.0  0.28271  0.23776  0.50167  1.0000
  C   C398      1.0  0.35774  0.31623  0.69657  1.0000
  H   H719      1.0  0.09276  0.16522  0.55220  1.0000
  H   H720      1.0  0.33073  0.45095  0.61366  1.0000
  H   H721      1.0  0.33674  0.43178  0.62789  1.0000
  H   H722      1.0  0.44761  0.02221  0.74832  1.0000
  C   C399      1.0  0.17935  0.49721  0.68835  1.0000
  H   H723      1.0  0.16178  0.46406  0.71211  1.0000
  C   C400      1.0  0.19392  0.26744  0.50673  1.0000
  C   C401      1.0  0.15761  0.02842  0.54175  1.0000
  H   H724      1.0  0.46713  0.49490  0.73241  1.0000
  H   H725      1.0  0.41703  0.02077  0.68131  1.0000
  H   H726      1.0  0.00743  0.40429  0.70299  1.0000
  C   C402      1.0  0.01484  0.26464  0.68107  1.0000
  C   C403      1.0  0.01587  0.30100  0.69833  1.0000
  H   H727      1.0  0.02631  0.25770  0.68875  1.0000
  H   H728      1.0  0.26627  0.03822  0.64164  1.0000
  H   H729      1.0  0.18768  0.18384  0.50618  1.0000
  C   C404      1.0  0.48174  0.48750  0.67579  1.0000
  H   H730      1.0  0.42478  0.47545  0.71827  1.0000
  C   C405      1.0  0.34590  0.00821  0.65748  1.0000
  H   H731      1.0  0.45285  0.49131  0.70722  1.0000
  H   H732      1.0  0.21594  0.07014  0.50242  1.0000
  H   H733      1.0  0.25693  0.48945  0.68860  1.0000
  H   H734      1.0  0.34300  0.02178  0.64952  1.0000
  N   N22       1.0  0.30388  0.00587  0.67097  1.0000
  H   H735      1.0  0.03166  0.39968  0.74651  1.0000
  H   H736      1.0  0.48258  0.49812  0.66554  1.0000
  H   H737      1.0  0.43178  0.45786  0.74238  1.0000
  C   C406      1.0  0.00487  0.34050  0.69493  1.0000
  H   H738      1.0  0.38198  0.00421  0.68315  1.0000
  S   S100      1.0  0.41283  0.50305  0.68406  1.0000
  H   H739      1.0  0.50022  0.48218  0.74497  1.0000
  S   S101      1.0  0.00780  0.18581  0.58093  1.0000
  S   S102      1.0  0.00669  0.20130  0.54291  1.0000
  H   H740      1.0  0.38553  0.34697  0.74996  1.0000
  C   C407      1.0  0.00609  0.20193  0.51360  1.0000
  H   H741      1.0  0.25692  0.00492  0.63473  1.0000
  C   C408      1.0  0.50385  0.41131  0.73127  1.0000
  H   H742      1.0  0.35489  0.19201  0.98664  1.0000
  H   H743      1.0  0.47200  0.42618  0.83331  1.0000
  H   H744      1.0  0.23292  0.12294  0.98719  1.0000
  C   C409      1.0  0.46789  0.43215  0.86299  1.0000
  S   S103      1.0  0.29074  0.29085  0.97570  1.0000
  Fe  Fe54      1.0  0.42543  0.32433  0.93050  1.0000
  S   S104      1.0  0.46974  0.33773  0.93057  1.0000
  S   S105      1.0  0.40549  0.31284  0.95239  1.0000
  Fe  Fe55      1.0  0.42312  0.32145  0.89728  1.0000
  S   S106      1.0  0.46647  0.33381  0.89531  1.0000
  S   S107      1.0  0.39393  0.30991  0.87858  1.0000
  Fe  Fe56      1.0  0.46261  0.30614  0.91368  1.0000
  S   S108      1.0  0.48362  0.27788  0.91371  1.0000
  Fe  Fe57      1.0  0.46990  0.36454  0.91219  1.0000
  H   H745      1.0  0.31220  0.20421  0.95897  1.0000
  S   S109      1.0  0.41882  0.29159  0.91457  1.0000
  S   S110      1.0  0.42597  0.35347  0.91325  1.0000
  Fe  Fe58      1.0  0.46255  0.30435  0.78083  1.0000
  S   S111      1.0  0.42304  0.30484  0.77527  1.0000
  H   H746      1.0  0.49032  0.40020  0.87655  1.0000
  H   H747      1.0  0.40380  0.19417  0.75894  1.0000
  S   S112      1.0  0.44852  0.36898  0.78264  1.0000
  C   C410      1.0  0.47406  0.03132  0.85714  1.0000
  Fe  Fe59      1.0  0.42987  0.33097  0.79487  1.0000
  S   S113      1.0  0.39764  0.32473  0.81081  1.0000
  C   C411      1.0  0.02172  0.29994  0.94126  1.0000
  S   S114      1.0  0.46773  0.32831  0.80108  1.0000
  Fe  Fe60      1.0  0.44889  0.09071  0.79497  1.0000
  S   S115      1.0  0.46906  0.12558  0.78069  1.0000
  S   S116      1.0  0.46441  0.10194  0.81782  1.0000
  H   H748      1.0  0.45175  0.43766  0.85882  1.0000
  Fe  Fe61      1.0  0.47371  0.09632  0.76539  1.0000
  H   H749      1.0  0.47964  0.28218  0.81738  1.0000
  Fe  Fe62      1.0  0.42954  0.11560  0.77045  1.0000
  S   S117      1.0  0.41361  0.14749  0.76552  1.0000
  S   S118      1.0  0.45694  0.06219  0.78031  1.0000
  S   S119      1.0  0.40865  0.08180  0.78542  1.0000
  Fe  Fe63      1.0  0.47617  0.11153  0.91601  1.0000
  S   S120      1.0  0.45083  0.06796  0.91678  1.0000
  H   H750      1.0  0.28505  0.16890  0.98763  1.0000
  Fe  Fe64      1.0  0.42822  0.12638  0.91210  1.0000
  S   S121      1.0  0.39984  0.08410  0.91213  1.0000
  S   S122      1.0  0.41024  0.15625  0.90800  1.0000
  Fe  Fe65      1.0  0.42372  0.07974  0.93082  1.0000
  S   S123      1.0  0.40514  0.06223  0.95227  1.0000
  Fe  Fe66      1.0  0.42899  0.07654  0.89809  1.0000
  S   S124      1.0  0.41643  0.05191  0.87766  1.0000
  S   S125      1.0  0.45115  0.12294  0.93145  1.0000
  S   S126      1.0  0.45529  0.11918  0.89672  1.0000
  H   H751      1.0  0.43416  0.36642  0.87189  1.0000
  C   C412      1.0  0.44967  0.08770  0.83409  1.0000
  C   C413      1.0  0.42733  0.06418  0.83467  1.0000
  C   C414      1.0  0.41707  0.05343  0.84808  1.0000
  C   C415      1.0  0.42875  0.06640  0.86093  1.0000
  C   C416      1.0  0.45073  0.09016  0.86024  1.0000
  C   C417      1.0  0.46138  0.10046  0.84693  1.0000
  H   H752      1.0  0.41822  0.05410  0.82482  1.0000
  H   H753      1.0  0.40007  0.03500  0.84848  1.0000
  H   H754      1.0  0.45995  0.10037  0.86993  1.0000
  H   H755      1.0  0.47890  0.11837  0.84657  1.0000
  C   C418      1.0  0.45651  0.23522  0.77852  1.0000
  C   C419      1.0  0.46575  0.21613  0.78345  1.0000
  C   C420      1.0  0.45287  0.18929  0.77953  1.0000
  C   C421      1.0  0.43054  0.18118  0.77061  1.0000
  H   H756      1.0  0.47047  0.04869  0.85318  1.0000
  C   C422      1.0  0.46807  0.40486  0.83463  1.0000
  N   N23       1.0  0.46044  0.40264  0.86205  1.0000
  H   H757      1.0  0.46024  0.17490  0.78343  1.0000
  C   C423      1.0  0.46310  0.24400  0.91251  1.0000
  C   C424      1.0  0.47295  0.22472  0.91620  1.0000
  C   C425      1.0  0.45674  0.19763  0.91522  1.0000
  C   C426      1.0  0.43071  0.18980  0.91038  1.0000
  C   C427      1.0  0.42097  0.20902  0.90663  1.0000
  C   C428      1.0  0.43716  0.23597  0.90759  1.0000
  H   H758      1.0  0.03728  0.31937  0.93889  1.0000
  H   H759      1.0  0.46443  0.18287  0.91808  1.0000
  H   H760      1.0  0.40095  0.20309  0.90275  1.0000
  H   H761      1.0  0.42968  0.25047  0.90415  1.0000
  C   C429      1.0  0.39767  0.31531  0.85986  1.0000
  C   C430      1.0  0.41984  0.31634  0.85225  1.0000
  C   C431      1.0  0.42070  0.31977  0.83715  1.0000
  C   C432      1.0  0.39919  0.32164  0.82969  1.0000
  C   C433      1.0  0.37721  0.32031  0.83739  1.0000
  C   C434      1.0  0.37646  0.31716  0.85228  1.0000
  H   H762      1.0  0.43591  0.31388  0.85793  1.0000
  H   H763      1.0  0.43780  0.32079  0.83130  1.0000
  H   H764      1.0  0.36044  0.32154  0.83177  1.0000
  H   H765      1.0  0.35911  0.31597  0.85799  1.0000
  H   H766      1.0  0.02866  0.21446  0.97882  1.0000
  C   C435      1.0  0.32187  0.29482  0.96877  1.0000
  C   C436      1.0  0.33094  0.31037  0.95646  1.0000
  C   C437      1.0  0.35598  0.31512  0.95091  1.0000
  C   C438      1.0  0.37245  0.30462  0.95773  1.0000
  C   C439      1.0  0.36323  0.28876  0.96996  1.0000
  C   C440      1.0  0.33802  0.28369  0.97538  1.0000
  H   H767      1.0  0.31858  0.31902  0.95123  1.0000
  H   H768      1.0  0.36281  0.32748  0.94157  1.0000
  H   H769      1.0  0.37582  0.28057  0.97533  1.0000
  H   H770      1.0  0.33124  0.27155  0.98477  1.0000
  H   H771      1.0  0.43224  0.00812  0.85972  1.0000
  H   H772      1.0  0.29675  0.21620  0.98882  1.0000
  C   C441      1.0  0.35007  0.19378  0.99807  1.0000
  C   C442      1.0  0.31676  0.02589  0.96273  1.0000
  C   C443      1.0  0.33557  0.03831  0.97343  1.0000
  C   C444      1.0  0.36251  0.04942  0.97006  1.0000
  C   C445      1.0  0.37093  0.04894  0.95591  1.0000
  C   C446      1.0  0.35206  0.03711  0.94517  1.0000
  C   C447      1.0  0.48685  0.47410  0.75410  1.0000
  H   H773      1.0  0.37693  0.05863  0.97845  1.0000
  H   H774      1.0  0.35820  0.03637  0.93426  1.0000
  H   H775      1.0  0.49306  0.23078  0.91994  1.0000
  H   H776      1.0  0.29833  0.37191  0.98358  1.0000
  H   H777      1.0  0.43748  0.26434  0.87002  1.0000
  C   C448      1.0  0.44711  0.22953  0.86897  1.0000
  C   C449      1.0  0.04799  0.26747  0.97090  1.0000
  H   H778      1.0  0.07875  0.34350  0.95285  1.0000
  C   C450      1.0  0.07888  0.30376  0.95707  1.0000
  C   C451      1.0  0.08629  0.32932  0.94814  1.0000
  C   C452      1.0  0.05205  0.24399  0.96345  1.0000
  H   H779      1.0  0.36761  0.32932  0.99053  1.0000
  H   H780      1.0  0.39740  0.42302  0.77542  1.0000
  C   C453      1.0  0.06079  0.32342  0.98332  1.0000
  C   C454      1.0  0.11608  0.34347  0.94704  1.0000
  H   H781      1.0  0.32472  0.32310  0.99886  1.0000
  C   C455      1.0  0.30059  0.35867  0.99205  1.0000
  H   H782      1.0  0.45849  0.43452  0.77197  1.0000
  H   H783      1.0  0.47371  0.30034  0.83209  1.0000
  H   H784      1.0  0.00991  0.16299  0.98789  1.0000
  H   H785      1.0  0.45342  0.36964  0.82099  1.0000
  H   H786      1.0  0.04077  0.32559  0.96398  1.0000
  C   C456      1.0  0.03241  0.28068  0.94869  1.0000
  H   H787      1.0  0.02810  0.25918  0.97569  1.0000
  H   H788      1.0  0.47927  0.36446  0.84955  1.0000
  H   H789      1.0  0.44110  0.45464  0.76685  1.0000
  H   H790      1.0  0.07838  0.32421  0.93703  1.0000
  C   C457      1.0  0.46239  0.19141  0.85033  1.0000
  H   H791      1.0  0.34263  0.07522  0.89517  1.0000
  H   H792      1.0  0.46519  0.00638  0.75854  1.0000
  H   H793      1.0  0.46960  0.40017  0.81159  1.0000
  S   S127      1.0  0.22440  0.00944  0.99096  1.0000
  S   S128      1.0  0.39457  0.01264  0.76269  1.0000
  H   H794      1.0  0.46085  0.23750  0.85998  1.0000
  H   H795      1.0  0.45098  0.15327  0.83882  1.0000
  H   H796      1.0  0.02228  0.29836  0.97464  1.0000
  H   H797      1.0  0.12514  0.34990  0.95784  1.0000
  H   H798      1.0  0.12468  0.33024  0.94212  1.0000
  H   H799      1.0  0.12087  0.36129  0.94022  1.0000
  H   H800      1.0  0.37765  0.36372  0.98882  1.0000
  C   C458      1.0  0.45616  0.39080  0.82054  1.0000
  H   H801      1.0  0.28821  0.33792  0.98900  1.0000
  H   H802      1.0  0.46810  0.47990  0.87384  1.0000
  H   H803      1.0  0.49889  0.17749  0.89876  1.0000
  H   H804      1.0  0.48363  0.21379  0.87657  1.0000
  Fe  Fe67      1.0  0.26864  0.26764  0.99508  1.0000
  C   C459      1.0  0.43446  0.15486  0.86660  1.0000
  H   H805      1.0  0.28953  0.13154  0.95109  1.0000
  H   H806      1.0  0.09217  0.30797  0.96667  1.0000
  C   C460      1.0  0.40862  0.14435  0.85754  1.0000
  H   H807      1.0  0.31600  0.09374  0.98922  1.0000
  H   H808      1.0  0.28467  0.17068  0.94123  1.0000
  C   C461      1.0  0.39799  0.11430  0.85570  1.0000
  H   H809      1.0  0.42872  0.15005  0.87801  1.0000
  H   H810      1.0  0.44584  0.14268  0.86404  1.0000
  H   H811      1.0  0.29936  0.12885  0.98419  1.0000
  C   C462      1.0  0.43404  0.22716  0.76970  1.0000
  H   H812      1.0  0.39688  0.14652  0.95848  1.0000
  C   C463      1.0  0.42255  0.41311  0.76066  1.0000
  H   H813      1.0  0.39340  0.14933  0.86306  1.0000
  H   H814      1.0  0.41145  0.15337  0.84673  1.0000
  H   H815      1.0  0.46410  0.03732  0.87892  1.0000
  H   H816      1.0  0.40531  0.14256  0.94016  1.0000
  H   H817      1.0  0.48415  0.15807  0.87456  1.0000
  H   H818      1.0  0.08432  0.28992  0.95040  1.0000
  H   H819      1.0  0.48713  0.40290  0.83628  1.0000
  H   H820      1.0  0.39623  0.10442  0.86628  1.0000
  H   H821      1.0  0.37830  0.10716  0.85044  1.0000
  H   H822      1.0  0.41118  0.10862  0.84879  1.0000
  H   H823      1.0  0.27069  0.14346  0.92886  1.0000
  H   H824      1.0  0.42674  0.24165  0.76579  1.0000
  H   H825      1.0  0.48140  0.41964  0.75540  1.0000
  H   H826      1.0  0.41663  0.23885  0.85802  1.0000
  C   C464      1.0  0.42108  0.20024  0.76582  1.0000
  H   H827      1.0  0.46634  0.35384  0.86701  1.0000
  H   H828      1.0  0.31061  0.05737  0.90253  1.0000
  H   H829      1.0  0.31334  0.17256  0.97760  1.0000
  H   H830      1.0  0.48123  0.16244  0.84866  1.0000
  C   C465      1.0  0.23672  0.12039  0.99839  1.0000
  H   H831      1.0  0.50171  0.48376  0.87066  1.0000
  H   H832      1.0  0.47420  0.26808  0.83521  1.0000
  H   H833      1.0  0.32123  0.15646  0.94704  1.0000
  S   S129      1.0  0.48475  0.34047  0.76766  1.0000
  H   H834      1.0  0.49331  0.06248  0.89870  1.0000
  H   H835      1.0  0.44871  0.19635  0.84314  1.0000
  H   H836      1.0  0.33947  0.05540  0.91098  1.0000
  H   H837      1.0  0.48791  0.16568  0.82255  1.0000
  N   N24       1.0  0.32087  0.17990  0.00044  1.0000
  C   C466      1.0  0.32519  0.02552  0.94859  1.0000
  C   C467      1.0  0.42718  0.24260  0.86851  1.0000
  C   C468      1.0  0.32087  0.08413  0.92910  1.0000
  H   H838      1.0  0.41079  0.32632  0.98392  1.0000
  S   S130      1.0  0.47355  0.26863  0.78403  1.0000
  H   H839      1.0  0.42830  0.39604  0.75911  1.0000
  S   S131      1.0  0.43582  0.08901  0.75355  1.0000
  C   C469      1.0  0.44909  0.00707  0.85375  1.0000
  Fe  Fe68      1.0  0.44519  0.34280  0.76346  1.0000
  C   C470      1.0  0.35061  0.12457  0.94214  1.0000
  H   H840      1.0  0.35628  0.10427  0.91621  1.0000
  N   N25       1.0  0.32247  0.10621  0.93920  1.0000
  H   H841      1.0  0.03761  0.23553  0.95456  1.0000
  S   S132      1.0  0.49499  0.40813  0.90716  1.0000
  C   C471      1.0  0.40485  0.40713  0.77373  1.0000
  C   C472      1.0  0.33164  0.06865  0.90528  1.0000
  N   N26       1.0  0.45090  0.18406  0.86512  1.0000
  C   C473      1.0  0.31008  0.09419  0.95319  1.0000
  H   H842      1.0  0.07973  0.33799  0.97936  1.0000
  N   N27       1.0  0.40273  0.22613  0.81267  1.0000
  C   C474      1.0  0.39781  0.24174  0.80041  1.0000
  C   C475      1.0  0.43082  0.23970  0.81787  1.0000
  C   C476      1.0  0.39957  0.19931  0.80674  1.0000
  C   C477      1.0  0.38386  0.22230  0.82488  1.0000
  C   C478      1.0  0.37413  0.24499  0.82770  1.0000
  C   C479      1.0  0.37147  0.22762  0.79208  1.0000
  C   C480      1.0  0.40757  0.18124  0.81693  1.0000
  C   C481      1.0  0.43892  0.26784  0.82423  1.0000
  C   C482      1.0  0.46843  0.28026  0.82742  1.0000
  C   C483      1.0  0.36073  0.24192  0.84220  1.0000
  C   C484      1.0  0.36462  0.24670  0.78251  1.0000
  C   C485      1.0  0.39913  0.15322  0.81078  1.0000
  H   H843      1.0  0.41382  0.24660  0.79245  1.0000
  H   H844      1.0  0.39871  0.26136  0.80402  1.0000
  H   H845      1.0  0.43528  0.22822  0.82658  1.0000
  H   H846      1.0  0.44442  0.24059  0.80897  1.0000
  H   H847      1.0  0.41120  0.20168  0.79679  1.0000
  H   H848      1.0  0.37878  0.18775  0.80349  1.0000
  H   H849      1.0  0.36574  0.20415  0.82312  1.0000
  H   H850      1.0  0.39266  0.21857  0.83504  1.0000
  H   H851      1.0  0.35965  0.24488  0.81930  1.0000
  H   H852      1.0  0.39012  0.26481  0.82755  1.0000
  H   H853      1.0  0.37290  0.21194  0.78497  1.0000
  H   H854      1.0  0.35502  0.21816  0.79952  1.0000
  H   H855      1.0  0.39863  0.17998  0.82762  1.0000
  H   H856      1.0  0.42923  0.18899  0.81819  1.0000
  H   H857      1.0  0.43418  0.28109  0.81676  1.0000
  H   H858      1.0  0.42894  0.26699  0.83457  1.0000
  C   C486      1.0  0.28935  0.15724  0.93388  1.0000
  H   H859      1.0  0.48470  0.44255  0.85584  1.0000
  C   C487      1.0  0.04841  0.33840  0.99259  1.0000
  H   H860      1.0  0.34406  0.22242  0.84288  1.0000
  H   H861      1.0  0.37496  0.24395  0.85111  1.0000
  H   H862      1.0  0.35304  0.25774  0.84353  1.0000
  H   H863      1.0  0.37919  0.25410  0.77384  1.0000
  H   H864      1.0  0.34499  0.23620  0.77744  1.0000
  H   H865      1.0  0.36413  0.26368  0.78886  1.0000
  H   H866      1.0  0.40594  0.14100  0.81802  1.0000
  H   H867      1.0  0.37742  0.14366  0.80970  1.0000
  H   H868      1.0  0.40792  0.15367  0.80007  1.0000
  H   H869      1.0  0.38777  0.38814  0.77195  1.0000
  H   H870      1.0  0.49034  0.02959  0.85097  1.0000
  H   H871      1.0  0.27781  0.05685  0.94722  1.0000
  H   H872      1.0  0.26825  0.08841  0.97233  1.0000
  H   H873      1.0  0.30001  0.07161  0.92647  1.0000
  H   H874      1.0  0.32869  0.07052  0.93438  1.0000
  H   H875      1.0  0.32002  0.13381  0.92323  1.0000
  C   C488      1.0  0.26849  0.07017  0.96727  1.0000
  H   H876      1.0  0.33617  0.35942  0.98274  1.0000
  C   C489      1.0  0.49307  0.17987  0.87565  1.0000
  H   H877      1.0  0.37083  0.09709  0.93943  1.0000
  C   C490      1.0  0.30645  0.18119  0.98671  1.0000
  H   H878      1.0  0.06221  0.27348  0.98005  1.0000
  S   S133      1.0  0.22898  0.23449  0.99246  1.0000
  H   H879      1.0  0.06347  0.22883  0.98294  1.0000
  H   H880      1.0  0.41774  0.19431  0.85969  1.0000
  H   H881      1.0  0.48049  0.20988  0.85097  1.0000
  H   H882      1.0  0.40294  0.20404  0.99392  1.0000
  H   H883      1.0  0.49301  0.44056  0.88237  1.0000
  Fe  Fe69      1.0  0.48638  0.36431  0.78750  1.0000
  H   H884      1.0  0.35948  0.13630  0.93242  1.0000
  H   H885      1.0  0.31984  0.08153  0.95775  1.0000
  H   H886      1.0  0.27968  0.06175  0.97428  1.0000
  H   H887      1.0  0.28945  0.10873  0.92730  1.0000
  C   C491      1.0  0.28042  0.07605  0.95234  1.0000
  H   H888      1.0  0.27881  0.19492  0.96523  1.0000
  C   C492      1.0  0.30840  0.12204  0.93231  1.0000
  C   C493      1.0  0.36930  0.11131  0.94748  1.0000
  H   H889      1.0  0.45828  0.23569  0.87925  1.0000
  C   C494      1.0  0.39698  0.13196  0.95022  1.0000
  C   C495      1.0  0.33495  0.09277  0.91458  1.0000
  H   H890      1.0  0.36249  0.10070  0.95769  1.0000
  N   N28       1.0  0.05064  0.29093  0.96157  1.0000
  Fe  Fe70      1.0  0.41831  0.05593  0.76923  1.0000
  H   H891      1.0  0.45976  0.43673  0.88578  1.0000
  H   H892      1.0  0.41746  0.35940  0.97752  1.0000
  H   H893      1.0  0.41565  0.40516  0.78352  1.0000
  C   C496      1.0  0.30278  0.14190  0.94227  1.0000
  H   H894      1.0  0.32669  0.10513  0.90843  1.0000
  H   H895      1.0  0.00743  0.30352  0.94830  1.0000
  H   H896      1.0  0.26883  0.08495  0.94603  1.0000
  H   H897      1.0  0.47279  0.18933  0.82116  1.0000
  C   C497      1.0  0.04857  0.22175  0.97413  1.0000
  H   H898      1.0  0.40985  0.12196  0.95414  1.0000
  H   H899      1.0  0.30244  0.16937  0.92539  1.0000
  H   H900      1.0  0.31324  0.10988  0.96141  1.0000
  H   H901      1.0  0.49072  0.08461  0.87781  1.0000
  H   H902      1.0  0.44866  0.39263  0.88413  1.0000
  H   H903      1.0  0.07210  0.25021  0.95911  1.0000
  C   C498      1.0  0.41949  0.34764  0.98684  1.0000
  H   H904      1.0  0.35148  0.13952  0.95041  1.0000
  C   C499      1.0  0.47616  0.44463  0.87813  1.0000
  H   H905      1.0  0.32933  0.03939  0.98426  1.0000
  C   C500      1.0  0.44913  0.39328  0.84729  1.0000
  C   C501      1.0  0.44015  0.38817  0.87305  1.0000
  H   H906      1.0  0.46306  0.18738  0.88734  1.0000
  C   C502      1.0  0.41434  0.39315  0.87240  1.0000
  C   C503      1.0  0.39745  0.38181  0.88550  1.0000
  H   H907      1.0  0.43688  0.39202  0.81824  1.0000
  C   C504      1.0  0.29946  0.20925  0.96652  1.0000
  H   H908      1.0  0.43184  0.39842  0.84512  1.0000
  H   H909      1.0  0.44119  0.37134  0.84666  1.0000
  H   H910      1.0  0.02111  0.28590  0.91929  1.0000
  H   H911      1.0  0.02971  0.32451  0.99720  1.0000
  H   H912      1.0  0.41813  0.41450  0.87208  1.0000
  H   H913      1.0  0.40256  0.38338  0.86273  1.0000
  H   H914      1.0  0.37885  0.38501  0.88453  1.0000
  H   H915      1.0  0.39246  0.36022  0.88631  1.0000
  H   H916      1.0  0.40792  0.39174  0.89547  1.0000
  H   H917      1.0  0.04197  0.27297  0.94037  1.0000
  H   H918      1.0  0.41276  0.23497  0.87725  1.0000
  C   C505      1.0  0.48472  0.39702  0.86497  1.0000
  C   C506      1.0  0.04240  0.30937  0.97048  1.0000
  H   H919      1.0  0.49329  0.47218  0.77734  1.0000
  H   H920      1.0  0.41847  0.01106  0.98499  1.0000
  C   C507      1.0  0.43337  0.19885  0.86811  1.0000
  C   C508      1.0  0.48455  0.47466  0.87773  1.0000
  H   H921      1.0  0.42286  0.19202  0.87840  1.0000
  H   H922      1.0  0.32970  0.22369  0.98275  1.0000
  H   H923      1.0  0.30025  0.22929  0.96381  1.0000
  C   C509      1.0  0.30907  0.20925  0.98197  1.0000
  H   H924      1.0  0.49029  0.48292  0.88873  1.0000
  C   C510      1.0  0.48424  0.18158  0.82839  1.0000
  C   C511      1.0  0.31385  0.10626  0.99809  1.0000
  H   H925      1.0  0.24795  0.05544  0.96639  1.0000
  C   C512      1.0  0.48035  0.03375  0.87352  1.0000
  H   H926      1.0  0.44442  0.00648  0.84209  1.0000
  H   H927      1.0  0.48307  0.22213  0.79030  1.0000
  H   H928      1.0  0.06514  0.30942  0.99039  1.0000
  C   C513      1.0  0.47217  0.19207  0.87659  1.0000
  C   C514      1.0  0.31555  0.13291  0.99220  1.0000
  H   H929      1.0  0.05112  0.20497  0.96861  1.0000
  H   H930      1.0  0.31084  0.01603  0.94021  1.0000
  C   C515      1.0  0.48268  0.36873  0.86120  1.0000
  H   H931      1.0  0.04450  0.35358  0.98617  1.0000
  H   H932      1.0  0.35636  0.21547  0.99996  1.0000
  C   C516      1.0  0.46914  0.17026  0.84207  1.0000
  H   H933      1.0  0.23556  0.08070  0.99521  1.0000
  H   H934      1.0  0.44072  0.35315  0.98917  1.0000
  C   C517      1.0  0.44743  0.43884  0.76292  1.0000
  C   C518      1.0  0.32942  0.36255  0.99351  1.0000
  C   C519      1.0  0.37702  0.34815  0.99664  1.0000
  H   H935      1.0  0.47890  0.48941  0.75664  1.0000
  C   C520      1.0  0.00732  0.28829  0.92719  1.0000
  H   H936      1.0  0.36539  0.00933  0.99015  1.0000
  H   H937      1.0  0.48043  0.01598  0.90150  1.0000
  H   H938      1.0  0.01441  0.26345  0.95181  1.0000
  H   H939      1.0  0.33444  0.14234  0.98657  1.0000
  H   H940      1.0  0.47874  0.01376  0.87696  1.0000
  S   S134      1.0  0.28258  0.01100  0.96630  1.0000
  H   H941      1.0  0.34051  0.38339  0.99678  1.0000
  H   H942      1.0  0.50189  0.41127  0.85929  1.0000
  C   C521      1.0  0.40607  0.35283  0.00003  1.0000
  C   C522      1.0  0.50393  0.47280  0.76724  1.0000
  H   H943      1.0  0.50345  0.19769  0.83103  1.0000
  C   C523      1.0  0.50198  0.02762  0.90148  1.0000
  H   H944      1.0  0.39410  0.00640  0.97094  1.0000
  H   H945      1.0  0.50300  0.04238  0.92330  1.0000
  H   H946      1.0  0.41068  0.41434  0.75120  1.0000
  H   H947      1.0  0.10643  0.96327  0.01990  1.0000
  H   H948      1.0  0.36149  0.58385  0.06989  1.0000
  C   C524      1.0  0.40663  0.52461  0.20362  1.0000
  S   S135      1.0  0.22021  0.98283  0.02304  1.0000
  Fe  Fe71      1.0  0.25635  0.97522  0.01754  1.0000
  S   S136      1.0  0.27418  0.94827  0.02843  1.0000
  Fe  Fe72      1.0  0.09226  0.66123  0.11908  1.0000
  S   S137      1.0  0.13558  0.67300  0.12083  1.0000
  S   S138      1.0  0.07061  0.64578  0.13970  1.0000
  Fe  Fe73      1.0  0.09377  0.66856  0.08628  1.0000
  S   S139      1.0  0.13759  0.67973  0.08609  1.0000
  S   S140      1.0  0.07628  0.66830  0.06389  1.0000
  Fe  Fe74      1.0  0.13030  0.64622  0.10171  1.0000
  S   S141      1.0  0.15124  0.61762  0.10277  1.0000
  Fe  Fe75      1.0  0.13815  0.70485  0.10516  1.0000
  S   S142      1.0  0.16336  0.74811  0.10897  1.0000
  S   S143      1.0  0.08661  0.63307  0.10050  1.0000
  S   S144      1.0  0.09476  0.69529  0.10481  1.0000
  Fe  Fe76      1.0  0.11584  0.67852  0.21889  1.0000
  H   H949      1.0  0.18770  0.66975  0.12033  1.0000
  S   S145      1.0  0.11455  0.70273  0.19944  1.0000
  H   H950      1.0  0.23063  0.72457  0.12639  1.0000
  H   H951      1.0  0.03617  0.70804  0.02851  1.0000
  H   H952      1.0  0.13868  0.64037  0.14851  1.0000
  H   H953      1.0  0.27870  0.77666  0.13883  1.0000
  Fe  Fe77      1.0  0.34270  0.89192  0.22757  1.0000
  S   S146      1.0  0.34295  0.91366  0.20676  1.0000
  S   S147      1.0  0.33044  0.84798  0.22733  1.0000
  H   H954      1.0  0.42844  0.83213  0.10995  1.0000
  Fe  Fe78      1.0  0.30805  0.83894  0.09652  1.0000
  S   S148      1.0  0.29696  0.86475  0.11145  1.0000
  S   S149      1.0  0.28048  0.79949  0.08744  1.0000
  Fe  Fe79      1.0  0.36661  0.87550  0.09749  1.0000
  S   S150      1.0  0.35996  0.90421  0.11269  1.0000
  S   S151      1.0  0.40458  0.87751  0.08735  1.0000
  Fe  Fe80      1.0  0.33281  0.86794  0.12427  1.0000
  S   S152      1.0  0.33082  0.85335  0.14721  1.0000
  Fe  Fe81      1.0  0.32450  0.89859  0.09838  1.0000
  S   S153      1.0  0.31197  0.93209  0.09162  1.0000
  S   S154      1.0  0.34218  0.83985  0.10998  1.0000
  S   S155      1.0  0.33306  0.87231  0.08256  1.0000
  C   C525      1.0  0.47272  0.57381  0.09537  1.0000
  C   C526      1.0  0.45642  0.55148  0.08745  1.0000
  C   C527      1.0  0.43882  0.52885  0.09441  1.0000
  C   C528      1.0  0.43746  0.52835  0.10939  1.0000
  C   C529      1.0  0.45289  0.55110  0.11725  1.0000
  C   C530      1.0  0.47036  0.57377  0.11028  1.0000
  H   H955      1.0  0.45798  0.55140  0.07589  1.0000
  H   H956      1.0  0.27283  0.97350  0.05625  1.0000
  H   H957      1.0  0.09670  0.79714  0.08128  1.0000
  H   H958      1.0  0.18024  0.75962  0.05561  1.0000
  H   H959      1.0  0.15558  0.63343  0.13361  1.0000
  S   S156      1.0  0.13205  0.69921  0.23991  1.0000
  H   H960      1.0  0.21181  0.69149  0.19645  1.0000
  C   C531      1.0  0.48375  0.90204  0.11125  1.0000
  C   C532      1.0  0.46169  0.90252  0.11832  1.0000
  C   C533      1.0  0.43735  0.89529  0.11111  1.0000
  C   C534      1.0  0.43497  0.88769  0.09668  1.0000
  C   C535      1.0  0.45716  0.88761  0.08951  1.0000
  C   C536      1.0  0.48150  0.89473  0.09677  1.0000
  H   H961      1.0  0.46353  0.90845  0.12944  1.0000
  H   H962      1.0  0.42044  0.89568  0.11664  1.0000
  H   H963      1.0  0.45546  0.88195  0.07830  1.0000
  H   H964      1.0  0.12467  0.95735  0.00544  1.0000
  H   H965      1.0  0.05893  0.93548  0.02196  1.0000
  C   C537      1.0  0.14460  0.62515  0.14351  1.0000
  H   H966      1.0  0.03129  0.58034  0.11684  1.0000
  H   H967      1.0  0.17879  0.77431  0.07273  1.0000
  C   C538      1.0  0.33826  0.89664  0.19016  1.0000
  C   C539      1.0  0.33578  0.87031  0.18951  1.0000
  C   C540      1.0  0.33304  0.85737  0.17625  1.0000
  C   C541      1.0  0.33278  0.87058  0.16343  1.0000
  C   C542      1.0  0.33495  0.89686  0.16395  1.0000
  C   C543      1.0  0.33770  0.90985  0.17731  1.0000
  H   H968      1.0  0.33660  0.85999  0.19916  1.0000
  H   H969      1.0  0.33155  0.83710  0.17592  1.0000
  H   H970      1.0  0.33475  0.90722  0.15409  1.0000
  H   H971      1.0  0.33964  0.93025  0.17769  1.0000
  H   H972      1.0  0.15737  0.78736  0.15187  1.0000
  H   H973      1.0  0.11910  0.58851  0.16199  1.0000
  C   C544      1.0  0.05248  0.57129  0.13442  1.0000
  H   H974      1.0  0.14412  0.75855  0.14038  1.0000
  H   H975      1.0  0.17515  0.78486  0.13623  1.0000
  H   H976      1.0  0.27397  0.79864  0.15202  1.0000
  H   H977      1.0  0.20933  0.77336  0.06670  1.0000
  H   H978      1.0  0.27239  0.80499  0.13315  1.0000
  C   C545      1.0  0.19597  0.76175  0.10310  1.0000
  C   C546      1.0  0.21149  0.78815  0.10661  1.0000
  C   C547      1.0  0.23763  0.79972  0.10215  1.0000
  C   C548      1.0  0.24830  0.78505  0.09397  1.0000
  C   C549      1.0  0.23279  0.75860  0.09052  1.0000
  C   C550      1.0  0.20668  0.74691  0.09511  1.0000
  H   H979      1.0  0.20329  0.79970  0.11282  1.0000
  H   H980      1.0  0.24941  0.82004  0.10489  1.0000
  H   H981      1.0  0.24093  0.74716  0.08417  1.0000
  H   H982      1.0  0.19482  0.72652  0.09235  1.0000
  C   C551      1.0  0.08524  0.66122  0.15606  1.0000
  C   C552      1.0  0.07926  0.64661  0.16882  1.0000
  C   C553      1.0  0.08913  0.65887  0.18214  1.0000
  C   C554      1.0  0.10428  0.68607  0.18281  1.0000
  C   C555      1.0  0.11051  0.70060  0.17003  1.0000
  C   C556      1.0  0.10147  0.68815  0.15667  1.0000
  H   H983      1.0  0.06657  0.62585  0.16845  1.0000
  H   H984      1.0  0.08411  0.64752  0.19193  1.0000
  H   H985      1.0  0.12176  0.72168  0.17052  1.0000
  H   H986      1.0  0.10591  0.69964  0.14691  1.0000
  C   C557      1.0  0.13406  0.58268  0.10267  1.0000
  C   C558      1.0  0.14760  0.56632  0.10608  1.0000
  C   C559      1.0  0.13453  0.53851  0.10607  1.0000
  C   C560      1.0  0.10771  0.52678  0.10266  1.0000
  C   C561      1.0  0.09418  0.54314  0.09927  1.0000
  C   C562      1.0  0.10729  0.57091  0.09924  1.0000
  H   H987      1.0  0.16835  0.57521  0.10868  1.0000
  H   H988      1.0  0.14521  0.52619  0.10869  1.0000
  H   H989      1.0  0.07348  0.53431  0.09655  1.0000
  H   H990      1.0  0.09682  0.58323  0.09628  1.0000
  C   C563      1.0  0.28484  0.94482  0.04612  1.0000
  C   C564      1.0  0.29653  0.92645  0.04841  1.0000
  C   C565      1.0  0.30488  0.92234  0.06224  1.0000
  C   C566      1.0  0.30179  0.93671  0.07397  1.0000
  C   C567      1.0  0.29027  0.95525  0.07167  1.0000
  C   C568      1.0  0.28177  0.95927  0.05783  1.0000
  H   H991      1.0  0.29904  0.91518  0.03943  1.0000
  H   H992      1.0  0.31389  0.90819  0.06381  1.0000
  H   H993      1.0  0.42561  0.95279  0.24415  1.0000
  C   C569      1.0  0.12009  0.51262  0.14648  1.0000
  C   C570      1.0  0.02204  0.70995  0.04966  1.0000
  C   C571      1.0  0.03733  0.70350  0.03971  1.0000
  C   C572      1.0  0.05396  0.69090  0.04426  1.0000
  C   C573      1.0  0.05605  0.68532  0.05884  1.0000
  C   C574      1.0  0.04126  0.69239  0.06885  1.0000
  C   C575      1.0  0.02404  0.70428  0.06424  1.0000
  H   H994      1.0  0.22158  0.67687  0.12512  1.0000
  H   H995      1.0  0.06541  0.68559  0.03646  1.0000
  H   H996      1.0  0.04252  0.68798  0.08009  1.0000
  H   H997      1.0  0.02385  0.83196  0.04939  1.0000
  H   H998      1.0  0.21336  0.68891  0.10852  1.0000
  H   H999      1.0  0.45156  0.55103  0.12881  1.0000
  H   H1000     1.0  0.20781  0.72253  0.19637  1.0000
  H   H1001     1.0  0.15788  0.62024  0.15096  1.0000
  N   N29       1.0  0.37888  0.56210  0.09339  1.0000
  H   H1002     1.0  0.18308  0.57778  0.22433  1.0000
  C   C576      1.0  0.40552  0.58392  0.09632  1.0000
  C   C577      1.0  0.37307  0.54275  0.10570  1.0000
  H   H1003     1.0  0.01345  0.78232  0.05608  1.0000
  H   H1004     1.0  0.31677  0.99079  0.01777  1.0000
  C   C578      1.0  0.42503  0.85312  0.24465  1.0000
  C   C579      1.0  0.37572  0.55487  0.12103  1.0000
  H   H1005     1.0  0.41222  0.95398  0.13407  1.0000
  H   H1006     1.0  0.38364  0.94256  0.03197  1.0000
  C   C580      1.0  0.10599  0.81525  0.05314  1.0000
  H   H1007     1.0  0.36201  0.56497  0.12246  1.0000
  C   C581      1.0  0.36926  0.53344  0.13244  1.0000
  H   H1008     1.0  0.41873  0.57577  0.10189  1.0000
  H   H1009     1.0  0.33788  0.55638  0.09276  1.0000
  H   H1010     1.0  0.40357  0.59880  0.10387  1.0000
  C   C582      1.0  0.10492  0.95595  0.00868  1.0000
  C   C583      1.0  0.18156  0.55903  0.21906  1.0000
  H   H1011     1.0  0.05150  0.93587  0.00333  1.0000
  C   C584      1.0  0.33561  0.00100  0.01214  1.0000
  H   H1012     1.0  0.46368  0.51686  0.19563  1.0000
  H   H1013     1.0  0.18530  0.74174  0.24065  1.0000
  H   H1014     1.0  0.25167  0.89237  0.21420  1.0000
  C   C585      1.0  0.44421  0.94949  0.24467  1.0000
  H   H1015     1.0  0.01225  0.70917  0.07202  1.0000
  H   H1016     1.0  0.49118  0.59707  0.15381  1.0000
  H   H1017     1.0  0.35277  0.52749  0.10479  1.0000
  H   H1018     1.0  0.04114  0.54355  0.23455  1.0000
  H   H1019     1.0  0.40890  0.52656  0.21551  1.0000
  H   H1020     1.0  0.49068  0.60280  0.21372  1.0000
  C   C586      1.0  0.46654  0.76560  0.09164  1.0000
  C   C587      1.0  0.11459  0.53760  0.14401  1.0000
  C   C588      1.0  0.35290  0.96804  0.01947  1.0000
  H   H1021     1.0  0.49689  0.79617  0.10422  1.0000
  H   H1022     1.0  0.24213  0.86014  0.17977  1.0000
  N   N30       1.0  0.20974  0.50517  0.22828  1.0000
  H   H1023     1.0  0.05155  0.58720  0.22307  1.0000
  S   S157      1.0  0.49589  0.60111  0.08626  1.0000
  H   H1024     1.0  0.28786  0.96655  0.08067  1.0000
  H   H1025     1.0  0.09146  0.57595  0.18124  1.0000
  H   H1026     1.0  0.19679  0.71799  0.12146  1.0000
  C   C589      1.0  0.43565  0.79790  0.10129  1.0000
  H   H1027     1.0  0.20367  0.87254  0.01986  1.0000
  H   H1028     1.0  0.43044  0.58632  0.07787  1.0000
  C   C590      1.0  0.42227  0.81812  0.10074  1.0000
  C   C591      1.0  0.39242  0.80412  0.10110  1.0000
  H   H1029     1.0  0.45825  0.52576  0.21323  1.0000
  H   H1030     1.0  0.09387  0.81967  0.04464  1.0000
  H   H1031     1.0  0.13355  0.55477  0.14537  1.0000
  H   H1032     1.0  0.42763  0.78440  0.09193  1.0000
  H   H1033     1.0  0.42850  0.78510  0.11086  1.0000
  H   H1034     1.0  0.44407  0.84047  0.22788  1.0000
  H   H1035     1.0  0.09398  0.75169  0.01236  1.0000
  H   H1036     1.0  0.48879  0.86206  0.23877  1.0000
  C   C592      1.0  0.35877  0.59186  0.08039  1.0000
  H   H1037     1.0  0.30417  0.86278  0.05302  1.0000
  H   H1038     1.0  0.20437  0.68611  0.17061  1.0000
  H   H1039     1.0  0.38350  0.81912  0.10063  1.0000
  H   H1040     1.0  0.38500  0.79067  0.09169  1.0000
  H   H1041     1.0  0.38614  0.79264  0.11114  1.0000
  H   H1042     1.0  0.45610  0.62080  0.09664  1.0000
  C   C593      1.0  0.23844  0.52289  0.22687  1.0000
  C   C594      1.0  0.21029  0.82603  0.06661  1.0000
  H   H1043     1.0  0.09578  0.73191  0.02748  1.0000
  N   N31       1.0  0.41622  0.89915  0.16402  1.0000
  C   C595      1.0  0.40402  0.86982  0.16079  1.0000
  C   C596      1.0  0.40882  0.90388  0.17901  1.0000
  C   C597      1.0  0.40414  0.91259  0.15363  1.0000
  C   C598      1.0  0.44573  0.91107  0.16233  1.0000
  C   C599      1.0  0.46697  0.58089  0.24312  1.0000
  C   C600      1.0  0.40468  0.86196  0.14483  1.0000
  C   C601      1.0  0.41021  0.94224  0.15657  1.0000
  C   C602      1.0  0.41807  0.89070  0.19146  1.0000
  C   C603      1.0  0.40687  0.89473  0.20578  1.0000
  H   H1044     1.0  0.06054  0.61293  0.02236  1.0000
  C   C604      1.0  0.39794  0.83233  0.14313  1.0000
  H   H1045     1.0  0.38296  0.86160  0.16388  1.0000
  H   H1046     1.0  0.41311  0.85878  0.16741  1.0000
  H   H1047     1.0  0.41707  0.92535  0.18169  1.0000
  H   H1048     1.0  0.38714  0.89738  0.17963  1.0000
  H   H1049     1.0  0.38243  0.90212  0.15325  1.0000
  H   H1050     1.0  0.41064  0.91130  0.14249  1.0000
  H   H1051     1.0  0.45102  0.91873  0.15127  1.0000
  H   H1052     1.0  0.01404  0.76323  0.07178  1.0000
  H   H1053     1.0  0.45543  0.87674  0.15707  1.0000
  H   H1054     1.0  0.02432  0.59082  0.23207  1.0000
  H   H1055     1.0  0.38996  0.86666  0.13840  1.0000
  H   H1056     1.0  0.42423  0.87284  0.14018  1.0000
  H   H1057     1.0  0.39350  0.53728  0.08121  1.0000
  H   H1058     1.0  0.39935  0.94443  0.16610  1.0000
  H   H1059     1.0  0.41175  0.86908  0.18982  1.0000
  H   H1060     1.0  0.43975  0.89994  0.19261  1.0000
  H   H1061     1.0  0.38514  0.88483  0.20562  1.0000
  H   H1062     1.0  0.41454  0.88596  0.21460  1.0000
  H   H1063     1.0  0.41254  0.91613  0.20814  1.0000
  H   H1064     1.0  0.04599  0.53859  0.16186  1.0000
  H   H1065     1.0  0.41278  0.82661  0.14876  1.0000
  H   H1066     1.0  0.37815  0.82085  0.14747  1.0000
  H   H1067     1.0  0.39772  0.82743  0.13156  1.0000
  H   H1068     1.0  0.18020  0.69213  0.19209  1.0000
  N   N32       1.0  0.20267  0.72951  0.15184  1.0000
  C   C605      1.0  0.18293  0.73910  0.14520  1.0000
  C   C606      1.0  0.20247  0.70587  0.14339  1.0000
  C   C607      1.0  0.19343  0.72009  0.16680  1.0000
  C   C608      1.0  0.23010  0.75090  0.15278  1.0000
  C   C609      1.0  0.23803  0.77256  0.14095  1.0000
  C   C610      1.0  0.17690  0.75996  0.15412  1.0000
  C   C611      1.0  0.20907  0.70625  0.17508  1.0000
  C   C612      1.0  0.20997  0.71052  0.12739  1.0000
  C   C613      1.0  0.20801  0.68491  0.11997  1.0000
  C   C614      1.0  0.26755  0.78914  0.14134  1.0000
  C   C615      1.0  0.16252  0.77349  0.14507  1.0000
  C   C616      1.0  0.20173  0.70296  0.19094  1.0000
  H   H1069     1.0  0.16383  0.72214  0.14319  1.0000
  H   H1070     1.0  0.18922  0.74750  0.13447  1.0000
  H   H1071     1.0  0.21650  0.69803  0.14819  1.0000
  H   H1072     1.0  0.18267  0.68948  0.14388  1.0000
  H   H1073     1.0  0.17238  0.70610  0.16650  1.0000
  H   H1074     1.0  0.19425  0.73701  0.17364  1.0000
  H   H1075     1.0  0.23325  0.76189  0.16316  1.0000
  H   H1076     1.0  0.24493  0.74175  0.15292  1.0000
  H   H1077     1.0  0.22791  0.78630  0.14253  1.0000
  H   H1078     1.0  0.23283  0.76422  0.13001  1.0000
  H   H1079     1.0  0.16401  0.75018  0.16319  1.0000
  H   H1080     1.0  0.19505  0.77534  0.15868  1.0000
  H   H1081     1.0  0.23054  0.71772  0.17442  1.0000
  C   C617      1.0  0.19603  0.54563  0.22819  1.0000
  H   H1082     1.0  0.06000  0.89670  0.03203  1.0000
  C   C618      1.0  0.12038  0.60039  0.13971  1.0000
  H   H1083     1.0  0.09637  0.60258  0.15698  1.0000
  C   C619      1.0  0.10475  0.58809  0.15339  1.0000
  H   H1084     1.0  0.12704  0.58659  0.13394  1.0000
  H   H1085     1.0  0.05557  0.57359  0.16228  1.0000
  H   H1086     1.0  0.10802  0.60632  0.13209  1.0000
  H   H1087     1.0  0.06337  0.59246  0.13704  1.0000
  H   H1088     1.0  0.24366  0.89373  0.06659  1.0000
  C   C620      1.0  0.19116  0.77590  0.06322  1.0000
  H   H1089     1.0  0.22234  0.82039  0.07454  1.0000
  C   C621      1.0  0.07269  0.55880  0.17926  1.0000
  H   H1090     1.0  0.04992  0.83730  0.03690  1.0000
  H   H1091     1.0  0.03439  0.56380  0.14091  1.0000
  H   H1092     1.0  0.39603  0.51607  0.15691  1.0000
  H   H1093     1.0  0.27902  0.87299  0.16301  1.0000
  C   C622      1.0  0.03196  0.57634  0.22773  1.0000
  H   H1094     1.0  0.35959  0.90934  0.02953  1.0000
  C   C623      1.0  0.02129  0.78350  0.06721  1.0000
  C   C624      1.0  0.06325  0.55764  0.16339  1.0000
  H   H1095     1.0  0.44788  0.56428  0.21267  1.0000
  C   C625      1.0  0.22008  0.73355  0.24353  1.0000
  H   H1096     1.0  0.23022  0.84716  0.20254  1.0000
  H   H1097     1.0  0.47728  0.60218  0.24310  1.0000
  N   N33       1.0  0.08355  0.56058  0.15208  1.0000
  C   C626      1.0  0.04377  0.56886  0.11868  1.0000
  H   H1098     1.0  0.06106  0.57706  0.11167  1.0000
  H   H1099     1.0  0.25301  0.81553  0.05954  1.0000
  H   H1100     1.0  0.24682  0.84613  0.04169  1.0000
  H   H1101     1.0  0.21194  0.80378  0.04707  1.0000
  S   S158      1.0  0.14511  0.65977  0.21718  1.0000
  C   C627      1.0  0.19819  0.80262  0.05586  1.0000
  H   H1102     1.0  0.08380  0.55910  0.12874  1.0000
  Fe  Fe82      1.0  0.36461  0.85585  0.24247  1.0000
  H   H1103     1.0  0.47902  0.73905  0.10452  1.0000
  H   H1104     1.0  0.26975  0.84238  0.07162  1.0000
  C   C628      1.0  0.46081  0.89277  0.16521  1.0000
  C   C629      1.0  0.21982  0.77775  0.24327  1.0000
  C   C630      1.0  0.06969  0.55529  0.13762  1.0000
  H   H1105     1.0  0.26046  0.81418  0.17545  1.0000
  C   C631      1.0  0.05739  0.92460  0.01164  1.0000
  H   H1106     1.0  0.21146  0.90692  0.02385  1.0000
  H   H1107     1.0  0.18284  0.88195  0.03160  1.0000
  H   H1108     1.0  0.30086  0.82990  0.05803  1.0000
  H   H1109     1.0  0.05776  0.79679  0.07876  1.0000
  H   H1110     1.0  0.13515  0.51216  0.13884  1.0000
  H   H1111     1.0  0.12301  0.76263  0.02361  1.0000
  H   H1112     1.0  0.48908  0.56163  0.20184  1.0000
  C   C632      1.0  0.29085  0.84154  0.05260  1.0000
  C   C633      1.0  0.38991  0.54035  0.19875  1.0000
  H   H1113     1.0  0.25857  0.89100  0.10568  1.0000
  H   H1114     1.0  0.03235  0.54785  0.11571  1.0000
  C   C634      1.0  0.35761  0.57291  0.09288  1.0000
  H   H1115     1.0  0.07804  0.51981  0.15542  1.0000
  C   C635      1.0  0.26515  0.83706  0.06018  1.0000
  C   C636      1.0  0.04705  0.88241  0.02393  1.0000
  H   H1116     1.0  0.33971  0.96713  0.02861  1.0000
  C   C637      1.0  0.08542  0.92720  0.00751  1.0000
  H   H1117     1.0  0.48064  0.57263  0.18500  1.0000
  H   H1118     1.0  0.28701  0.83496  0.04123  1.0000
  H   H1119     1.0  0.19758  0.52238  0.21000  1.0000
  H   H1120     1.0  0.36344  0.52828  0.21690  1.0000
  H   H1121     1.0  0.05670  0.53393  0.13652  1.0000
  H   H1122     1.0  0.33507  0.61115  0.07055  1.0000
  C   C638      1.0  0.26776  0.88655  0.21806  1.0000
  H   H1123     1.0  0.49845  0.89453  0.09119  1.0000
  H   H1124     1.0  0.19021  0.56371  0.20823  1.0000
  H   H1125     1.0  0.47398  0.80536  0.13179  1.0000
  H   H1126     1.0  0.29099  0.54387  0.21866  1.0000
  S   S159      1.0  0.31742  0.89210  0.24629  1.0000
  C   C639      1.0  0.24645  0.84131  0.20622  1.0000
  H   H1127     1.0  0.05038  0.58047  0.18803  1.0000
  H   H1128     1.0  0.13011  0.83734  0.07152  1.0000
  H   H1129     1.0  0.05258  0.75836  0.06110  1.0000
  H   H1130     1.0  0.45686  0.63348  0.07878  1.0000
  C   C640      1.0  0.40139  0.95471  0.14392  1.0000
  H   H1131     1.0  0.19386  0.82722  0.07298  1.0000
  C   C641      1.0  0.12393  0.86505  0.05732  1.0000
  H   H1132     1.0  0.10481  0.54291  0.16546  1.0000
  H   H1133     1.0  0.22052  0.90104  0.04894  1.0000
  H   H1134     1.0  0.26819  0.87766  0.08218  1.0000
  H   H1135     1.0  0.50056  0.85243  0.13872  1.0000
  H   H1136     1.0  0.08736  0.76323  0.07751  1.0000
  C   C642      1.0  0.44795  0.51663  0.20304  1.0000
  H   H1137     1.0  0.12627  0.86273  0.02571  1.0000
  H   H1138     1.0  0.43893  0.69544  0.24549  1.0000
  C   C643      1.0  0.09448  0.53963  0.15486  1.0000
  H   H1139     1.0  0.05728  0.81607  0.06307  1.0000
  H   H1140     1.0  0.44526  0.75328  0.09252  1.0000
  H   H1141     1.0  0.34265  0.51171  0.08337  1.0000
  H   H1142     1.0  0.24895  0.76799  0.19465  1.0000
  H   H1143     1.0  0.08807  0.52782  0.22085  1.0000
  C   C644      1.0  0.47511  0.78779  0.10324  1.0000
  H   H1144     1.0  0.15890  0.79297  0.09204  1.0000
  H   H1145     1.0  0.17992  0.80312  0.05098  1.0000
  H   H1146     1.0  0.45466  0.92892  0.16933  1.0000
  C   C645      1.0  0.13149  0.52886  0.24735  1.0000
  H   H1147     1.0  0.42713  0.82971  0.09069  1.0000
  C   C646      1.0  0.05243  0.56125  0.18955  1.0000
  C   C647      1.0  0.12890  0.78597  0.07548  1.0000
  H   H1148     1.0  0.05897  0.56041  0.20079  1.0000
  H   H1149     1.0  0.10837  0.86704  0.05030  1.0000
  Fe  Fe83      1.0  0.15981  0.67866  0.23863  1.0000
  H   H1150     1.0  0.23954  0.85206  0.08953  1.0000
  H   H1151     1.0  0.07549  0.54038  0.18209  1.0000
  C   C648      1.0  0.24719  0.87202  0.08478  1.0000
  H   H1152     1.0  0.46946  0.84119  0.08616  1.0000
  H   H1153     1.0  0.22087  0.78486  0.18568  1.0000
  H   H1154     1.0  0.47023  0.77366  0.08063  1.0000
  H   H1155     1.0  0.01336  0.54639  0.24312  1.0000
  H   H1156     1.0  0.16040  0.54603  0.21797  1.0000
  C   C649      1.0  0.04389  0.61896  0.02441  1.0000
  H   H1157     1.0  0.20658  0.79594  0.21639  1.0000
  H   H1158     1.0  0.01852  0.56480  0.21900  1.0000
  C   C650      1.0  0.37926  0.54704  0.07986  1.0000
  N   N34       1.0  0.34579  0.98092  0.00658  1.0000
  H   H1159     1.0  0.45132  0.53575  0.17613  1.0000
  H   H1160     1.0  0.07232  0.58069  0.24763  1.0000
  C   C651      1.0  0.24579  0.89113  0.09642  1.0000
  C   C652      1.0  0.05129  0.79578  0.06740  1.0000
  C   C653      1.0  0.01188  0.89856  0.01759  1.0000
  H   H1161     1.0  0.43154  0.95349  0.15846  1.0000
  C   C654      1.0  0.25075  0.85330  0.05301  1.0000
  H   H1162     1.0  0.37857  0.76204  0.23710  1.0000
  H   H1163     1.0  0.37311  0.98028  0.02343  1.0000
  H   H1164     1.0  0.48228  0.59113  0.11642  1.0000
  H   H1165     1.0  0.17925  0.74926  0.19565  1.0000
  C   C655      1.0  0.47856  0.79400  0.23637  1.0000
  H   H1166     1.0  0.49842  0.83712  0.11308  1.0000
  C   C656      1.0  0.26592  0.80833  0.20419  1.0000
  H   H1167     1.0  0.40536  0.97574  0.14642  1.0000
  C   C657      1.0  0.13831  0.79145  0.09109  1.0000
  N   N35       1.0  0.22587  0.85249  0.05994  1.0000
  H   H1168     1.0  0.46196  0.81030  0.07776  1.0000
  H   H1169     1.0  0.35226  0.93230  0.04074  1.0000
  H   H1170     1.0  0.28625  0.82352  0.20514  1.0000
  C   C658      1.0  0.22015  0.88530  0.04132  1.0000
  H   H1171     1.0  0.16725  0.77434  0.20074  1.0000
  H   H1172     1.0  0.13764  0.81036  0.09492  1.0000
  H   H1173     1.0  0.24465  0.53757  0.23585  1.0000
  C   C659      1.0  0.17958  0.76346  0.20421  1.0000
  H   H1174     1.0  0.24119  0.83387  0.21733  1.0000
  H   H1175     1.0  0.40962  0.60406  0.07516  1.0000
  C   C660      1.0  0.35076  0.93911  0.01771  1.0000
  H   H1176     1.0  0.36101  0.93648  0.00810  1.0000
  H   H1177     1.0  0.24161  0.53496  0.21694  1.0000
  H   H1178     1.0  0.50076  0.89451  0.16622  1.0000
  C   C661      1.0  0.47875  0.84422  0.13881  1.0000
  H   H1179     1.0  0.25268  0.91166  0.09226  1.0000
  H   H1180     1.0  0.44010  0.57441  0.19566  1.0000
  S   S160      1.0  0.00635  0.78777  0.02311  1.0000
  C   C662      1.0  0.11183  0.51864  0.23682  1.0000
  H   H1181     1.0  0.20762  0.80836  0.19028  1.0000
  H   H1182     1.0  0.39601  0.56924  0.12331  1.0000
  H   H1183     1.0  0.20441  0.84288  0.03964  1.0000
  C   C663      1.0  0.10313  0.53575  0.22908  1.0000
  H   H1184     1.0  0.21300  0.87523  0.07466  1.0000
  H   H1185     1.0  0.47264  0.84799  0.11045  1.0000
  H   H1186     1.0  0.13046  0.76714  0.07216  1.0000
  H   H1187     1.0  0.18930  0.85513  0.05302  1.0000
  H   H1188     1.0  0.26511  0.87407  0.05228  1.0000
  S   S161      1.0  0.37853  0.90000  0.24162  1.0000
  C   C664      1.0  0.23172  0.87402  0.07116  1.0000
  C   C665      1.0  0.10003  0.78335  0.07361  1.0000
  N   N36       1.0  0.03712  0.89668  0.01281  1.0000
  S   S162      1.0  0.03407  0.75222  0.00718  1.0000
  N   N37       1.0  0.46524  0.80960  0.10103  1.0000
  H   H1189     1.0  0.24845  0.86548  0.15346  1.0000
  H   H1190     1.0  0.48324  0.74877  0.24768  1.0000
  H   H1191     1.0  0.22537  0.88515  0.10025  1.0000
  C   C666      1.0  0.20870  0.85764  0.04852  1.0000
  C   C667      1.0  0.46739  0.53699  0.24173  1.0000
  H   H1192     1.0  0.05315  0.86182  0.05058  1.0000
  H   H1193     1.0  0.27731  0.87705  0.19720  1.0000
  H   H1194     1.0  0.11959  0.77341  0.04873  1.0000
  C   C668      1.0  0.06252  0.77947  0.05801  1.0000
  H   H1195     1.0  0.06758  0.75713  0.03202  1.0000
  C   C669      1.0  0.25831  0.50910  0.22624  1.0000
  C   C670      1.0  0.20341  0.88662  0.02838  1.0000
  C   C671      1.0  0.47206  0.86321  0.24411  1.0000
  H   H1196     1.0  0.09284  0.91516  0.01449  1.0000
  C   C672      1.0  0.02629  0.86066  0.03293  1.0000
  H   H1197     1.0  0.47192  0.86019  0.13597  1.0000
  H   H1198     1.0  0.14240  0.80204  0.06876  1.0000
  H   H1199     1.0  0.12592  0.77504  0.09806  1.0000
  H   H1200     1.0  0.24040  0.88999  0.03756  1.0000
  C   C673      1.0  0.11395  0.56304  0.23189  1.0000
  N   N38       1.0  0.09190  0.78731  0.05854  1.0000
  H   H1201     1.0  0.15998  0.90643  0.01871  1.0000
  H   H1202     1.0  0.43981  0.92803  0.24328  1.0000
  H   H1203     1.0  0.38653  0.56037  0.07059  1.0000
  H   H1204     1.0  0.08907  0.74777  0.05307  1.0000
  S   S163      1.0  0.08486  0.64370  0.22965  1.0000
  C   C674      1.0  0.35241  0.52590  0.07480  1.0000
  C   C675      1.0  0.09807  0.76838  0.04886  1.0000
  H   H1205     1.0  0.09756  0.83662  0.07146  1.0000
  H   H1206     1.0  0.49738  0.92402  0.17264  1.0000
  C   C676      1.0  0.40878  0.50481  0.15838  1.0000
  H   H1207     1.0  0.34876  0.51891  0.13094  1.0000
  C   C677      1.0  0.47370  0.82297  0.08675  1.0000
  H   H1208     1.0  0.50094  0.54083  0.11554  1.0000
  H   H1209     1.0  0.38292  0.52306  0.13176  1.0000
  H   H1210     1.0  0.14206  0.59424  0.24463  1.0000
  H   H1211     1.0  0.38757  0.54002  0.18692  1.0000
  H   H1212     1.0  0.47386  0.73075  0.08569  1.0000
  C   C678      1.0  0.19304  0.51856  0.22157  1.0000
  H   H1213     1.0  0.42490  0.78185  0.23111  1.0000
  C   C679      1.0  0.10189  0.85811  0.00687  1.0000
  H   H1214     1.0  0.31642  0.57824  0.07691  1.0000
  H   H1215     1.0  0.37512  0.61128  0.08235  1.0000
  H   H1216     1.0  0.01563  0.64818  0.02015  1.0000
  C   C680      1.0  0.44882  0.56139  0.20085  1.0000
  H   H1217     1.0  0.04071  0.68174  0.00813  1.0000
  C   C681      1.0  0.20633  0.75015  0.24225  1.0000
  H   H1218     1.0  0.25973  0.80305  0.21548  1.0000
  H   H1219     1.0  0.44571  0.81360  0.12899  1.0000
  H   H1220     1.0  0.14153  0.86796  0.05082  1.0000
  H   H1221     1.0  0.17181  0.50526  0.22202  1.0000
  C   C682      1.0  0.47665  0.83005  0.11276  1.0000
  H   H1222     1.0  0.36399  0.52329  0.05274  1.0000
  H   H1223     1.0  0.38623  0.53163  0.10536  1.0000
  C   C683      1.0  0.36230  0.93039  0.03080  1.0000
  H   H1224     1.0  0.47809  0.81409  0.23672  1.0000
  S   S164      1.0  0.07771  0.82741  0.01297  1.0000
  H   H1225     1.0  0.05150  0.63769  0.03073  1.0000
  S   S165      1.0  0.39342  0.83720  0.23704  1.0000
  C   C684      1.0  0.42161  0.59893  0.08327  1.0000
  H   H1226     1.0  0.05555  0.78095  0.04691  1.0000
  C   C685      1.0  0.12403  0.87153  0.01570  1.0000
  H   H1227     1.0  0.01548  0.84106  0.00259  1.0000
  H   H1228     1.0  0.42445  0.54532  0.17618  1.0000
  C   C686      1.0  0.33349  0.59695  0.07933  1.0000
  H   H1229     1.0  0.27378  0.76512  0.21648  1.0000
  Fe  Fe84      1.0  0.11573  0.62641  0.22932  1.0000
  H   H1230     1.0  0.42715  0.51142  0.08823  1.0000
  C   C687      1.0  0.44395  0.62462  0.08801  1.0000
  H   H1231     1.0  0.49791  0.83495  0.06015  1.0000
  C   C688      1.0  0.47833  0.57288  0.19679  1.0000
  S   S166      1.0  0.10271  0.58390  0.22199  1.0000
  H   H1232     1.0  0.47224  0.83741  0.14984  1.0000
  H   H1233     1.0  0.12446  0.81730  0.04765  1.0000
  H   H1234     1.0  0.37125  0.54247  0.14328  1.0000
  C   C689      1.0  0.28411  0.77252  0.20626  1.0000
  H   H1235     1.0  0.50296  0.79312  0.20967  1.0000
  H   H1236     1.0  0.30396  0.78776  0.20872  1.0000
  C   C690      1.0  0.08917  0.76753  0.03294  1.0000
  H   H1237     1.0  0.37997  0.94415  0.14182  1.0000
  N   N39       1.0  0.43334  0.53268  0.19690  1.0000
  C   C691      1.0  0.13342  0.57320  0.24251  1.0000
  H   H1238     1.0  0.47811  0.52428  0.24061  1.0000
  H   H1239     1.0  0.43602  0.63908  0.09202  1.0000
  Fe  Fe85      1.0  0.03757  0.79465  0.00653  1.0000
  S   S167      1.0  0.26286  0.82386  0.24679  1.0000
  C   C692      1.0  0.25982  0.83038  0.18240  1.0000
  C   C693      1.0  0.20766  0.78268  0.20766  1.0000
  H   H1240     1.0  0.28611  0.90463  0.21888  1.0000
  H   H1241     1.0  0.28637  0.75569  0.20063  1.0000
  C   C694      1.0  0.26104  0.77254  0.24633  1.0000
  H   H1242     1.0  0.28065  0.84425  0.18372  1.0000
  C   C695      1.0  0.50315  0.83139  0.08320  1.0000
  C   C696      1.0  0.10129  0.75247  0.02358  1.0000
  C   C697      1.0  0.14336  0.89623  0.01169  1.0000
  H   H1243     1.0  0.05973  0.87331  0.01886  1.0000
  H   H1244     1.0  0.35803  0.58427  0.10282  1.0000
  H   H1245     1.0  0.28846  0.86254  0.21183  1.0000
  H   H1246     1.0  0.22539  0.82971  0.17001  1.0000
  H   H1247     1.0  0.26310  0.87779  0.22893  1.0000
  C   C698      1.0  0.26004  0.85684  0.16003  1.0000
  C   C699      1.0  0.43151  0.53048  0.18074  1.0000
  C   C700      1.0  0.26837  0.78402  0.19681  1.0000
  H   H1248     1.0  0.27883  0.78985  0.18650  1.0000
  H   H1249     1.0  0.32977  0.92550  0.01672  1.0000
  S   S168      1.0  0.20366  0.69869  0.24314  1.0000
  H   H1250     1.0  0.45674  0.96031  0.23568  1.0000
  C   C701      1.0  0.24748  0.74486  0.24553  1.0000
  H   H1251     1.0  0.09480  0.78768  0.02847  1.0000
  H   H1252     1.0  0.17072  0.75191  0.21393  1.0000
  H   H1253     1.0  0.21695  0.55930  0.22905  1.0000
  C   C702      1.0  0.27173  0.86691  0.20766  1.0000
  H   H1254     1.0  0.35125  0.54088  0.20182  1.0000
  H   H1255     1.0  0.03305  0.54477  0.18783  1.0000
  H   H1256     1.0  0.48273  0.61425  0.19676  1.0000
  H   H1257     1.0  0.12948  0.88086  0.06565  1.0000
  H   H1258     1.0  0.20572  0.51941  0.24953  1.0000
  H   H1259     1.0  0.26392  0.84194  0.15339  1.0000
  C   C703      1.0  0.24495  0.84426  0.17352  1.0000
  H   H1260     1.0  0.45648  0.88336  0.17588  1.0000
  N   N40       1.0  0.24827  0.81971  0.19675  1.0000
  H   H1261     1.0  0.33002  0.60551  0.08953  1.0000
  C   C704      1.0  0.49189  0.60157  0.20187  1.0000
  C   C705      1.0  0.11401  0.83794  0.06448  1.0000
  H   H1262     1.0  0.46817  0.77767  0.11361  1.0000
  H   H1263     1.0  0.42716  0.51468  0.15234  1.0000
  H   H1264     1.0  0.18741  0.54302  0.23902  1.0000
  C   C706      1.0  0.24718  0.78907  0.24531  1.0000
  H   H1265     1.0  0.25825  0.73214  0.24655  1.0000
  C   C707      1.0  0.22098  0.79895  0.19431  1.0000
  H   H1266     1.0  0.46613  0.78412  0.22689  1.0000
  H   H1267     1.0  0.02542  0.60370  0.00420  1.0000
  C   C708      1.0  0.46737  0.82110  0.12822  1.0000
  C   C709      1.0  0.44678  0.85111  0.23794  1.0000
  C   C710      1.0  0.28663  0.52919  0.22745  1.0000
  H   H1268     1.0  0.21863  0.77084  0.21172  1.0000
  H   H1269     1.0  0.01507  0.90890  0.02818  1.0000
  H   H1270     1.0  0.12754  0.51228  0.15759  1.0000
  H   H1271     1.0  0.39905  0.56119  0.20254  1.0000
  C   C711      1.0  0.03363  0.55764  0.23950  1.0000
  C   C712      1.0  0.36238  0.52863  0.20499  1.0000
  Fe  Fe86      1.0  0.30699  0.84807  0.24668  1.0000
  H   H1272     1.0  0.20896  0.79043  0.24260  1.0000
  H   H1273     1.0  0.45504  0.74292  0.23689  1.0000
  C   C713      1.0  0.14218  0.55613  0.25022  1.0000
  H   H1274     1.0  0.41697  0.74891  0.23781  1.0000
  C   C714      1.0  0.00830  0.63098  0.01268  1.0000
  H   H1275     1.0  0.02915  0.60334  0.03087  1.0000
  H   H1276     1.0  0.33891  0.53548  0.07136  1.0000
  H   H1277     1.0  0.30025  0.51874  0.22666  1.0000
  C   C715      1.0  0.35572  0.51008  0.06200  1.0000
  C   C716      1.0  0.49049  0.90812  0.16435  1.0000
  C   C717      1.0  0.48090  0.56455  0.24163  1.0000
  C   C718      1.0  0.03921  0.84719  0.04305  1.0000
  H   H1278     1.0  0.50264  0.75844  0.09150  1.0000
  C   C719      1.0  0.03178  0.62275  0.01014  1.0000
  H   H1279     1.0  0.01360  0.79578  0.07374  1.0000
  C   C720      1.0  0.48404  0.51646  0.14146  1.0000
  H   H1280     1.0  0.30677  0.95044  0.00485  1.0000
  H   H1281     1.0  0.10755  0.53668  0.13279  1.0000
  H   H1282     1.0  0.49589  0.91701  0.15355  1.0000
  C   C721      1.0  0.41969  0.76936  0.24087  1.0000
  C   C722      1.0  0.48142  0.74739  0.09352  1.0000
  H   H1283     1.0  0.29018  0.53963  0.23797  1.0000
  H   H1284     1.0  0.47639  0.51071  0.13036  1.0000
  H   H1285     1.0  0.01188  0.93434  0.00676  1.0000
  H   H1286     1.0  0.01549  0.86950  0.03979  1.0000
  S   S169      1.0  0.39146  0.52853  0.24567  1.0000
  C   C723      1.0  0.42595  0.54201  0.24447  1.0000
  C   C724      1.0  0.43953  0.56961  0.24453  1.0000
  H   H1287     1.0  0.28211  0.78105  0.24795  1.0000
  H   H1288     1.0  0.47661  0.53125  0.14547  1.0000
  H   H1289     1.0  0.42875  0.58230  0.24561  1.0000
  H   H1290     1.0  0.01187  0.84532  0.02599  1.0000
  C   C725      1.0  0.43999  0.52574  0.24309  1.0000
  H   H1291     1.0  0.42977  0.50451  0.24304  1.0000
  C   C726      1.0  0.39329  0.76864  0.24601  1.0000
  H   H1292     1.0  0.04743  0.63810  0.00404  1.0000
  H   H1293     1.0  0.49920  0.56931  0.13412  1.0000
  H   H1294     1.0  0.12893  0.75272  0.24616  1.0000
  C   C727      1.0  0.46377  0.75039  0.24766  1.0000
  H   H1295     1.0  0.35156  0.50820  0.20084  1.0000
  H   H1296     1.0  0.09893  0.96882  0.00147  1.0000
  N   N41       1.0  0.46714  0.77888  0.24981  1.0000
  H   H1297     1.0  0.39507  0.78863  0.24954  1.0000
  H   H1298     1.0  0.44024  0.98280  0.31074  1.0000
  H   H1299     1.0  0.04633  0.52159  0.25393  1.0000
  S   S170      1.0  0.08676  0.66192  0.27310  1.0000
  H   H1300     1.0  0.18529  0.66474  0.28814  1.0000
  H   H1301     1.0  0.12069  0.97303  0.44513  1.0000
  C   C728      1.0  0.44128  0.78113  0.25263  1.0000
  H   H1302     1.0  0.17003  0.69709  0.29862  1.0000
  C   C729      1.0  0.20950  0.76754  0.27947  1.0000
  H   H1303     1.0  0.47800  0.00167  0.36680  1.0000
  H   H1304     1.0  0.11963  0.76414  0.41463  1.0000
  H   H1305     1.0  0.10458  0.56745  0.27562  1.0000
  S   S171      1.0  0.14328  0.50814  0.25699  1.0000
  S   S172      1.0  0.36527  0.91721  0.28214  1.0000
  H   H1306     1.0  0.14312  0.69917  0.27565  1.0000
  H   H1307     1.0  0.38996  0.98726  0.31905  1.0000
  H   H1308     1.0  0.07419  0.85150  0.48724  1.0000
  S   S173      1.0  0.22706  0.98026  0.41892  1.0000
  H   H1309     1.0  0.21210  0.75100  0.27377  1.0000
  H   H1310     1.0  0.48331  0.98714  0.38797  1.0000
  S   S174      1.0  0.21836  0.98714  0.45303  1.0000
  H   H1311     1.0  0.42142  0.89762  0.31889  1.0000
  Fe  Fe87      1.0  0.21800  0.95434  0.43835  1.0000
  S   S175      1.0  0.18891  0.91160  0.44093  1.0000
  S   S176      1.0  0.26050  0.96140  0.44280  1.0000
  H   H1312     1.0  0.45635  0.88825  0.27420  1.0000
  H   H1313     1.0  0.16379  0.75480  0.26327  1.0000
  N   N42       1.0  0.14478  0.93300  0.47729  1.0000
  C   C730      1.0  0.14957  0.95800  0.45306  1.0000
  H   H1314     1.0  0.11562  0.94456  0.46683  1.0000
  C   C731      1.0  0.38738  0.00309  0.29826  1.0000
  Fe  Fe88      1.0  0.04263  0.81314  0.42765  1.0000
  S   S177      1.0  0.07131  0.85167  0.41827  1.0000
  S   S178      1.0  0.05408  0.78410  0.43992  1.0000
  H   H1315     1.0  0.12126  0.94480  0.43526  1.0000
  H   H1316     1.0  0.02235  0.63089  0.31191  1.0000
  C   C732      1.0  0.45853  0.95962  0.25896  1.0000
  H   H1317     1.0  0.37031  0.96625  0.26717  1.0000
  H   H1318     1.0  0.48212  0.94839  0.30044  1.0000
  H   H1319     1.0  0.10999  0.59740  0.29658  1.0000
  C   C733      1.0  0.15575  0.89624  0.43506  1.0000
  C   C734      1.0  0.14458  0.90799  0.42509  1.0000
  C   C735      1.0  0.11835  0.89449  0.42040  1.0000
  C   C736      1.0  0.10302  0.86929  0.42574  1.0000
  C   C737      1.0  0.11398  0.85792  0.43604  1.0000
  C   C738      1.0  0.14029  0.87120  0.44054  1.0000
  H   H1320     1.0  0.15631  0.92717  0.42073  1.0000
  H   H1321     1.0  0.11008  0.90338  0.41237  1.0000
  H   H1322     1.0  0.10242  0.83858  0.44026  1.0000
  H   H1323     1.0  0.14879  0.86192  0.44824  1.0000
  C   C739      1.0  0.16304  0.71429  0.27819  1.0000
  C   C740      1.0  0.03207  0.63687  0.27058  1.0000
  H   H1324     1.0  0.04844  0.59117  0.25442  1.0000
  C   C741      1.0  0.07521  0.77923  0.39565  1.0000
  H   H1325     1.0  0.12968  0.85282  0.40644  1.0000
  H   H1326     1.0  0.44109  0.94188  0.30842  1.0000
  H   H1327     1.0  0.13306  0.81457  0.41337  1.0000
  H   H1328     1.0  0.10080  0.81033  0.41782  1.0000
  C   C742      1.0  0.37268  0.95035  0.28798  1.0000
  H   H1329     1.0  0.17299  0.71871  0.26763  1.0000
  C   C743      1.0  0.37823  0.95661  0.30266  1.0000
  H   H1330     1.0  0.11985  0.77364  0.25816  1.0000
  H   H1331     1.0  0.37673  0.94104  0.31015  1.0000
  H   H1332     1.0  0.18535  0.77558  0.29497  1.0000
  C   C744      1.0  0.00661  0.62578  0.27637  1.0000
  H   H1333     1.0  0.39237  0.97531  0.37303  1.0000
  H   H1334     1.0  0.14978  0.84622  0.39358  1.0000
  C   C745      1.0  0.13355  0.96346  0.44090  1.0000
  C   C746      1.0  0.13249  0.87314  0.38663  1.0000
  C   C747      1.0  0.05415  0.64631  0.27970  1.0000
  H   H1335     1.0  0.19360  0.74854  0.29975  1.0000
  H   H1336     1.0  0.03455  0.63864  0.25908  1.0000
  H   H1337     1.0  0.43362  0.98172  0.28523  1.0000
  H   H1338     1.0  0.14993  0.97339  0.48253  1.0000
  H   H1339     1.0  0.10876  0.75708  0.31973  1.0000
  H   H1340     1.0  0.07259  0.75857  0.39836  1.0000
  H   H1341     1.0  0.46754  0.70345  0.25712  1.0000
  H   H1342     1.0  0.11820  0.87618  0.47812  1.0000
  S   S179      1.0  0.02924  0.71934  0.41529  1.0000
  H   H1343     1.0  0.07272  0.77738  0.37177  1.0000
  H   H1344     1.0  0.02193  0.75375  0.38898  1.0000
  H   H1345     1.0  0.43804  0.98524  0.37935  1.0000
  H   H1346     1.0  0.10426  0.59286  0.26367  1.0000
  C   C748      1.0  0.23571  0.78422  0.28671  1.0000
  C   C749      1.0  0.14162  0.73006  0.29675  1.0000
  C   C750      1.0  0.13152  0.93781  0.46388  1.0000
  H   H1347     1.0  0.14706  0.97698  0.43301  1.0000
  H   H1348     1.0  0.41651  0.89744  0.28606  1.0000
  C   C751      1.0  0.47793  0.54365  0.28031  1.0000
  H   H1349     1.0  0.25160  0.00222  0.38460  1.0000
  H   H1350     1.0  0.06406  0.78504  0.40392  1.0000
  C   C752      1.0  0.19296  0.89616  0.47891  1.0000
  C   C753      1.0  0.42787  0.90599  0.29603  1.0000
  C   C754      1.0  0.00959  0.56519  0.27298  1.0000
  H   H1351     1.0  0.18310  0.79047  0.38151  1.0000
  C   C755      1.0  0.10677  0.82383  0.39011  1.0000
  C   C756      1.0  0.16313  0.92012  0.47281  1.0000
  H   H1352     1.0  0.09559  0.74235  0.25208  1.0000
  H   H1353     1.0  0.09504  0.88902  0.47100  1.0000
  H   H1354     1.0  0.06431  0.56736  0.28765  1.0000
  H   H1355     1.0  0.44401  0.80228  0.25362  1.0000
  H   H1356     1.0  0.08958  0.82854  0.39314  1.0000
  H   H1357     1.0  0.10642  0.82287  0.37816  1.0000
  H   H1358     1.0  0.15274  0.90282  0.46570  1.0000
  C   C757      1.0  0.02666  0.77837  0.49426  1.0000
  H   H1359     1.0  0.46274  0.98106  0.25964  1.0000
  H   H1360     1.0  0.15527  0.81591  0.38102  1.0000
  C   C758      1.0  0.44721  0.73041  0.25902  1.0000
  H   H1361     1.0  0.19120  0.92873  0.49064  1.0000
  H   H1362     1.0  0.11281  0.78301  0.37624  1.0000
  H   H1363     1.0  0.11136  0.79287  0.44134  1.0000
  C   C759      1.0  0.02350  0.54570  0.27129  1.0000
  H   H1364     1.0  0.13129  0.76544  0.29654  1.0000
  C   C760      1.0  0.01335  0.58514  0.36955  1.0000
  S   S180      1.0  0.02996  0.79673  0.47838  1.0000
  H   H1365     1.0  0.15743  0.56409  0.25835  1.0000
  C   C761      1.0  0.10923  0.77510  0.42011  1.0000
  C   C762      1.0  0.11231  0.80077  0.41196  1.0000
  H   H1366     1.0  0.03055  0.60418  0.36865  1.0000
  H   H1367     1.0  0.06488  0.59451  0.27731  1.0000
  N   N43       1.0  0.05099  0.55741  0.26552  1.0000
  H   H1368     1.0  0.45940  0.99129  0.39975  1.0000
  H   H1369     1.0  0.16297  0.89794  0.49265  1.0000
  Fe  Fe89      1.0  0.26982  0.98966  0.42405  1.0000
  H   H1370     1.0  0.12274  0.71436  0.29298  1.0000
  N   N44       1.0  0.16093  0.73868  0.28465  1.0000
  H   H1371     1.0  0.16317  0.95007  0.44812  1.0000
  H   H1372     1.0  0.11725  0.76277  0.44117  1.0000
  Fe  Fe90      1.0  0.35209  0.89592  0.26045  1.0000
  C   C763      1.0  0.45374  0.87831  0.26397  1.0000
  H   H1373     1.0  0.08615  0.80491  0.49185  1.0000
  H   H1374     1.0  0.06720  0.65129  0.30182  1.0000
  H   H1375     1.0  0.39208  0.89352  0.30850  1.0000
  H   H1376     1.0  0.15674  0.76195  0.38843  1.0000
  C   C764      1.0  0.12341  0.91539  0.48693  1.0000
  C   C765      1.0  0.49501  0.99378  0.41008  1.0000
  H   H1377     1.0  0.18270  0.67627  0.27035  1.0000
  H   H1378     1.0  0.14225  0.79318  0.43502  1.0000
  H   H1379     1.0  0.05621  0.79616  0.37988  1.0000
  C   C766      1.0  0.06079  0.77822  0.38104  1.0000
  C   C767      1.0  0.02489  0.63248  0.30042  1.0000
  Fe  Fe91      1.0  0.02181  0.75234  0.42717  1.0000
  S   S181      1.0  0.29267  0.99090  0.40353  1.0000
  H   H1380     1.0  0.44012  0.92356  0.26998  1.0000
  H   H1381     1.0  0.16127  0.97724  0.45824  1.0000
  H   H1382     1.0  0.13517  0.87066  0.37501  1.0000
  C   C768      1.0  0.05966  0.53517  0.26212  1.0000
  C   C769      1.0  0.02490  0.75224  0.49433  1.0000
  C   C770      1.0  0.38583  0.98282  0.30775  1.0000
  H   H1383     1.0  0.17967  0.96910  0.47958  1.0000
  H   H1384     1.0  0.43512  0.68887  0.26445  1.0000
  H   H1385     1.0  0.00531  0.57840  0.35860  1.0000
  H   H1386     1.0  0.15353  0.66049  0.28085  1.0000
  H   H1387     1.0  0.11759  0.71798  0.26542  1.0000
  H   H1388     1.0  0.46739  0.99593  0.28161  1.0000
  C   C771      1.0  0.12259  0.73895  0.26832  1.0000
  C   C772      1.0  0.24819  0.96611  0.49370  1.0000
  H   H1389     1.0  0.15535  0.77323  0.27638  1.0000
  H   H1390     1.0  0.11324  0.76354  0.39110  1.0000
  C   C773      1.0  0.13104  0.84861  0.39494  1.0000
  C   C774      1.0  0.03492  0.75406  0.37997  1.0000
  H   H1391     1.0  0.48699  0.97230  0.41252  1.0000
  H   H1392     1.0  0.15736  0.80379  0.39888  1.0000
  H   H1393     1.0  0.07198  0.88134  0.49403  1.0000
  H   H1394     1.0  0.41191  0.86846  0.26289  1.0000
  H   H1395     1.0  0.15417  0.77383  0.37056  1.0000
  H   H1396     1.0  0.48031  0.93541  0.28293  1.0000
  C   C775      1.0  0.09862  0.58449  0.27447  1.0000
  C   C776      1.0  0.13574  0.75238  0.30430  1.0000
  N   N45       1.0  0.10398  0.79739  0.39635  1.0000
  C   C777      1.0  0.11448  0.60532  0.28554  1.0000
  H   H1397     1.0  0.12192  0.91918  0.45757  1.0000
  C   C778      1.0  0.12075  0.78147  0.43533  1.0000
  H   H1398     1.0  0.10931  0.73939  0.27704  1.0000
  H   H1399     1.0  0.07926  0.54290  0.25699  1.0000
  H   H1400     1.0  0.23448  0.80167  0.29223  1.0000
  C   C779      1.0  0.10341  0.81326  0.49924  1.0000
  H   H1401     1.0  0.20516  0.78026  0.27143  1.0000
  C   C780      1.0  0.48051  0.99879  0.39704  1.0000
  C   C781      1.0  0.15183  0.75259  0.27308  1.0000
  C   C782      1.0  0.00664  0.69804  0.40242  1.0000
  H   H1402     1.0  0.03982  0.50547  0.27839  1.0000
  H   H1403     1.0  0.17912  0.93399  0.46620  1.0000
  H   H1404     1.0  0.47443  0.98852  0.30948  1.0000
  H   H1405     1.0  0.47886  0.56201  0.27484  1.0000
  C   C783      1.0  0.38158  0.99681  0.28361  1.0000
  H   H1406     1.0  0.41472  0.93812  0.29644  1.0000
  H   H1407     1.0  0.42171  0.94383  0.27046  1.0000
  C   C784      1.0  0.11877  0.78447  0.38773  1.0000
  H   H1408     1.0  0.02517  0.74237  0.48431  1.0000
  H   H1409     1.0  0.43612  0.99961  0.36235  1.0000
  C   C785      1.0  0.06015  0.51749  0.27503  1.0000
  H   H1410     1.0  0.24562  0.95550  0.48362  1.0000
  C   C786      1.0  0.06871  0.57600  0.27672  1.0000
  C   C787      1.0  0.14908  0.79813  0.38792  1.0000
  C   C788      1.0  0.40480  0.99580  0.37650  1.0000
  H   H1411     1.0  0.07104  0.52932  0.28441  1.0000
  H   H1412     1.0  0.20839  0.90909  0.47164  1.0000
  C   C789      1.0  0.08575  0.87159  0.49167  1.0000
  H   H1413     1.0  0.47577  0.77927  0.27252  1.0000
  H   H1414     1.0  0.50233  0.98538  0.27448  1.0000
  C   C790      1.0  0.37448  0.97066  0.27847  1.0000
  H   H1415     1.0  0.08820  0.76191  0.42102  1.0000
  C   C791      1.0  0.01435  0.68136  0.39371  1.0000
  C   C792      1.0  0.11226  0.74081  0.31421  1.0000
  S   S182      1.0  0.34002  0.85153  0.26209  1.0000
  H   H1416     1.0  0.44631  0.90244  0.29621  1.0000
  C   C793      1.0  0.16142  0.77989  0.38171  1.0000
  C   C794      1.0  0.05034  0.64401  0.29464  1.0000
  H   H1417     1.0  0.13576  0.61090  0.28369  1.0000
  H   H1418     1.0  0.11599  0.72802  0.32246  1.0000
  H   H1419     1.0  0.03865  0.73555  0.38015  1.0000
  H   H1420     1.0  0.14879  0.72049  0.30538  1.0000
  H   H1421     1.0  0.15290  0.76483  0.31098  1.0000
  H   H1422     1.0  0.09426  0.72892  0.30792  1.0000
  C   C795      1.0  0.43371  0.00117  0.37410  1.0000
  H   H1423     1.0  0.25116  0.79151  0.27845  1.0000
  H   H1424     1.0  0.20274  0.88989  0.48782  1.0000
  C   C796      1.0  0.26235  0.99349  0.49413  1.0000
  C   C797      1.0  0.41100  0.89078  0.30846  1.0000
  H   H1425     1.0  0.14941  0.89069  0.39070  1.0000
  H   H1426     1.0  0.02362  0.53712  0.28210  1.0000
  H   H1427     1.0  0.10998  0.62332  0.28454  1.0000
  H   H1428     1.0  0.40660  0.86933  0.30718  1.0000
  H   H1429     1.0  0.11430  0.87687  0.38815  1.0000
  H   H1430     1.0  0.11014  0.92556  0.48981  1.0000
  C   C798      1.0  0.10608  0.88761  0.48078  1.0000
  C   C799      1.0  0.15994  0.95950  0.48449  1.0000
  N   N46       1.0  0.45271  0.95392  0.28658  1.0000
  C   C800      1.0  0.18709  0.75750  0.29052  1.0000
  C   C801      1.0  0.44199  0.94422  0.27171  1.0000
  C   C802      1.0  0.43378  0.93598  0.29725  1.0000
  H   H1431     1.0  0.13160  0.91189  0.49728  1.0000
  C   C803      1.0  0.17455  0.67391  0.28130  1.0000
  C   C804      1.0  0.11649  0.75285  0.25539  1.0000
  H   H1432     1.0  0.24156  0.77222  0.29456  1.0000
  H   H1433     1.0  0.03401  0.68180  0.39488  1.0000
  C   C805      1.0  0.17762  0.70068  0.28757  1.0000
  H   H1434     1.0  0.19895  0.71309  0.28822  1.0000
  C   C806      1.0  0.17707  0.91116  0.48495  1.0000
  H   H1435     1.0  0.45518  0.73655  0.27001  1.0000
  C   C807      1.0  0.42863  0.86703  0.25761  1.0000
  C   C808      1.0  0.47929  0.95255  0.28897  1.0000
  H   H1436     1.0  0.38610  0.75467  0.25508  1.0000
  Fe  Fe92      1.0  0.26095  0.99563  0.45643  1.0000
  H   H1437     1.0  0.43341  0.77223  0.26317  1.0000
  C   C809      1.0  0.47552  0.87659  0.25725  1.0000
  C   C810      1.0  0.48509  0.78984  0.26263  1.0000
  C   C811      1.0  0.45814  0.99240  0.30425  1.0000
  H   H1438     1.0  0.02137  0.58202  0.28004  1.0000
  H   H1439     1.0  0.02003  0.57023  0.37435  1.0000
  H   H1440     1.0  0.09423  0.50958  0.26897  1.0000
  H   H1441     1.0  0.02455  0.75457  0.36975  1.0000
  H   H1442     1.0  0.42649  0.72854  0.25865  1.0000
  H   H1443     1.0  0.47720  0.95652  0.25858  1.0000
  C   C812      1.0  0.45294  0.98137  0.28865  1.0000
  H   H1444     1.0  0.18002  0.87829  0.47285  1.0000
  H   H1445     1.0  0.46135  0.53755  0.28790  1.0000
  Fe  Fe93      1.0  0.02227  0.78268  0.45517  1.0000
  H   H1446     1.0  0.00656  0.57305  0.26243  1.0000
  S   S183      1.0  0.01284  0.78182  0.41384  1.0000
  H   H1447     1.0  0.11404  0.79972  0.49922  1.0000
  H   H1448     1.0  0.11645  0.83291  0.49512  1.0000
  H   H1449     1.0  0.47582  0.82432  0.26839  1.0000
  H   H1450     1.0  0.50184  0.81654  0.28860  1.0000
  C   C813      1.0  0.49317  0.81973  0.26591  1.0000
  C   C814      1.0  0.44724  0.70291  0.25630  1.0000
  H   H1451     1.0  0.31372  0.00091  0.37522  1.0000
  H   H1452     1.0  0.40110  0.99807  0.38802  1.0000
  H   H1453     1.0  0.50134  0.52958  0.29381  1.0000
  H   H1454     1.0  0.47390  0.52768  0.27217  1.0000
  C   C815      1.0  0.05217  0.57302  0.25201  1.0000
  S   S184      1.0  0.01221  0.81328  0.44321  1.0000
  H   H1455     1.0  0.01072  0.52868  0.26455  1.0000
  H   H1456     1.0  0.50331  0.78609  0.26153  1.0000
  C   C816      1.0  0.50388  0.97754  0.28523  1.0000
  H   H1457     1.0  0.50349  0.83216  0.25677  1.0000
  Fe  Fe94      1.0  0.10385  0.66227  0.25068  1.0000
  C   C817      1.0  0.50361  0.54842  0.28844  1.0000
  S   S185      1.0  0.13324  0.64309  0.25074  1.0000
  Fe  Fe95      1.0  0.23095  0.97504  0.58845  1.0000
  Fe  Fe96      1.0  0.17865  0.96438  0.57300  1.0000
  S   S186      1.0  0.13423  0.94667  0.57290  1.0000
  S   S187      1.0  0.20489  0.94195  0.57413  1.0000
  Fe  Fe97      1.0  0.01552  0.75357  0.55782  1.0000
  H   H1458     1.0  0.09392  0.86483  0.52790  1.0000
  Fe  Fe98      1.0  0.04269  0.79727  0.57993  1.0000
  S   S188      1.0  0.08380  0.82418  0.58694  1.0000
  S   S189      1.0  0.04047  0.75578  0.57739  1.0000
  Fe  Fe99      1.0  0.11970  0.69783  0.68700  1.0000
  S   S190      1.0  0.12757  0.67580  0.66852  1.0000
  S   S191      1.0  0.14783  0.73930  0.69493  1.0000
  Fe  Fe100     1.0  0.06342  0.65460  0.69114  1.0000
  S   S192      1.0  0.06787  0.63138  0.67204  1.0000
  S   S193      1.0  0.02268  0.63412  0.70119  1.0000
  Fe  Fe101     1.0  0.10773  0.63817  0.68122  1.0000
  S   S194      1.0  0.12088  0.60428  0.68730  1.0000
  Fe  Fe102     1.0  0.08672  0.67065  0.66101  1.0000
  S   S195      1.0  0.08247  0.68018  0.63748  1.0000
  S   S196      1.0  0.10304  0.66077  0.70061  1.0000
  S   S197      1.0  0.07928  0.69349  0.67918  1.0000
  S   S198      1.0  0.26270  0.82379  0.67886  1.0000
  C   C818      1.0  0.11487  0.57272  0.67937  1.0000
  C   C819      1.0  0.11607  0.55220  0.68808  1.0000
  C   C820      1.0  0.11168  0.52696  0.68227  1.0000
  S   S199      1.0  0.02015  0.73457  0.53690  1.0000
  C   C821      1.0  0.10560  0.54262  0.65884  1.0000
  C   C822      1.0  0.10969  0.56775  0.66468  1.0000
  H   H1459     1.0  0.12029  0.55581  0.69944  1.0000
  H   H1460     1.0  0.04966  0.53818  0.65539  1.0000
  H   H1461     1.0  0.10167  0.53913  0.64745  1.0000
  H   H1462     1.0  0.10923  0.58340  0.65776  1.0000
  C   C823      1.0  0.17908  0.76312  0.68958  1.0000
  C   C824      1.0  0.19021  0.78727  0.69720  1.0000
  C   C825      1.0  0.21549  0.80617  0.69401  1.0000
  C   C826      1.0  0.23016  0.80123  0.68310  1.0000
  C   C827      1.0  0.21884  0.77729  0.67529  1.0000
  C   C828      1.0  0.19355  0.75839  0.67847  1.0000
  H   H1463     1.0  0.17924  0.79135  0.70574  1.0000
  H   H1464     1.0  0.22370  0.82443  0.70011  1.0000
  H   H1465     1.0  0.22994  0.77314  0.66685  1.0000
  H   H1466     1.0  0.18543  0.73999  0.67249  1.0000
  C   C829      1.0  0.01006  0.62781  0.71895  1.0000
  C   C830      1.0  0.02063  0.70764  0.61725  1.0000
  C   C831      1.0  0.01838  0.69930  0.63163  1.0000
  C   C832      1.0  0.03726  0.69115  0.63806  1.0000
  C   C833      1.0  0.05830  0.69064  0.63006  1.0000
  C   C834      1.0  0.06038  0.69872  0.61565  1.0000
  C   C835      1.0  0.04180  0.70736  0.60931  1.0000
  H   H1467     1.0  0.03530  0.68485  0.64914  1.0000
  H   H1468     1.0  0.07645  0.69820  0.60934  1.0000
  H   H1469     1.0  0.04360  0.71331  0.59819  1.0000
  C   C836      1.0  0.11991  0.91269  0.57701  1.0000
  C   C837      1.0  0.09314  0.89816  0.57408  1.0000
  C   C838      1.0  0.08163  0.87092  0.57711  1.0000
  C   C839      1.0  0.09687  0.85825  0.58321  1.0000
  C   C840      1.0  0.12350  0.87285  0.58629  1.0000
  C   C841      1.0  0.13497  0.89993  0.58320  1.0000
  H   H1470     1.0  0.08133  0.90795  0.56938  1.0000
  H   H1471     1.0  0.06102  0.85979  0.57480  1.0000
  H   H1472     1.0  0.13538  0.86315  0.59101  1.0000
  H   H1473     1.0  0.15540  0.91100  0.58582  1.0000
  H   H1474     1.0  0.27804  0.00261  0.68883  1.0000
  H   H1475     1.0  0.03578  0.53706  0.70817  1.0000
  H   H1476     1.0  0.23352  0.90066  0.67074  1.0000
  C   C842      1.0  0.19819  0.77024  0.63600  1.0000
  N   N47       1.0  0.11174  0.82937  0.54065  1.0000
  C   C843      1.0  0.08579  0.83171  0.54311  1.0000
  C   C844      1.0  0.11185  0.80511  0.54829  1.0000
  C   C845      1.0  0.13289  0.85319  0.54763  1.0000
  C   C846      1.0  0.11781  0.82869  0.52489  1.0000
  C   C847      1.0  0.09416  0.81577  0.51434  1.0000
  C   C848      1.0  0.16109  0.85351  0.54779  1.0000
  C   C849      1.0  0.09071  0.77812  0.54353  1.0000
  C   C850      1.0  0.09233  0.75562  0.55264  1.0000
  C   C851      1.0  0.18108  0.88034  0.55293  1.0000
  H   H1477     1.0  0.08097  0.82935  0.55473  1.0000
  H   H1478     1.0  0.06946  0.81534  0.53776  1.0000
  H   H1479     1.0  0.13087  0.80302  0.54681  1.0000
  H   H1480     1.0  0.10983  0.80725  0.56009  1.0000
  H   H1481     1.0  0.12778  0.85528  0.55896  1.0000
  H   H1482     1.0  0.13424  0.87172  0.54218  1.0000
  H   H1483     1.0  0.12855  0.84912  0.52081  1.0000
  H   H1484     1.0  0.13156  0.81849  0.52341  1.0000
  H   H1485     1.0  0.06815  0.58649  0.64939  1.0000
  H   H1486     1.0  0.08084  0.79587  0.51772  1.0000
  H   H1487     1.0  0.16678  0.84953  0.53693  1.0000
  H   H1488     1.0  0.16259  0.83848  0.55534  1.0000
  H   H1489     1.0  0.07066  0.77780  0.54461  1.0000
  H   H1490     1.0  0.09392  0.77352  0.53233  1.0000
  H   H1491     1.0  0.11145  0.75377  0.55117  1.0000
  H   H1492     1.0  0.08994  0.75905  0.56416  1.0000
  H   H1493     1.0  0.07634  0.73666  0.54933  1.0000
  H   H1494     1.0  0.20109  0.88010  0.55315  1.0000
  H   H1495     1.0  0.18125  0.89639  0.54561  1.0000
  H   H1496     1.0  0.17637  0.88476  0.56394  1.0000
  N   N48       1.0  0.22669  0.84799  0.63679  1.0000
  C   C852      1.0  0.21530  0.85208  0.62258  1.0000
  C   C853      1.0  0.25611  0.85631  0.63627  1.0000
  C   C854      1.0  0.22608  0.88084  0.61679  1.0000
  C   C855      1.0  0.20508  0.79775  0.62961  1.0000
  C   C856      1.0  0.21364  0.88239  0.60223  1.0000
  H   H1497     1.0  0.21825  0.83958  0.61399  1.0000
  H   H1498     1.0  0.21315  0.84023  0.66720  1.0000
  H   H1499     1.0  0.26595  0.87793  0.63438  1.0000
  H   H1500     1.0  0.26404  0.85330  0.64686  1.0000
  H   H1501     1.0  0.25801  0.84126  0.61442  1.0000
  H   H1502     1.0  0.26181  0.82105  0.62897  1.0000
  H   H1503     1.0  0.24763  0.88837  0.61534  1.0000
  H   H1504     1.0  0.24659  0.86284  0.66552  1.0000
  C   C857      1.0  0.21357  0.81946  0.64151  1.0000
  H   H1505     1.0  0.22046  0.80077  0.62157  1.0000
  H   H1506     1.0  0.19021  0.75494  0.62745  1.0000
  H   H1507     1.0  0.21829  0.87006  0.59412  1.0000
  H   H1508     1.0  0.22633  0.81473  0.64950  1.0000
  H   H1509     1.0  0.21600  0.76850  0.64074  1.0000
  H   H1510     1.0  0.20002  0.86301  0.64681  1.0000
  C   C858      1.0  0.08437  0.85829  0.53836  1.0000
  H   H1511     1.0  0.19985  0.87751  0.67274  1.0000
  H   H1512     1.0  0.19359  0.84550  0.62342  1.0000
  H   H1513     1.0  0.04487  0.84114  0.52906  1.0000
  H   H1514     1.0  0.23300  0.88655  0.64574  1.0000
  H   H1515     1.0  0.19200  0.87575  0.60310  1.0000
  C   C859      1.0  0.22075  0.88003  0.67358  1.0000
  H   H1516     1.0  0.19502  0.81630  0.64724  1.0000
  C   C860      1.0  0.22600  0.86041  0.66373  1.0000
  H   H1517     1.0  0.22156  0.89437  0.62414  1.0000
  H   H1518     1.0  0.18322  0.76630  0.64445  1.0000
  C   C861      1.0  0.22093  0.86530  0.64776  1.0000
  C   C862      1.0  0.35720  0.99072  0.64956  1.0000
  H   H1519     1.0  0.09473  0.87400  0.54639  1.0000
  C   C863      1.0  0.05608  0.85630  0.53716  1.0000
  H   H1520     1.0  0.28334  0.52149  0.69020  1.0000
  H   H1521     1.0  0.18734  0.79783  0.62386  1.0000
  C   C864      1.0  0.08801  0.77564  0.61753  1.0000
  C   C865      1.0  0.26289  0.95284  0.61836  1.0000
  H   H1522     1.0  0.04362  0.57196  0.72693  1.0000
  H   H1523     1.0  0.22515  0.87647  0.68488  1.0000
  H   H1524     1.0  0.04842  0.59286  0.69610  1.0000
  H   H1525     1.0  0.14253  0.00298  0.55976  1.0000
  H   H1526     1.0  0.11835  0.72979  0.65717  1.0000
  H   H1527     1.0  0.10438  0.74415  0.63502  1.0000
  C   C866      1.0  0.05274  0.58669  0.71842  1.0000
  C   C867      1.0  0.23869  0.95222  0.50647  1.0000
  H   H1528     1.0  0.22162  0.90324  0.59849  1.0000
  C   C868      1.0  0.03942  0.57668  0.70387  1.0000
  C   C869      1.0  0.02671  0.79109  0.50731  1.0000
  N   N49       1.0  0.03134  0.53910  0.68502  1.0000
  H   H1529     1.0  0.06495  0.55638  0.69913  1.0000
  C   C870      1.0  0.04333  0.55129  0.69928  1.0000
  H   H1530     1.0  0.06381  0.57103  0.67537  1.0000
  H   H1531     1.0  0.03357  0.57519  0.67457  1.0000
  H   H1532     1.0  0.13013  0.78231  0.61736  1.0000
  S   S200      1.0  0.24050  0.96608  0.61138  1.0000
  H   H1533     1.0  0.24618  0.94780  0.63944  1.0000
  C   C871      1.0  0.04232  0.56006  0.67366  1.0000
  H   H1534     1.0  0.01727  0.53832  0.65523  1.0000
  C   C872      1.0  0.26129  0.94568  0.63293  1.0000
  C   C873      1.0  0.11307  0.76794  0.59672  1.0000
  H   H1535     1.0  0.09836  0.76995  0.58908  1.0000
  H   H1536     1.0  0.10726  0.74672  0.59949  1.0000
  C   C874      1.0  0.11494  0.78449  0.61020  1.0000
  H   H1537     1.0  0.13239  0.77493  0.59138  1.0000
  H   H1538     1.0  0.04623  0.65047  0.73006  1.0000
  H   H1539     1.0  0.12121  0.80536  0.60671  1.0000
  H   H1540     1.0  0.07977  0.75375  0.61836  1.0000
  H   H1541     1.0  0.11704  0.75747  0.66705  1.0000
  H   H1542     1.0  0.04633  0.85112  0.54770  1.0000
  H   H1543     1.0  0.05592  0.87567  0.53382  1.0000
  H   H1544     1.0  0.50384  0.97239  0.73441  1.0000
  H   H1545     1.0  0.07407  0.59089  0.71794  1.0000
  C   C875      1.0  0.42944  0.98369  0.69784  1.0000
  S   S201      1.0  0.02069  0.79600  0.55936  1.0000
  H   H1546     1.0  0.21782  0.55493  0.67118  1.0000
  Fe  Fe103     1.0  0.22614  0.96758  0.55574  1.0000
  C   C876      1.0  0.10133  0.75325  0.64512  1.0000
  C   C877      1.0  0.12075  0.75082  0.65633  1.0000
  H   H1547     1.0  0.12645  0.79279  0.63980  1.0000
  C   C878      1.0  0.10560  0.78268  0.64277  1.0000
  H   H1548     1.0  0.13676  0.83018  0.62574  1.0000
  S   S202      1.0  0.23122  0.94723  0.53551  1.0000
  C   C879      1.0  0.24232  0.96566  0.51966  1.0000
  H   H1549     1.0  0.34580  0.93846  0.73016  1.0000
  H   H1550     1.0  0.08220  0.82792  0.51355  1.0000
  H   H1551     1.0  0.14128  0.76268  0.65328  1.0000
  H   H1552     1.0  0.07485  0.78005  0.60973  1.0000
  N   N50       1.0  0.08758  0.78791  0.63195  1.0000
  C   C880      1.0  0.02434  0.77770  0.52036  1.0000
  C   C881      1.0  0.41439  0.92704  0.72495  1.0000
  C   C882      1.0  0.12362  0.83626  0.63238  1.0000
  H   H1553     1.0  0.12989  0.83654  0.64379  1.0000
  H   H1554     1.0  0.08138  0.74144  0.64906  1.0000
  H   H1555     1.0  0.10390  0.79121  0.65340  1.0000
  C   C883      1.0  0.12782  0.86462  0.62834  1.0000
  H   H1556     1.0  0.14890  0.87769  0.62965  1.0000
  H   H1557     1.0  0.47846  0.84903  0.70154  1.0000
  C   C884      1.0  0.05995  0.77530  0.63756  1.0000
  C   C885      1.0  0.48416  0.98550  0.70470  1.0000
  C   C886      1.0  0.25552  0.99320  0.52002  1.0000
  S   S203      1.0  0.25475  0.99937  0.57003  1.0000
  H   H1558     1.0  0.12188  0.86551  0.61699  1.0000
  C   C887      1.0  0.09433  0.81738  0.63052  1.0000
  H   H1559     1.0  0.08715  0.82168  0.61995  1.0000
  C   C888      1.0  0.49115  0.83922  0.64981  1.0000
  H   H1560     1.0  0.08384  0.82424  0.63874  1.0000
  H   H1561     1.0  0.11614  0.87220  0.63534  1.0000
  Fe  Fe104     1.0  0.32625  0.92355  0.69309  1.0000
  H   H1562     1.0  0.05932  0.78188  0.64882  1.0000
  H   H1563     1.0  0.46110  0.78911  0.66011  1.0000
  C   C889      1.0  0.02567  0.63806  0.73121  1.0000
  H   H1564     1.0  0.05337  0.75340  0.63793  1.0000
  H   H1565     1.0  0.03538  0.77042  0.61813  1.0000
  H   H1566     1.0  0.16774  0.65248  0.70547  1.0000
  H   H1567     1.0  0.16902  0.69811  0.70462  1.0000
  H   H1568     1.0  0.19862  0.70871  0.69426  1.0000
  C   C890      1.0  0.03837  0.78048  0.62872  1.0000
  H   H1569     1.0  0.04338  0.80185  0.62688  1.0000
  C   C891      1.0  0.18756  0.69526  0.70289  1.0000
  H   H1570     1.0  0.20846  0.77840  0.72676  1.0000
  H   H1571     1.0  0.16800  0.66393  0.68739  1.0000
  C   C892      1.0  0.17985  0.66687  0.69744  1.0000
  H   H1572     1.0  0.19754  0.66272  0.69510  1.0000
  H   H1573     1.0  0.02255  0.71903  0.50752  1.0000
  H   H1574     1.0  0.03519  0.58584  0.64872  1.0000
  H   H1575     1.0  0.25084  0.96330  0.67476  1.0000
  C   C893      1.0  0.26644  0.84161  0.62530  1.0000
  H   H1576     1.0  0.27741  0.93011  0.65027  1.0000
  C   C894      1.0  0.27897  0.93568  0.63910  1.0000
  H   H1577     1.0  0.17598  0.58907  0.68559  1.0000
  H   H1578     1.0  0.47319  0.84350  0.64864  1.0000
  H   H1579     1.0  0.24912  0.95984  0.70157  1.0000
  H   H1580     1.0  0.25693  0.71152  0.72944  1.0000
  S   S204      1.0  0.39450  0.88562  0.69150  1.0000
  S   S205      1.0  0.19792  0.98741  0.55368  1.0000
  H   H1581     1.0  0.24339  0.74996  0.73925  1.0000
  H   H1582     1.0  0.48260  0.80520  0.69691  1.0000
  C   C895      1.0  0.25756  0.94836  0.69491  1.0000
  H   H1583     1.0  0.42603  0.00048  0.72469  1.0000
  H   H1584     1.0  0.40003  0.98755  0.67427  1.0000
  H   H1585     1.0  0.05855  0.52335  0.67643  1.0000
  H   H1586     1.0  0.37429  0.89866  0.72134  1.0000
  H   H1587     1.0  0.48729  0.81953  0.64501  1.0000
  C   C896      1.0  0.10638  0.52199  0.66758  1.0000
  H   H1588     1.0  0.38657  0.97200  0.69943  1.0000
  C   C897      1.0  0.49367  0.82262  0.69017  1.0000
  S   S206      1.0  0.20300  0.99622  0.58834  1.0000
  H   H1589     1.0  0.48751  0.89832  0.69664  1.0000
  C   C898      1.0  0.29882  0.93319  0.63083  1.0000
  H   H1590     1.0  0.22811  0.51138  0.66387  1.0000
  H   H1591     1.0  0.16962  0.54308  0.69073  1.0000
  H   H1592     1.0  0.20488  0.59380  0.67540  1.0000
  H   H1593     1.0  0.30817  0.97511  0.65799  1.0000
  C   C899      1.0  0.02290  0.75171  0.52055  1.0000
  H   H1594     1.0  0.44813  0.55368  0.69472  1.0000
  H   H1595     1.0  0.40002  0.93850  0.70593  1.0000
  H   H1596     1.0  0.49711  0.96191  0.69021  1.0000
  H   H1597     1.0  0.39715  0.95606  0.72140  1.0000
  H   H1598     1.0  0.18082  0.73558  0.71610  1.0000
  S   S207      1.0  0.32656  0.88425  0.70014  1.0000
  H   H1599     1.0  0.40318  0.81737  0.67697  1.0000
  H   H1600     1.0  0.18698  0.98590  0.51810  1.0000
  H   H1601     1.0  0.48226  0.99736  0.69547  1.0000
  C   C900      1.0  0.28229  0.94969  0.60999  1.0000
  H   H1602     1.0  0.27110  0.50801  0.67267  1.0000
  H   H1603     1.0  0.46561  0.92165  0.65617  1.0000
  H   H1604     1.0  0.24196  0.92863  0.69262  1.0000
  H   H1605     1.0  0.16993  0.94391  0.50489  1.0000
  C   C901      1.0  0.48406  0.57053  0.66414  1.0000
  H   H1606     1.0  0.28376  0.95509  0.59878  1.0000
  H   H1607     1.0  0.24095  0.52424  0.69587  1.0000
  C   C902      1.0  0.44675  0.89325  0.69421  1.0000
  C   C903      1.0  0.30021  0.94002  0.61623  1.0000
  C   C904      1.0  0.28854  0.99116  0.68376  1.0000
  H   H1608     1.0  0.15959  0.76337  0.72755  1.0000
  C   C905      1.0  0.45746  0.96361  0.70882  1.0000
  C   C906      1.0  0.47360  0.79263  0.66998  1.0000
  C   C907      1.0  0.19127  0.73474  0.72617  1.0000
  C   C908      1.0  0.17164  0.76492  0.73743  1.0000
  C   C909      1.0  0.44758  0.52697  0.66181  1.0000
  H   H1609     1.0  0.27071  0.74753  0.71636  1.0000
  C   C910      1.0  0.02339  0.73908  0.50749  1.0000
  H   H1610     1.0  0.47611  0.75373  0.65113  1.0000
  C   C911      1.0  0.25634  0.74367  0.70736  1.0000
  H   H1611     1.0  0.23024  0.68984  0.73983  1.0000
  H   H1612     1.0  0.21999  0.74898  0.70294  1.0000
  H   H1613     1.0  0.00458  0.50575  0.74971  1.0000
  C   C912      1.0  0.10380  0.99373  0.58162  1.0000
  H   H1614     1.0  0.27104  0.98646  0.65641  1.0000
  C   C913      1.0  0.16391  0.95982  0.50106  1.0000
  H   H1615     1.0  0.31541  0.93803  0.60972  1.0000
  H   H1616     1.0  0.49467  0.56315  0.70696  1.0000
  N   N51       1.0  0.43531  0.97254  0.71169  1.0000
  H   H1617     1.0  0.23915  0.76806  0.71721  1.0000
  C   C914      1.0  0.44962  0.98718  0.73809  1.0000
  H   H1618     1.0  0.19172  0.68601  0.72511  1.0000
  S   S208      1.0  0.32754  0.87024  0.66624  1.0000
  H   H1619     1.0  0.00595  0.74812  0.63845  1.0000
  N   N52       1.0  0.19693  0.51404  0.67688  1.0000
  H   H1620     1.0  0.07185  0.98240  0.59693  1.0000
  C   C915      1.0  0.43972  0.52886  0.67584  1.0000
  H   H1621     1.0  0.20458  0.58783  0.69456  1.0000
  C   C916      1.0  0.18483  0.98613  0.50623  1.0000
  C   C917      1.0  0.34960  0.97551  0.72072  1.0000
  H   H1622     1.0  0.05062  0.60539  0.72127  1.0000
  H   H1623     1.0  0.50023  0.83121  0.71988  1.0000
  C   C918      1.0  0.45607  0.82594  0.67634  1.0000
  S   S209      1.0  0.32233  0.92182  0.63825  1.0000
  H   H1624     1.0  0.43150  0.97374  0.74340  1.0000
  C   C919      1.0  0.20417  0.70003  0.71698  1.0000
  C   C920      1.0  0.20496  0.54323  0.67992  1.0000
  H   H1625     1.0  0.39102  0.89148  0.73646  1.0000
  C   C921      1.0  0.46962  0.54761  0.65605  1.0000
  C   C922      1.0  0.32022  0.99137  0.66535  1.0000
  C   C923      1.0  0.41212  0.81756  0.68775  1.0000
  H   H1626     1.0  0.45137  0.94834  0.70010  1.0000
  Fe  Fe105     1.0  0.32483  0.90934  0.66137  1.0000
  H   H1627     1.0  0.02825  0.81137  0.50728  1.0000
  C   C924      1.0  0.29624  0.85487  0.62401  1.0000
  H   H1628     1.0  0.27499  0.78385  0.69901  1.0000
  H   H1629     1.0  0.30601  0.85665  0.63469  1.0000
  C   C925      1.0  0.46047  0.91379  0.66685  1.0000
  H   H1630     1.0  0.20840  0.76353  0.74398  1.0000
  C   C926      1.0  0.22089  0.50739  0.67508  1.0000
  C   C927      1.0  0.19271  0.58275  0.68447  1.0000
  C   C928      1.0  0.36801  0.97150  0.74410  1.0000
  Fe  Fe106     1.0  0.29606  0.86523  0.68251  1.0000
  H   H1631     1.0  0.25142  0.72345  0.70305  1.0000
  H   H1632     1.0  0.22026  0.69330  0.71481  1.0000
  C   C929      1.0  0.45411  0.55182  0.68391  1.0000
  C   C930      1.0  0.03816  0.55035  0.65777  1.0000
  C   C931      1.0  0.48733  0.75599  0.66137  1.0000
  H   H1633     1.0  0.25532  0.54329  0.68039  1.0000
  C   C932      1.0  0.26801  0.96272  0.68085  1.0000
  C   C933      1.0  0.18220  0.55296  0.68158  1.0000
  C   C934      1.0  0.41085  0.94908  0.71575  1.0000
  C   C935      1.0  0.47597  0.57256  0.67810  1.0000
  S   S210      1.0  0.00667  0.78621  0.59344  1.0000
  H   H1634     1.0  0.11240  0.51140  0.68917  1.0000
  C   C936      1.0  0.38807  0.90762  0.73045  1.0000
  H   H1635     1.0  0.41897  0.83787  0.69230  1.0000
  H   H1636     1.0  0.46127  0.77804  0.67787  1.0000
  H   H1637     1.0  0.30193  0.87489  0.61929  1.0000
  H   H1638     1.0  0.39677  0.80415  0.69486  1.0000
  H   H1639     1.0  0.47555  0.54578  0.64522  1.0000
  C   C937      1.0  0.44259  0.99413  0.72295  1.0000
  H   H1640     1.0  0.01347  0.78017  0.64675  1.0000
  S   S211      1.0  0.29303  0.90417  0.67702  1.0000
  H   H1641     1.0  0.27349  0.94539  0.70111  1.0000
  C   C938      1.0  0.24444  0.71066  0.73874  1.0000
  H   H1642     1.0  0.06248  0.98732  0.57876  1.0000
  H   H1643     1.0  0.25729  0.75902  0.68571  1.0000
  H   H1644     1.0  0.46089  0.84715  0.67900  1.0000
  H   H1645     1.0  0.17620  0.78467  0.74239  1.0000
  C   C939      1.0  0.22934  0.72926  0.73707  1.0000
  C   C940      1.0  0.47978  0.91044  0.67573  1.0000
  C   C941      1.0  0.42733  0.89620  0.68523  1.0000
  C   C942      1.0  0.50373  0.97341  0.70035  1.0000
  C   C943      1.0  0.01457  0.63253  0.74501  1.0000
  C   C944      1.0  0.24557  0.52279  0.68448  1.0000
  H   H1646     1.0  0.44616  0.82295  0.66564  1.0000
  H   H1647     1.0  0.42665  0.78754  0.68303  1.0000
  S   S212      1.0  0.33042  0.96157  0.70501  1.0000
  H   H1648     1.0  0.44155  0.88516  0.70484  1.0000
  C   C945      1.0  0.43490  0.80840  0.68683  1.0000
  Fe  Fe107     1.0  0.35770  0.89170  0.68329  1.0000
  H   H1649     1.0  0.49328  0.52663  0.69682  1.0000
  H   H1650     1.0  0.42287  0.91559  0.71830  1.0000
  S   S213      1.0  0.35788  0.93119  0.67684  1.0000
  C   C946      1.0  0.47283  0.90048  0.68956  1.0000
  H   H1651     1.0  0.27667  0.95088  0.67469  1.0000
  C   C947      1.0  0.19714  0.76169  0.73382  1.0000
  H   H1652     1.0  0.44296  0.80892  0.69783  1.0000
  C   C948      1.0  0.18148  0.50792  0.66286  1.0000
  N   N53       1.0  0.21464  0.72788  0.72304  1.0000
  C   C949      1.0  0.23171  0.74780  0.71250  1.0000
  H   H1653     1.0  0.41987  0.90930  0.66451  1.0000
  H   H1654     1.0  0.19171  0.52313  0.65468  1.0000
  C   C950      1.0  0.43447  0.90686  0.67157  1.0000
  H   H1655     1.0  0.44583  0.00252  0.69509  1.0000
  C   C951      1.0  0.27004  0.76307  0.69546  1.0000
  H   H1656     1.0  0.30336  0.84290  0.61688  1.0000
  H   H1657     1.0  0.28852  0.76087  0.69258  1.0000
  H   H1658     1.0  0.30209  0.98924  0.69220  1.0000
  H   H1659     1.0  0.04483  0.56635  0.63619  1.0000
  H   H1660     1.0  0.37927  0.91783  0.73777  1.0000
  C   C952      1.0  0.35388  0.95975  0.73145  1.0000
  H   H1661     1.0  0.25865  0.00370  0.53016  1.0000
  C   C953      1.0  0.04715  0.57373  0.64744  1.0000
  N   N54       1.0  0.48073  0.82042  0.67558  1.0000
  H   H1662     1.0  0.06848  0.95813  0.58319  1.0000
  H   H1663     1.0  0.16981  0.54915  0.67170  1.0000
  H   H1664     1.0  0.34417  0.98057  0.64037  1.0000
  H   H1665     1.0  0.17678  0.71889  0.73273  1.0000
  H   H1666     1.0  0.47473  0.74212  0.66944  1.0000
  H   H1667     1.0  0.42742  0.96967  0.68877  1.0000
  H   H1668     1.0  0.21711  0.54936  0.68985  1.0000
  H   H1669     1.0  0.16002  0.74950  0.74512  1.0000
  H   H1670     1.0  0.42758  0.93497  0.73433  1.0000
  C   C954      1.0  0.01209  0.76963  0.63640  1.0000
  H   H1671     1.0  0.48648  0.59019  0.68438  1.0000
  H   H1672     1.0  0.46176  0.95360  0.71825  1.0000
  H   H1673     1.0  0.16184  0.50883  0.66426  1.0000
  H   H1674     1.0  0.32629  0.98122  0.67424  1.0000
  H   H1675     1.0  0.46397  0.97769  0.73771  1.0000
  H   H1676     1.0  0.22889  0.93090  0.50618  1.0000
  H   H1677     1.0  0.21552  0.72406  0.74625  1.0000
  H   H1678     1.0  0.01830  0.57295  0.70484  1.0000
  H   H1679     1.0  0.02378  0.78758  0.53024  1.0000
  C   C955      1.0  0.07486  0.97968  0.58537  1.0000
  H   H1680     1.0  0.19977  0.52151  0.70716  1.0000
  H   H1681     1.0  0.35935  0.97564  0.65683  1.0000
  H   H1682     1.0  0.14520  0.95717  0.50640  1.0000
  H   H1683     1.0  0.11483  0.98465  0.58828  1.0000
  C   C956      1.0  0.37813  0.99913  0.74618  1.0000
  H   H1684     1.0  0.17928  0.00289  0.50323  1.0000
  H   H1685     1.0  0.43682  0.50953  0.65542  1.0000
  C   C957      1.0  0.49699  0.78454  0.66686  1.0000
  C   C958      1.0  0.49752  0.84793  0.69896  1.0000
  H   H1686     1.0  0.20414  0.98918  0.50151  1.0000
  C   C959      1.0  0.49976  0.84056  0.66583  1.0000
  H   H1687     1.0  0.37680  0.00303  0.64530  1.0000
  H   H1688     1.0  0.49270  0.99900  0.71397  1.0000
  C   C960      1.0  0.26539  0.50960  0.68392  1.0000
  C   C961      1.0  0.40437  0.99004  0.69761  1.0000
  C   C962      1.0  0.40076  0.00136  0.68315  1.0000
  H   H1689     1.0  0.09560  0.86950  0.50176  1.0000
  C   C963      1.0  0.03903  0.51607  0.68159  1.0000
  H   H1690     1.0  0.10554  0.98959  0.57015  1.0000
  H   H1691     1.0  0.06079  0.51055  0.70037  1.0000
  C   C964      1.0  0.35982  0.00314  0.72278  1.0000
  H   H1692     1.0  0.50333  0.86097  0.66957  1.0000
  H   H1693     1.0  0.50225  0.60189  0.72162  1.0000
  H   H1694     1.0  0.15631  0.00364  0.60762  1.0000
  C   C965      1.0  0.01803  0.55454  0.76231  1.0000
  H   H1695     1.0  0.05266  0.58821  0.76935  1.0000
  H   H1696     1.0  0.36547  0.96393  0.98184  1.0000
  H   H1697     1.0  0.11691  0.90305  0.97965  1.0000
  H   H1698     1.0  0.06506  0.72113  0.99365  1.0000
  H   H1699     1.0  0.30484  0.93628  0.97100  1.0000
  H   H1700     1.0  0.02562  0.84517  0.97673  1.0000
  C   C966      1.0  0.01127  0.85626  0.99639  1.0000
  H   H1701     1.0  0.08544  0.92075  0.99622  1.0000
  H   H1702     1.0  0.08296  0.85959  0.98676  1.0000
  H   H1703     1.0  0.27197  0.70360  0.75333  1.0000
  C   C967      1.0  0.05434  0.70163  0.98842  1.0000
  C   C968      1.0  0.31372  0.97112  0.98467  1.0000
  C   C969      1.0  0.11898  0.89434  0.98978  1.0000
  Fe  Fe108     1.0  0.26089  0.00111  0.98772  1.0000
  C   C970      1.0  0.29466  0.94836  0.97559  1.0000
  C   C971      1.0  0.03402  0.58435  0.76336  1.0000
  H   H1704     1.0  0.06836  0.69189  0.98675  1.0000
  C   C972      1.0  0.36956  0.99557  0.99764  1.0000
  H   H1705     1.0  0.25019  0.71628  0.76193  1.0000
  C   C973      1.0  0.03178  0.68461  0.99791  1.0000
  H   H1706     1.0  0.02681  0.64078  0.75438  1.0000
  H   H1707     1.0  0.28673  0.95648  0.96660  1.0000
  H   H1708     1.0  0.03235  0.89691  0.98972  1.0000
  C   C974      1.0  0.38071  0.97861  0.98873  1.0000
  H   H1709     1.0  0.30294  0.98339  0.98817  1.0000
  C   C975      1.0  0.03417  0.88355  0.99829  1.0000
  C   C976      1.0  0.32394  0.96060  0.99789  1.0000
  S   S214      1.0  0.00795  0.78579  0.98824  1.0000
  H   H1710     1.0  0.05230  0.88039  0.99561  1.0000
  C   C977      1.0  0.14101  0.90791  0.99868  1.0000
  H   H1711     1.0  0.37073  0.95906  0.75245  1.0000
  H   H1712     1.0  0.03043  0.54562  0.75693  1.0000
  H   H1713     1.0  0.02866  0.65045  0.98510  1.0000
  S   S215      1.0  0.24106  0.95922  0.99546  1.0000
  H   H1714     1.0  0.38973  0.96833  0.99594  1.0000
  C   C978      1.0  0.09958  0.86967  0.99381  1.0000
  C   C979      1.0  0.01508  0.65820  0.99035  1.0000
  H   H1715     1.0  0.04680  0.70508  0.97782  1.0000
  H   H1716     1.0  0.32976  0.94462  0.99394  1.0000
  H   H1717     1.0  0.27795  0.93552  0.98214  1.0000
  H   H1718     1.0  0.41029  0.98364  0.97261  1.0000
  H   H1719     1.0  0.01430  0.54688  0.77341  1.0000
  H   H1720     1.0  0.00486  0.66367  0.98130  1.0000
  C   C980      1.0  0.40220  0.99606  0.97875  1.0000
  H   H1721     1.0  0.02287  0.59428  0.76915  1.0000
  H   H1722     1.0  0.32998  0.98307  0.97764  1.0000
  H   H1723     1.0  0.45169  0.98858  0.85665  1.0000
  S   S216      1.0  0.16413  0.93974  0.99330  1.0000
  H   H1724     1.0  0.01936  0.69594  0.99992  1.0000
  C   C981      1.0  0.26201  0.71764  0.75219  1.0000
  H   H1725     1.0  0.03882  0.59311  0.75250  1.0000
  C   C982      1.0  0.00779  0.84767  0.98062  1.0000
  H   H1726     1.0  0.27730  0.73800  0.75141  1.0000
  Fe  Fe109     1.0  0.20582  0.96831  0.00058  1.0000
  H   H1727     1.0  0.69963  0.08827  0.13122  1.0000
  S   S217      1.0  0.96511  0.25250  0.01630  1.0000
  H   H1728     1.0  0.75221  0.05303  0.09274  1.0000
  Fe  Fe110     1.0  0.96417  0.21251  0.02306  1.0000
  S   S218      1.0  0.92567  0.18085  0.03152  1.0000
  Fe  Fe111     1.0  0.80532  0.03292  0.01759  1.0000
  S   S219      1.0  0.84731  0.06325  0.01279  1.0000
  H   H1729     1.0  0.63656  0.01400  0.18975  1.0000
  S   S220      1.0  0.77209  0.04111  0.02733  1.0000
  C   C983      1.0  0.90315  0.14898  0.02539  1.0000
  H   H1730     1.0  0.92594  0.09489  0.02459  1.0000
  H   H1731     1.0  0.66600  0.04328  0.18759  1.0000
  C   C984      1.0  0.86756  0.09678  0.01754  1.0000
  C   C985      1.0  0.86281  0.10957  0.02954  1.0000
  C   C986      1.0  0.88053  0.13535  0.03345  1.0000
  H   H1732     1.0  0.99921  0.43443  0.06283  1.0000
  H   H1733     1.0  0.89074  0.07233  0.04139  1.0000
  H   H1734     1.0  0.84586  0.09932  0.03605  1.0000
  H   H1735     1.0  0.87687  0.14466  0.04295  1.0000
  H   H1736     1.0  0.96205  0.18366  0.05594  1.0000
  H   H1737     1.0  0.62232  0.03800  0.07751  1.0000
  H   H1738     1.0  0.96221  0.09914  0.05092  1.0000
  C   C987      1.0  0.68828  0.06966  0.11010  1.0000
  H   H1739     1.0  0.59077  0.02232  0.23508  1.0000
  C   C988      1.0  0.88988  0.11064  0.00928  1.0000
  H   H1740     1.0  0.71484  0.02866  0.10902  1.0000
  C   C989      1.0  0.91107  0.07421  0.04403  1.0000
  C   C990      1.0  0.63272  0.01884  0.21947  1.0000
  Fe  Fe112     1.0  0.74911  0.02160  0.00743  1.0000
  C   C991      1.0  0.65621  0.01965  0.09257  1.0000
  H   H1741     1.0  0.80651  0.08571  0.00530  1.0000
  H   H1742     1.0  0.66939  0.05168  0.21364  1.0000
  H   H1743     1.0  0.00229  0.16748  0.01346  1.0000
  C   C992      1.0  0.00236  0.37603  0.03482  1.0000
  H   H1744     1.0  0.91309  0.05569  0.04060  1.0000
  H   H1745     1.0  0.69720  0.10997  0.11726  1.0000
  H   H1746     1.0  0.78960  0.10314  0.02543  1.0000
  N   N55       1.0  0.63842  0.01291  0.23466  1.0000
  H   H1747     1.0  0.82556  0.12031  0.00847  1.0000
  H   H1748     1.0  0.65714  0.03794  0.12082  1.0000
  H   H1749     1.0  0.99672  0.19272  0.05974  1.0000
  C   C993      1.0  0.97702  0.12602  0.01736  1.0000
  H   H1750     1.0  0.96138  0.15390  0.03456  1.0000
  C   C994      1.0  0.64840  0.03390  0.19432  1.0000
  C   C995      1.0  0.95933  0.10097  0.03919  1.0000
  C   C996      1.0  0.90747  0.13654  0.01312  1.0000
  H   H1751     1.0  0.97418  0.10645  0.01259  1.0000
  H   H1752     1.0  0.98197  0.36200  0.03238  1.0000
  C   C997      1.0  0.97804  0.15032  0.03963  1.0000
  C   C998      1.0  0.78524  0.10725  0.01423  1.0000
  C   C999      1.0  0.61291  0.01788  0.08211  1.0000
  C   C1000     1.0  0.67632  0.04106  0.11587  1.0000
  H   H1753     1.0  0.96092  0.08314  0.03430  1.0000
  H   H1754     1.0  0.68929  0.04054  0.12499  1.0000
  H   H1755     1.0  0.92723  0.11577  0.03972  1.0000
  C   C1001     1.0  0.93062  0.09805  0.03623  1.0000
  H   H1756     1.0  0.62247  0.03273  0.21943  1.0000
  C   C1002     1.0  0.59535  0.01375  0.24501  1.0000
  C   C1003     1.0  0.62739  0.01540  0.09579  1.0000
  C   C1004     1.0  0.97670  0.17760  0.06152  1.0000
  C   C1005     1.0  0.73940  0.04015  0.08417  1.0000
  C   C1006     1.0  0.71082  0.03640  0.08635  1.0000
  H   H1757     1.0  0.67712  0.07239  0.10069  1.0000
  H   H1758     1.0  0.74615  0.04957  0.07362  1.0000
  H   H1759     1.0  0.95876  0.12903  0.01451  1.0000
  S   S221      1.0  0.00290  0.23069  0.03546  1.0000
  H   H1760     1.0  0.91411  0.07674  0.05583  1.0000
  C   C1007     1.0  0.69980  0.02071  0.10029  1.0000
  H   H1761     1.0  0.66477  0.03839  0.08654  1.0000
  N   N56       1.0  0.67327  0.01919  0.10529  1.0000
  H   H1762     1.0  0.70986  0.05617  0.08635  1.0000
  C   C1008     1.0  0.65693  0.03149  0.20975  1.0000
  H   H1763     1.0  0.69935  0.02522  0.07688  1.0000
  H   H1764     1.0  0.98954  0.40200  0.04688  1.0000
  H   H1765     1.0  0.66915  0.01956  0.20943  1.0000
  H   H1766     1.0  0.98987  0.14574  0.06197  1.0000
  H   H1767     1.0  0.00150  0.08430  0.03561  1.0000
  C   C1009     1.0  0.99956  0.14766  0.00934  1.0000
  C   C1010     1.0  0.68815  0.08958  0.12157  1.0000
  H   H1768     1.0  0.70904  0.07476  0.10716  1.0000
  H   H1769     1.0  0.78456  0.12722  0.01394  1.0000
  H   H1770     1.0  0.74143  0.02076  0.08424  1.0000
  H   H1771     1.0  0.67519  0.00793  0.23199  1.0000
  H   H1772     1.0  0.66772  0.08591  0.12472  1.0000
  C   C1011     1.0  0.80648  0.10586  0.00433  1.0000
  H   H1773     1.0  0.00105  0.40234  0.07829  1.0000
  H   H1774     1.0  0.64358  0.05266  0.24109  1.0000
  H   H1775     1.0  0.99479  0.37666  0.05721  1.0000
  C   C1012     1.0  0.65364  0.03867  0.24234  1.0000
  H   H1776     1.0  0.67315  0.04879  0.23736  1.0000
  C   C1013     1.0  0.97467  0.15053  0.05616  1.0000
  H   H1777     1.0  0.97284  0.17673  0.07321  1.0000
  H   H1778     1.0  0.76570  0.09221  0.01099  1.0000
  H   H1779     1.0  0.90738  0.21864  0.00923  1.0000
  H   H1780     1.0  0.62651  0.03024  0.10363  1.0000
  H   H1781     1.0  0.99666  0.40045  0.10474  1.0000
  N   N57       1.0  0.98029  0.12579  0.03346  1.0000
  H   H1782     1.0  0.99570  0.16822  0.03697  1.0000
  H   H1783     1.0  0.63659  0.04631  0.19391  1.0000
  H   H1784     1.0  0.95511  0.13589  0.05924  1.0000
  S   S222      1.0  0.98350  0.20657  0.00322  1.0000
  H   H1785     1.0  0.59222  0.01428  0.08463  1.0000
  H   H1786     1.0  0.92462  0.14667  0.00674  1.0000
  H   H1787     1.0  0.99265  0.47749  0.06885  1.0000
  C   C1014     1.0  0.00286  0.39144  0.04859  1.0000
  H   H1788     1.0  0.65553  0.00416  0.08471  1.0000
  H   H1789     1.0  0.82985  0.28011  0.29251  1.0000
  C   C1015     1.0  0.99192  0.36910  0.31246  1.0000
  H   H1790     1.0  0.76746  0.11676  0.43125  1.0000
  Fe  Fe113     1.0  0.92561  0.32767  0.33078  1.0000
  S   S223      1.0  0.94232  0.36079  0.34670  1.0000
  S   S224      1.0  0.94216  0.32996  0.30832  1.0000
  Fe  Fe114     1.0  0.87889  0.29560  0.35008  1.0000
  S   S225      1.0  0.89265  0.32785  0.36702  1.0000
  S   S226      1.0  0.84226  0.25988  0.35698  1.0000
  Fe  Fe115     1.0  0.90084  0.35764  0.34912  1.0000
  S   S227      1.0  0.88564  0.39098  0.34614  1.0000
  Fe  Fe116     1.0  0.93282  0.32806  0.36311  1.0000
  S   S228      1.0  0.96240  0.33025  0.38091  1.0000
  S   S229      1.0  0.88414  0.32525  0.33250  1.0000
  S   S230      1.0  0.91909  0.29498  0.34690  1.0000
  Fe  Fe117     1.0  0.66885  0.07265  0.32616  1.0000
  S   S231      1.0  0.65476  0.06014  0.34858  1.0000
  S   S232      1.0  0.64279  0.04834  0.30755  1.0000
  Fe  Fe118     1.0  0.71253  0.12561  0.33734  1.0000
  S   S233      1.0  0.70027  0.11636  0.36031  1.0000
  S   S234      1.0  0.74717  0.16157  0.32865  1.0000
  Fe  Fe119     1.0  0.69753  0.07506  0.35525  1.0000
  S   S235      1.0  0.71841  0.05104  0.36632  1.0000
  Fe  Fe120     1.0  0.65829  0.10213  0.35156  1.0000
  S   S236      1.0  0.62557  0.11239  0.36148  1.0000
  S   S237      1.0  0.71140  0.08484  0.33247  1.0000
  S   S238      1.0  0.67089  0.11429  0.32901  1.0000
  H   H1791     1.0  0.77765  0.24634  0.33666  1.0000
  C   C1016     1.0  0.78044  0.35231  0.32020  1.0000
  H   H1792     1.0  0.95400  0.24449  0.46170  1.0000
  H   H1793     1.0  0.55174  0.48489  0.37007  1.0000
  S   S239      1.0  0.97252  0.22906  0.41012  1.0000
  H   H1794     1.0  0.59408  0.48953  0.38777  1.0000
  S   S240      1.0  0.97608  0.13304  0.45183  1.0000
  S   S241      1.0  0.97367  0.20244  0.44847  1.0000
  Fe  Fe121     1.0  0.82967  0.03827  0.43945  1.0000
  S   S242      1.0  0.80023  0.05057  0.45017  1.0000
  S   S243      1.0  0.85991  0.07245  0.42760  1.0000
  C   C1017     1.0  0.66392  0.01421  0.29592  1.0000
  H   H1795     1.0  0.70563  0.22015  0.34562  1.0000
  C   C1018     1.0  0.74274  0.02188  0.40134  1.0000
  H   H1796     1.0  0.63853  0.01187  0.33245  1.0000
  H   H1797     1.0  0.77194  0.13969  0.35919  1.0000
  H   H1798     1.0  0.52484  0.01993  0.37512  1.0000
  C   C1019     1.0  0.94372  0.11656  0.44512  1.0000
  C   C1020     1.0  0.92871  0.09089  0.44986  1.0000
  C   C1021     1.0  0.90277  0.07735  0.44482  1.0000
  C   C1022     1.0  0.89196  0.08916  0.43468  1.0000
  C   C1023     1.0  0.90710  0.11472  0.42980  1.0000
  C   C1024     1.0  0.93275  0.12855  0.43516  1.0000
  H   H1799     1.0  0.93723  0.08142  0.45743  1.0000
  H   H1800     1.0  0.89140  0.05753  0.44849  1.0000
  H   H1801     1.0  0.89897  0.12389  0.42185  1.0000
  H   H1802     1.0  0.94426  0.14822  0.43131  1.0000
  H   H1803     1.0  0.84753  0.28156  0.30910  1.0000
  H   H1804     1.0  0.95565  0.29187  0.43072  1.0000
  H   H1805     1.0  0.94189  0.25057  0.49168  1.0000
  C   C1025     1.0  0.72243  0.04276  0.38439  1.0000
  C   C1026     1.0  0.73883  0.02905  0.38723  1.0000
  C   C1027     1.0  0.94156  0.25636  0.46201  1.0000
  C   C1028     1.0  0.67275  0.06373  0.26548  1.0000
  C   C1029     1.0  0.71322  0.04137  0.40992  1.0000
  C   C1030     1.0  0.70965  0.04895  0.39582  1.0000
  C   C1031     1.0  0.92732  0.23326  0.48587  1.0000
  C   C1032     1.0  0.78474  0.10011  0.40633  1.0000
  H   H1806     1.0  0.60076  0.00848  0.29210  1.0000
  H   H1807     1.0  0.69679  0.05929  0.39380  1.0000
  C   C1033     1.0  0.96509  0.30192  0.38886  1.0000
  C   C1034     1.0  0.94697  0.27631  0.38581  1.0000
  C   C1035     1.0  0.94960  0.25434  0.39245  1.0000
  C   C1036     1.0  0.97037  0.25763  0.40217  1.0000
  C   C1037     1.0  0.98870  0.28322  0.40507  1.0000
  C   C1038     1.0  0.98596  0.30524  0.39852  1.0000
  H   H1808     1.0  0.93081  0.27342  0.37842  1.0000
  H   H1809     1.0  0.93541  0.23463  0.39003  1.0000
  S   S244      1.0  0.81209  0.04247  0.49104  1.0000
  S   S245      1.0  0.50813  0.07525  0.33630  1.0000
  C   C1039     1.0  0.81704  0.23161  0.34895  1.0000
  C   C1040     1.0  0.79631  0.21534  0.35755  1.0000
  C   C1041     1.0  0.77511  0.19354  0.35164  1.0000
  C   C1042     1.0  0.77424  0.18774  0.33696  1.0000
  C   C1043     1.0  0.79505  0.20394  0.32837  1.0000
  C   C1044     1.0  0.81641  0.22557  0.33431  1.0000
  H   H1810     1.0  0.79648  0.21978  0.36887  1.0000
  H   H1811     1.0  0.75921  0.18150  0.35838  1.0000
  H   H1812     1.0  0.79463  0.19969  0.31701  1.0000
  H   H1813     1.0  0.83219  0.23770  0.32753  1.0000
  C   C1045     1.0  0.92421  0.48276  0.34801  1.0000
  C   C1046     1.0  0.89956  0.46959  0.34148  1.0000
  C   C1047     1.0  0.88827  0.44160  0.34089  1.0000
  C   C1048     1.0  0.90146  0.42631  0.34667  1.0000
  C   C1049     1.0  0.92624  0.43950  0.35303  1.0000
  C   C1050     1.0  0.93748  0.46747  0.35369  1.0000
  H   H1814     1.0  0.98263  0.33742  0.34506  1.0000
  H   H1815     1.0  0.86903  0.43172  0.33601  1.0000
  H   H1816     1.0  0.93645  0.42810  0.35775  1.0000
  H   H1817     1.0  0.95649  0.47734  0.35883  1.0000
  C   C1051     1.0  0.54104  0.08733  0.34309  1.0000
  C   C1052     1.0  0.55885  0.07794  0.33684  1.0000
  C   C1053     1.0  0.58477  0.08566  0.34221  1.0000
  C   C1054     1.0  0.59327  0.10282  0.35402  1.0000
  C   C1055     1.0  0.57550  0.11236  0.36025  1.0000
  C   C1056     1.0  0.54961  0.10485  0.35476  1.0000
  H   H1818     1.0  0.55254  0.06446  0.32778  1.0000
  H   H1819     1.0  0.59815  0.07819  0.33726  1.0000
  H   H1820     1.0  0.58187  0.12567  0.36937  1.0000
  H   H1821     1.0  0.53629  0.11241  0.35963  1.0000
  C   C1057     1.0  0.53804  0.43402  0.34602  1.0000
  C   C1058     1.0  0.56129  0.44489  0.33804  1.0000
  C   C1059     1.0  0.58094  0.47001  0.34149  1.0000
  C   C1060     1.0  0.57780  0.48470  0.35310  1.0000
  C   C1061     1.0  0.55454  0.47386  0.36107  1.0000
  C   C1062     1.0  0.53483  0.44880  0.35757  1.0000
  C   C1063     1.0  0.96904  0.47649  0.31343  1.0000
  H   H1822     1.0  0.68257  0.02721  0.30047  1.0000
  C   C1064     1.0  0.71431  0.01598  0.32586  1.0000
  C   C1065     1.0  0.99483  0.43211  0.34511  1.0000
  C   C1066     1.0  0.98114  0.35112  0.28846  1.0000
  C   C1067     1.0  0.97380  0.35173  0.30281  1.0000
  H   H1823     1.0  0.87968  0.15070  0.46929  1.0000
  H   H1824     1.0  0.96730  0.33765  0.28091  1.0000
  H   H1825     1.0  0.71664  0.22510  0.32734  1.0000
  H   H1826     1.0  0.95804  0.30498  0.44847  1.0000
  C   C1068     1.0  0.64181  0.02033  0.29757  1.0000
  H   H1827     1.0  0.56665  0.46412  0.30751  1.0000
  H   H1828     1.0  0.69067  0.01853  0.34327  1.0000
  C   C1069     1.0  0.98585  0.28716  0.44359  1.0000
  H   H1829     1.0  0.94230  0.45206  0.29700  1.0000
  H   H1830     1.0  0.82921  0.02935  0.37973  1.0000
  C   C1070     1.0  0.74324  0.25285  0.34290  1.0000
  H   H1831     1.0  0.95529  0.28293  0.29973  1.0000
  H   H1832     1.0  0.93430  0.27145  0.31511  1.0000
  H   H1833     1.0  0.72750  0.03722  0.32673  1.0000
  C   C1071     1.0  0.57424  0.20113  0.34532  1.0000
  H   H1834     1.0  0.65983  0.07498  0.26484  1.0000
  N   N58       1.0  0.78805  0.28865  0.33522  1.0000
  H   H1835     1.0  0.96158  0.39923  0.32369  1.0000
  H   H1836     1.0  0.83130  0.30607  0.37372  1.0000
  H   H1837     1.0  0.86081  0.26190  0.43616  1.0000
  H   H1838     1.0  0.55184  0.48507  0.29965  1.0000
  C   C1072     1.0  0.52316  0.01508  0.35227  1.0000
  H   H1839     1.0  0.77740  0.29314  0.35710  1.0000
  C   C1073     1.0  0.91808  0.24201  0.47198  1.0000
  H   H1840     1.0  0.00067  0.45699  0.32677  1.0000
  C   C1074     1.0  0.97374  0.27197  0.31809  1.0000
  C   C1075     1.0  0.87589  0.15354  0.39150  1.0000
  H   H1841     1.0  0.00126  0.37450  0.36197  1.0000
  H   H1842     1.0  0.76394  0.31139  0.33781  1.0000
  H   H1843     1.0  0.51655  0.07215  0.37932  1.0000
  H   H1844     1.0  0.59992  0.18536  0.33446  1.0000
  C   C1076     1.0  0.50820  0.17991  0.34762  1.0000
  C   C1077     1.0  0.92630  0.13662  0.48082  1.0000
  H   H1845     1.0  0.55766  0.00806  0.25420  1.0000
  H   H1846     1.0  0.84557  0.13405  0.47394  1.0000
  C   C1078     1.0  0.78652  0.12374  0.37715  1.0000
  H   H1847     1.0  0.89896  0.47011  0.38291  1.0000
  H   H1848     1.0  0.89208  0.15610  0.38396  1.0000
  H   H1849     1.0  0.00024  0.32495  0.40083  1.0000
  H   H1850     1.0  0.89952  0.26011  0.42368  1.0000
  H   H1851     1.0  0.56420  0.43367  0.32916  1.0000
  H   H1852     1.0  0.73158  0.21020  0.34015  1.0000
  C   C1079     1.0  0.89249  0.04595  0.48921  1.0000
  H   H1853     1.0  0.76145  0.29716  0.32056  1.0000
  C   C1080     1.0  0.53654  0.22467  0.33837  1.0000
  H   H1854     1.0  0.93194  0.44467  0.31489  1.0000
  H   H1855     1.0  0.61204  0.47916  0.40104  1.0000
  C   C1081     1.0  0.77579  0.30701  0.32937  1.0000
  H   H1856     1.0  0.87006  0.17069  0.39031  1.0000
  H   H1857     1.0  0.94150  0.24822  0.30403  1.0000
  H   H1858     1.0  0.81006  0.33713  0.35318  1.0000
  H   H1859     1.0  0.85998  0.11150  0.38939  1.0000
  H   H1860     1.0  0.79137  0.05833  0.40214  1.0000
  H   H1861     1.0  0.76044  0.10419  0.35913  1.0000
  H   H1862     1.0  0.78250  0.11941  0.40592  1.0000
  H   H1863     1.0  0.59865  0.47783  0.33527  1.0000
  H   H1864     1.0  0.83798  0.12207  0.40935  1.0000
  H   H1865     1.0  0.96257  0.42272  0.27716  1.0000
  C   C1082     1.0  0.82389  0.32175  0.37109  1.0000
  H   H1866     1.0  0.95362  0.27484  0.46800  1.0000
  C   C1083     1.0  0.52649  0.26577  0.34216  1.0000
  H   H1867     1.0  0.82702  0.31127  0.32710  1.0000
  C   C1084     1.0  0.95796  0.28758  0.44222  1.0000
  H   H1868     1.0  0.84217  0.04595  0.39653  1.0000
  C   C1085     1.0  0.91088  0.21366  0.43908  1.0000
  C   C1086     1.0  0.77770  0.12277  0.36145  1.0000
  C   C1087     1.0  0.76833  0.26040  0.33377  1.0000
  H   H1869     1.0  0.89376  0.25154  0.45043  1.0000
  C   C1088     1.0  0.51840  0.18520  0.36334  1.0000
  C   C1089     1.0  0.90908  0.19413  0.42699  1.0000
  C   C1090     1.0  0.87702  0.28032  0.43269  1.0000
  C   C1091     1.0  0.82454  0.03857  0.38935  1.0000
  H   H1870     1.0  0.87105  0.12744  0.44596  1.0000
  H   H1871     1.0  0.90072  0.15374  0.49016  1.0000
  H   H1872     1.0  0.87479  0.03297  0.49505  1.0000
  H   H1873     1.0  0.97601  0.45754  0.28168  1.0000
  H   H1874     1.0  0.98806  0.48267  0.30786  1.0000
  H   H1875     1.0  0.84669  0.12850  0.37680  1.0000
  N   N59       1.0  0.93548  0.26277  0.44689  1.0000
  H   H1876     1.0  0.89161  0.21542  0.43955  1.0000
  Fe  Fe122     1.0  0.99654  0.17673  0.44709  1.0000
  H   H1877     1.0  0.77317  0.35736  0.33038  1.0000
  H   H1878     1.0  0.88340  0.15328  0.40260  1.0000
  H   H1879     1.0  0.79134  0.07619  0.42392  1.0000
  H   H1880     1.0  0.52463  0.11635  0.38950  1.0000
  C   C1092     1.0  0.83362  0.28868  0.30351  1.0000
  N   N60       1.0  0.52710  0.19507  0.33619  1.0000
  C   C1093     1.0  0.65925  0.03640  0.25855  1.0000
  C   C1094     1.0  0.80781  0.28007  0.31161  1.0000
  H   H1881     1.0  0.92744  0.19041  0.42651  1.0000
  C   C1095     1.0  0.55005  0.18654  0.33544  1.0000
  H   H1882     1.0  0.90573  0.20191  0.41647  1.0000
  H   H1883     1.0  0.67693  0.06155  0.27700  1.0000
  H   H1884     1.0  0.87173  0.28581  0.42197  1.0000
  H   H1885     1.0  0.72343  0.00432  0.33201  1.0000
  H   H1886     1.0  0.80653  0.31900  0.37776  1.0000
  H   H1887     1.0  0.91035  0.22349  0.49297  1.0000
  C   C1096     1.0  0.82988  0.12333  0.39851  1.0000
  H   H1888     1.0  0.76155  0.25578  0.32242  1.0000
  H   H1889     1.0  0.64095  0.02591  0.26446  1.0000
  H   H1890     1.0  0.82586  0.14171  0.39879  1.0000
  H   H1891     1.0  0.86376  0.07241  0.49941  1.0000
  H   H1892     1.0  0.95055  0.42315  0.33066  1.0000
  H   H1893     1.0  0.79423  0.37096  0.31537  1.0000
  H   H1894     1.0  0.95502  0.50044  0.29949  1.0000
  C   C1097     1.0  0.55029  0.46433  0.30051  1.0000
  H   H1895     1.0  0.98792  0.31485  0.31662  1.0000
  H   H1896     1.0  0.88900  0.48093  0.33708  1.0000
  H   H1897     1.0  0.53857  0.27104  0.35218  1.0000
  H   H1898     1.0  0.93659  0.21902  0.48351  1.0000
  H   H1899     1.0  0.89257  0.17495  0.42895  1.0000
  H   H1900     1.0  0.96645  0.16253  0.47615  1.0000
  H   H1901     1.0  0.90545  0.08111  0.47649  1.0000
  H   H1902     1.0  0.80038  0.27796  0.35552  1.0000
  H   H1903     1.0  0.77558  0.08158  0.37912  1.0000
  C   C1098     1.0  0.98221  0.43242  0.29853  1.0000
  H   H1904     1.0  0.79950  0.05299  0.37737  1.0000
  H   H1905     1.0  0.58352  0.16665  0.34994  1.0000
  H   H1906     1.0  0.55811  0.18937  0.32437  1.0000
  H   H1907     1.0  0.93234  0.24688  0.42531  1.0000
  C   C1099     1.0  0.85269  0.12760  0.38811  1.0000
  H   H1908     1.0  0.52346  0.45389  0.31805  1.0000
  C   C1100     1.0  0.98525  0.29990  0.32513  1.0000
  H   H1909     1.0  0.80255  0.33042  0.31270  1.0000
  C   C1101     1.0  0.99306  0.43554  0.32892  1.0000
  H   H1910     1.0  0.89289  0.49494  0.37263  1.0000
  H   H1911     1.0  0.96950  0.30122  0.33197  1.0000
  H   H1912     1.0  0.76508  0.08472  0.40345  1.0000
  C   C1102     1.0  0.79039  0.09584  0.42233  1.0000
  N   N61       1.0  0.80488  0.09946  0.39568  1.0000
  H   H1913     1.0  0.87919  0.29658  0.44037  1.0000
  C   C1103     1.0  0.51474  0.23581  0.33983  1.0000
  C   C1104     1.0  0.93349  0.24080  0.43660  1.0000
  C   C1105     1.0  0.81236  0.29065  0.32728  1.0000
  H   H1914     1.0  0.53069  0.04961  0.36508  1.0000
  H   H1915     1.0  0.80353  0.14271  0.37888  1.0000
  H   H1916     1.0  0.91456  0.20483  0.44916  1.0000
  H   H1917     1.0  0.98678  0.28681  0.35197  1.0000
  C   C1106     1.0  0.51272  0.18870  0.32186  1.0000
  Fe  Fe123     1.0  0.99650  0.22337  0.42916  1.0000
  C   C1107     1.0  0.93660  0.40271  0.30175  1.0000
  H   H1918     1.0  0.83959  0.34127  0.37380  1.0000
  C   C1108     1.0  0.91178  0.39038  0.31110  1.0000
  H   H1919     1.0  0.51235  0.03718  0.39435  1.0000
  C   C1109     1.0  0.89044  0.36746  0.30320  1.0000
  H   H1920     1.0  0.74954  0.08147  0.42892  1.0000
  H   H1921     1.0  0.92958  0.40736  0.29127  1.0000
  C   C1110     1.0  0.91092  0.26861  0.44656  1.0000
  C   C1111     1.0  0.76879  0.09710  0.43199  1.0000
  H   H1922     1.0  0.98822  0.26842  0.31119  1.0000
  H   H1923     1.0  0.91646  0.38248  0.32125  1.0000
  H   H1924     1.0  0.90319  0.40497  0.31382  1.0000
  H   H1925     1.0  0.73393  0.26737  0.34149  1.0000
  H   H1926     1.0  0.76996  0.12363  0.38379  1.0000
  H   H1927     1.0  0.87274  0.35947  0.30997  1.0000
  H   H1928     1.0  0.88482  0.37427  0.29293  1.0000
  H   H1929     1.0  0.89739  0.35135  0.30097  1.0000
  C   C1112     1.0  0.73008  0.02813  0.41279  1.0000
  H   H1930     1.0  0.56876  0.20276  0.35652  1.0000
  H   H1931     1.0  0.71241  0.01001  0.31437  1.0000
  H   H1932     1.0  0.80735  0.09879  0.37240  1.0000
  C   C1113     1.0  0.79467  0.33378  0.32307  1.0000
  C   C1114     1.0  0.88196  0.08632  0.49431  1.0000
  C   C1115     1.0  0.89798  0.48995  0.38352  1.0000
  H   H1933     1.0  0.83894  0.09931  0.49724  1.0000
  H   H1934     1.0  0.82450  0.07710  0.40656  1.0000
  H   H1935     1.0  0.54450  0.01962  0.35143  1.0000
  H   H1936     1.0  0.77320  0.09375  0.44331  1.0000
  C   C1116     1.0  0.90269  0.27605  0.43171  1.0000
  H   H1937     1.0  0.84275  0.31057  0.30267  1.0000
  C   C1117     1.0  0.94975  0.26851  0.30868  1.0000
  C   C1118     1.0  0.81684  0.32083  0.35513  1.0000
  H   H1938     1.0  0.89635  0.03409  0.48052  1.0000
  H   H1939     1.0  0.80916  0.11120  0.42620  1.0000
  H   H1940     1.0  0.58510  0.22149  0.34127  1.0000
  H   H1941     1.0  0.90307  0.22432  0.46683  1.0000
  H   H1942     1.0  0.53128  0.17428  0.36558  1.0000
  S   S246      1.0  0.00022  0.24982  0.48156  1.0000
  H   H1943     1.0  0.93276  0.12016  0.48285  1.0000
  H   H1944     1.0  0.99999  0.26711  0.34241  1.0000
  H   H1945     1.0  0.83513  0.32461  0.34918  1.0000
  C   C1119     1.0  0.94930  0.44939  0.30792  1.0000
  H   H1946     1.0  0.79422  0.28708  0.30568  1.0000
  H   H1947     1.0  0.83312  0.07563  0.37872  1.0000
  H   H1948     1.0  0.98659  0.36969  0.32352  1.0000
  H   H1949     1.0  0.62904  0.49869  0.38601  1.0000
  H   H1950     1.0  0.97219  0.47558  0.32517  1.0000
  N   N62       1.0  0.95860  0.42688  0.30790  1.0000
  H   H1951     1.0  0.84935  0.14444  0.44845  1.0000
  H   H1952     1.0  0.90971  0.05299  0.49666  1.0000
  H   H1953     1.0  0.74809  0.25198  0.35445  1.0000
  H   H1954     1.0  0.96731  0.25641  0.32642  1.0000
  C   C1120     1.0  0.79482  0.29392  0.35100  1.0000
  H   H1955     1.0  0.79913  0.25806  0.31158  1.0000
  H   H1956     1.0  0.79385  0.12408  0.35415  1.0000
  C   C1121     1.0  0.97913  0.43877  0.28257  1.0000
  H   H1957     1.0  0.99010  0.28146  0.45446  1.0000
  H   H1958     1.0  0.53873  0.27586  0.33291  1.0000
  H   H1959     1.0  0.91772  0.29470  0.42764  1.0000
  C   C1122     1.0  0.86778  0.10824  0.47432  1.0000
  H   H1960     1.0  0.81165  0.34430  0.33024  1.0000
  Fe  Fe124     1.0  0.80238  0.02517  0.46855  1.0000
  H   H1961     1.0  0.51718  0.44089  0.36384  1.0000
  H   H1962     1.0  0.82255  0.27958  0.33308  1.0000
  C   C1123     1.0  0.86217  0.13194  0.46827  1.0000
  H   H1963     1.0  0.98797  0.27292  0.43578  1.0000
  C   C1124     1.0  0.88792  0.06936  0.48263  1.0000
  H   H1964     1.0  0.69163  0.07509  0.26016  1.0000
  S   S247      1.0  0.73387  0.01880  0.43070  1.0000
  C   C1125     1.0  0.85446  0.12788  0.45236  1.0000
  H   H1965     1.0  0.55244  0.45690  0.28971  1.0000
  H   H1966     1.0  0.84902  0.09041  0.47355  1.0000
  H   H1967     1.0  0.88114  0.10439  0.46668  1.0000
  H   H1968     1.0  0.98804  0.41511  0.29876  1.0000
  H   H1969     1.0  0.76364  0.34298  0.31263  1.0000
  H   H1970     1.0  0.70301  0.04595  0.41868  1.0000
  C   C1126     1.0  0.52405  0.44673  0.30697  1.0000
  C   C1127     1.0  0.72310  0.22543  0.33870  1.0000
  C   C1128     1.0  0.80937  0.07416  0.39801  1.0000
  H   H1971     1.0  0.92012  0.13615  0.46941  1.0000
  H   H1972     1.0  0.95177  0.23706  0.43707  1.0000
  H   H1973     1.0  0.54922  0.23139  0.34808  1.0000
  H   H1974     1.0  0.54934  0.23511  0.32932  1.0000
  C   C1129     1.0  0.79373  0.09974  0.38080  1.0000
  C   C1130     1.0  0.81671  0.06132  0.38479  1.0000
  H   H1975     1.0  0.87103  0.06108  0.47503  1.0000
  C   C1131     1.0  0.61304  0.49555  0.39378  1.0000
  H   H1976     1.0  0.94381  0.38668  0.29955  1.0000
  C   C1132     1.0  0.95034  0.16229  0.48320  1.0000
  C   C1133     1.0  0.96463  0.42050  0.32299  1.0000
  H   H1977     1.0  0.91329  0.28513  0.45417  1.0000
  H   H1978     1.0  0.67988  0.02505  0.32610  1.0000
  H   H1979     1.0  0.90848  0.25571  0.47497  1.0000
  H   H1980     1.0  0.83721  0.10904  0.45062  1.0000
  H   H1981     1.0  0.51678  0.02277  0.34251  1.0000
  N   N63       1.0  0.87860  0.11130  0.48951  1.0000
  C   C1134     1.0  0.59317  0.18687  0.34548  1.0000
  H   H1982     1.0  0.93943  0.49308  0.31678  1.0000
  H   H1983     1.0  0.65318  0.00412  0.35537  1.0000
  H   H1984     1.0  0.88228  0.48899  0.39108  1.0000
  H   H1985     1.0  0.67235  0.02554  0.26013  1.0000
  H   H1986     1.0  0.52945  0.20647  0.36565  1.0000
  H   H1987     1.0  0.98270  0.44098  0.35083  1.0000
  H   H1988     1.0  0.00132  0.27442  0.37513  1.0000
  H   H1989     1.0  0.80819  0.02319  0.39507  1.0000
  H   H1990     1.0  0.52371  0.42639  0.30759  1.0000
  S   S248      1.0  0.51370  0.40235  0.34077  1.0000
  S   S249      1.0  0.83425  0.01556  0.45852  1.0000
  H   H1991     1.0  0.74857  0.02388  0.37845  1.0000
  C   C1135     1.0  0.51819  0.02828  0.36574  1.0000
  C   C1136     1.0  0.68751  0.01189  0.33197  1.0000
  H   H1992     1.0  0.61061  0.19800  0.35231  1.0000
  H   H1993     1.0  0.98815  0.41087  0.34788  1.0000
  H   H1994     1.0  0.94567  0.17971  0.48052  1.0000
  H   H1995     1.0  0.54330  0.16488  0.33754  1.0000
  H   H1996     1.0  0.60527  0.03008  0.25276  1.0000
  Fe  Fe125     1.0  0.77015  0.01395  0.44015  1.0000
  C   C1137     1.0  0.00229  0.34122  0.34976  1.0000
  H   H1997     1.0  0.52486  0.20204  0.31339  1.0000
  H   H1998     1.0  0.99957  0.44929  0.30270  1.0000
  C   C1138     1.0  0.90410  0.13507  0.49116  1.0000
  H   H1999     1.0  0.85649  0.13421  0.49666  1.0000
  H   H2000     1.0  0.59772  0.02127  0.32953  1.0000
  C   C1139     1.0  0.95827  0.49804  0.31110  1.0000
  H   H2001     1.0  0.75533  0.01123  0.40334  1.0000
  C   C1140     1.0  0.85869  0.11535  0.49917  1.0000
  H   H2002     1.0  0.51037  0.27303  0.34316  1.0000
  H   H2003     1.0  0.99974  0.32918  0.35957  1.0000
  H   H2004     1.0  0.95745  0.16396  0.49451  1.0000
  C   C1141     1.0  0.00251  0.23671  0.49866  1.0000
  C   C1142     1.0  0.50458  0.15985  0.31628  1.0000
  H   H2005     1.0  0.52173  0.15432  0.31506  1.0000
  H   H2006     1.0  0.00206  0.44798  0.26306  1.0000
  H   H2007     1.0  0.50411  0.16951  0.29357  1.0000
  C   C1143     1.0  0.00382  0.44188  0.27426  1.0000
  H   H2008     1.0  0.00375  0.32148  0.42975  1.0000
  C   C1144     1.0  0.61794  0.00378  0.29102  1.0000
  Fe  Fe126     1.0  0.98153  0.19852  0.59428  1.0000
  S   S250      1.0  0.97962  0.22866  0.57837  1.0000
  S   S251      1.0  0.94887  0.16781  0.60683  1.0000
  H   H2009     1.0  0.53674  0.01364  0.74456  1.0000
  H   H2010     1.0  0.91689  0.09367  0.58660  1.0000
  H   H2011     1.0  0.98255  0.20625  0.63250  1.0000
  H   H2012     1.0  0.95217  0.13013  0.57464  1.0000
  H   H2013     1.0  0.98478  0.26131  0.69617  1.0000
  H   H2014     1.0  0.92412  0.25532  0.63923  1.0000
  H   H2015     1.0  0.51996  0.41727  0.72339  1.0000
  H   H2016     1.0  0.89747  0.09094  0.50282  1.0000
  H   H2017     1.0  0.93048  0.03611  0.59416  1.0000
  H   H2018     1.0  0.60466  0.18936  0.74129  1.0000
  H   H2019     1.0  0.80089  0.03543  0.54297  1.0000
  Fe  Fe127     1.0  0.77084  0.00714  0.56937  1.0000
  Fe  Fe128     1.0  0.81106  0.05329  0.58580  1.0000
  S   S252      1.0  0.83626  0.09651  0.58102  1.0000
  S   S253      1.0  0.76693  0.03878  0.58354  1.0000
  S   S254      1.0  0.93580  0.36582  0.73721  1.0000
  C   C1145     1.0  0.60770  0.17262  0.74642  1.0000
  H   H2020     1.0  0.67074  0.02515  0.64973  1.0000
  S   S255      1.0  0.80924  0.02862  0.60528  1.0000
  H   H2021     1.0  0.88587  0.06874  0.54134  1.0000
  C   C1146     1.0  0.68417  0.00613  0.69281  1.0000
  C   C1147     1.0  0.65335  0.04914  0.73200  1.0000
  H   H2022     1.0  0.97428  0.27592  0.61189  1.0000
  C   C1148     1.0  0.88098  0.07009  0.56452  1.0000
  H   H2023     1.0  0.87538  0.06246  0.59340  1.0000
  H   H2024     1.0  0.86742  0.02798  0.59252  1.0000
  C   C1149     1.0  0.79225  0.02721  0.53273  1.0000
  H   H2025     1.0  0.79506  0.44072  0.71953  1.0000
  C   C1150     1.0  0.96955  0.38076  0.73270  1.0000
  C   C1151     1.0  0.79452  0.02785  0.50658  1.0000
  H   H2026     1.0  0.68524  0.09078  0.70412  1.0000
  H   H2027     1.0  0.96073  0.38466  0.71042  1.0000
  H   H2028     1.0  0.92065  0.28933  0.70868  1.0000
  H   H2029     1.0  0.95099  0.47254  0.73568  1.0000
  H   H2030     1.0  0.85828  0.20210  0.64418  1.0000
  H   H2031     1.0  0.82464  0.05399  0.52069  1.0000
  C   C1152     1.0  0.98457  0.46381  0.73089  1.0000
  H   H2032     1.0  0.70545  0.01309  0.66394  1.0000
  C   C1153     1.0  0.97497  0.30170  0.70887  1.0000
  C   C1154     1.0  0.87073  0.04088  0.62056  1.0000
  H   H2033     1.0  0.96778  0.34139  0.61247  1.0000
  N   N64       1.0  0.00299  0.31818  0.70488  1.0000
  H   H2034     1.0  0.72299  0.06395  0.69582  1.0000
  H   H2035     1.0  0.60918  0.06969  0.72924  1.0000
  H   H2036     1.0  0.98617  0.28205  0.68110  1.0000
  C   C1155     1.0  0.91840  0.14698  0.59911  1.0000
  C   C1156     1.0  0.90052  0.12694  0.60749  1.0000
  C   C1157     1.0  0.87556  0.11082  0.60196  1.0000
  C   C1158     1.0  0.86818  0.11476  0.58802  1.0000
  C   C1159     1.0  0.88617  0.13464  0.57960  1.0000
  C   C1160     1.0  0.91130  0.15048  0.58504  1.0000
  H   H2037     1.0  0.90582  0.12416  0.61841  1.0000
  H   H2038     1.0  0.86166  0.09597  0.60863  1.0000
  H   H2039     1.0  0.88053  0.13793  0.56883  1.0000
  H   H2040     1.0  0.92490  0.16580  0.57847  1.0000
  H   H2041     1.0  0.90736  0.06879  0.61314  1.0000
  H   H2042     1.0  0.61339  0.15833  0.72553  1.0000
  H   H2043     1.0  0.73244  0.04060  0.64464  1.0000
  H   H2044     1.0  0.93907  0.08618  0.56289  1.0000
  C   C1161     1.0  0.88410  0.04738  0.59431  1.0000
  N   N65       1.0  0.93606  0.24799  0.61817  1.0000
  C   C1162     1.0  0.94797  0.22819  0.62193  1.0000
  C   C1163     1.0  0.92526  0.24356  0.60291  1.0000
  H   H2045     1.0  0.90560  0.26084  0.62498  1.0000
  C   C1164     1.0  0.92918  0.02269  0.57239  1.0000
  C   C1165     1.0  0.89245  0.22018  0.63085  1.0000
  C   C1166     1.0  0.96041  0.23069  0.63720  1.0000
  H   H2046     1.0  0.72969  0.07262  0.67129  1.0000
  C   C1167     1.0  0.91348  0.21464  0.59713  1.0000
  C   C1168     1.0  0.89924  0.21285  0.58274  1.0000
  C   C1169     1.0  0.87475  0.22164  0.64300  1.0000
  C   C1170     1.0  0.86480  0.11645  0.51557  1.0000
  H   H2047     1.0  0.96339  0.22950  0.61405  1.0000
  H   H2048     1.0  0.93330  0.20760  0.62089  1.0000
  H   H2049     1.0  0.91011  0.25212  0.60147  1.0000
  H   H2050     1.0  0.94100  0.25436  0.59517  1.0000
  H   H2051     1.0  0.66301  0.04419  0.69118  1.0000
  C   C1171     1.0  0.74125  0.05601  0.65306  1.0000
  H   H2052     1.0  0.85637  0.02044  0.61828  1.0000
  C   C1172     1.0  0.91516  0.24734  0.62858  1.0000
  H   H2053     1.0  0.89969  0.20454  0.63369  1.0000
  H   H2054     1.0  0.87998  0.21425  0.62101  1.0000
  Fe  Fe129     1.0  0.76518  0.01150  0.60208  1.0000
  H   H2055     1.0  0.94647  0.23094  0.64557  1.0000
  C   C1173     1.0  0.70480  0.09105  0.70128  1.0000
  C   C1174     1.0  0.96826  0.20739  0.64045  1.0000
  H   H2056     1.0  0.92949  0.20758  0.59535  1.0000
  H   H2057     1.0  0.89951  0.20076  0.60461  1.0000
  H   H2058     1.0  0.91298  0.22538  0.57462  1.0000
  H   H2059     1.0  0.96835  0.32581  0.72631  1.0000
  C   C1175     1.0  0.59942  0.07049  0.73944  1.0000
  H   H2060     1.0  0.88592  0.22672  0.65333  1.0000
  C   C1176     1.0  0.95004  0.29867  0.61476  1.0000
  C   C1177     1.0  0.81040  0.45624  0.74079  1.0000
  H   H2061     1.0  0.95074  0.18845  0.64015  1.0000
  C   C1178     1.0  0.76757  0.00644  0.53208  1.0000
  H   H2062     1.0  0.84019  0.01014  0.52875  1.0000
  H   H2063     1.0  0.92066  0.30966  0.72388  1.0000
  H   H2064     1.0  0.87816  0.04158  0.63175  1.0000
  C   C1179     1.0  0.70316  0.06296  0.69856  1.0000
  H   H2065     1.0  0.71853  0.10007  0.71041  1.0000
  C   C1180     1.0  0.62344  0.16286  0.73619  1.0000
  H   H2066     1.0  0.86812  0.09876  0.51925  1.0000
  H   H2067     1.0  0.58813  0.15634  0.74745  1.0000
  C   C1181     1.0  0.70892  0.02937  0.67184  1.0000
  C   C1182     1.0  0.78552  0.46044  0.74563  1.0000
  C   C1183     1.0  0.97620  0.38787  0.71832  1.0000
  H   H2068     1.0  0.51397  0.45143  0.73802  1.0000
  H   H2069     1.0  0.96315  0.29116  0.69942  1.0000
  H   H2070     1.0  0.70517  0.06017  0.65747  1.0000
  H   H2071     1.0  0.96067  0.07788  0.57491  1.0000
  C   C1184     1.0  0.65602  0.02433  0.65791  1.0000
  H   H2072     1.0  0.82195  0.43254  0.72588  1.0000
  H   H2073     1.0  0.50584  0.48919  0.69431  1.0000
  H   H2074     1.0  0.65757  0.04463  0.66044  1.0000
  H   H2075     1.0  0.93647  0.30111  0.62276  1.0000
  H   H2076     1.0  0.68430  0.06347  0.67809  1.0000
  N   N66       1.0  0.90483  0.05153  0.58308  1.0000
  C   C1185     1.0  0.98892  0.33274  0.68069  1.0000
  H   H2077     1.0  0.97266  0.44235  0.72925  1.0000
  H   H2078     1.0  0.52357  0.50190  0.67811  1.0000
  H   H2079     1.0  0.90454  0.04828  0.55975  1.0000
  H   H2080     1.0  0.99777  0.32242  0.67352  1.0000
  C   C1186     1.0  0.96426  0.11812  0.57608  1.0000
  H   H2081     1.0  0.96637  0.27982  0.62996  1.0000
  H   H2082     1.0  0.89648  0.09027  0.56543  1.0000
  H   H2083     1.0  0.99909  0.35515  0.70057  1.0000
  C   C1187     1.0  0.72033  0.05597  0.66363  1.0000
  H   H2084     1.0  0.82381  0.10013  0.52209  1.0000
  C   C1188     1.0  0.98975  0.38522  0.74283  1.0000
  H   H2085     1.0  0.00169  0.25092  0.53443  1.0000
  H   H2086     1.0  0.74981  0.07553  0.64771  1.0000
  C   C1189     1.0  0.89358  0.04845  0.61020  1.0000
  H   H2087     1.0  0.89126  0.19206  0.57882  1.0000
  H   H2088     1.0  0.88040  0.44512  0.74311  1.0000
  C   C1190     1.0  0.00121  0.25049  0.51117  1.0000
  H   H2089     1.0  0.97460  0.28581  0.71644  1.0000
  H   H2090     1.0  0.90002  0.01153  0.58907  1.0000
  H   H2091     1.0  0.96806  0.32004  0.68250  1.0000
  H   H2092     1.0  0.63904  0.05774  0.71178  1.0000
  H   H2093     1.0  0.86240  0.08224  0.54686  1.0000
  H   H2094     1.0  0.61689  0.27116  0.74779  1.0000
  H   H2095     1.0  0.85383  0.04719  0.54766  1.0000
  H   H2096     1.0  0.71209  0.10353  0.69165  1.0000
  H   H2097     1.0  0.93353  0.49868  0.74462  1.0000
  C   C1191     1.0  0.97014  0.47563  0.74086  1.0000
  C   C1192     1.0  0.91567  0.03026  0.58525  1.0000
  H   H2098     1.0  0.70189  0.01558  0.69978  1.0000
  C   C1193     1.0  0.80562  0.03786  0.52005  1.0000
  C   C1194     1.0  0.76980  0.00711  0.50586  1.0000
  C   C1195     1.0  0.65499  0.02904  0.74067  1.0000
  C   C1196     1.0  0.80373  0.43496  0.72912  1.0000
  H   H2099     1.0  0.98103  0.36877  0.67933  1.0000
  H   H2100     1.0  0.98718  0.32439  0.60556  1.0000
  H   H2101     1.0  0.69728  0.05198  0.70881  1.0000
  H   H2102     1.0  0.88258  0.21922  0.58393  1.0000
  H   H2103     1.0  0.62487  0.14447  0.74033  1.0000
  H   H2104     1.0  0.64350  0.17820  0.73479  1.0000
  H   H2105     1.0  0.62493  0.23027  0.74778  1.0000
  H   H2106     1.0  0.78976  0.41566  0.73318  1.0000
  H   H2107     1.0  0.77650  0.46599  0.73608  1.0000
  C   C1197     1.0  0.87019  0.06673  0.54912  1.0000
  H   H2108     1.0  0.98835  0.49013  0.69270  1.0000
  C   C1198     1.0  0.64051  0.04233  0.71855  1.0000
  H   H2109     1.0  0.72526  0.02906  0.67889  1.0000
  C   C1199     1.0  0.89144  0.04849  0.56855  1.0000
  C   C1200     1.0  0.00266  0.39893  0.71407  1.0000
  N   N67       1.0  0.68437  0.02399  0.68040  1.0000
  H   H2110     1.0  0.82514  0.47470  0.73634  1.0000
  C   C1201     1.0  0.62894  0.00966  0.65104  1.0000
  H   H2111     1.0  0.87452  0.02900  0.56787  1.0000
  C   C1202     1.0  0.98943  0.35724  0.67268  1.0000
  C   C1203     1.0  0.97407  0.32473  0.61441  1.0000
  H   H2112     1.0  0.77097  0.44064  0.74876  1.0000
  C   C1204     1.0  0.95786  0.27522  0.61893  1.0000
  H   H2113     1.0  0.98016  0.12470  0.56807  1.0000
  S   S256      1.0  0.81462  0.02286  0.57069  1.0000
  H   H2114     1.0  0.98522  0.32837  0.62475  1.0000
  H   H2115     1.0  0.86636  0.23666  0.64063  1.0000
  H   H2116     1.0  0.95866  0.33269  0.70871  1.0000
  C   C1205     1.0  0.94742  0.08870  0.57393  1.0000
  C   C1206     1.0  0.68274  0.04880  0.68656  1.0000
  H   H2117     1.0  0.61322  0.00891  0.65854  1.0000
  H   H2118     1.0  0.94040  0.29569  0.60402  1.0000
  H   H2119     1.0  0.86477  0.06873  0.57162  1.0000
  C   C1207     1.0  0.65998  0.00972  0.67138  1.0000
  H   H2120     1.0  0.75728  0.05221  0.65870  1.0000
  C   C1208     1.0  0.00261  0.24013  0.52487  1.0000
  S   S257      1.0  0.66795  0.08305  0.73715  1.0000
  H   H2121     1.0  0.58046  0.07210  0.73676  1.0000
  C   C1209     1.0  0.93116  0.29828  0.71882  1.0000
  C   C1210     1.0  0.92590  0.07879  0.58541  1.0000
  H   H2122     1.0  0.86082  0.05498  0.61973  1.0000
  H   H2123     1.0  0.97845  0.24896  0.63822  1.0000
  H   H2124     1.0  0.91239  0.13586  0.50218  1.0000
  H   H2125     1.0  0.93650  0.07981  0.59577  1.0000
  H   H2126     1.0  0.97335  0.12194  0.58701  1.0000
  C   C1211     1.0  0.84206  0.11788  0.52420  1.0000
  H   H2127     1.0  0.94597  0.48795  0.70205  1.0000
  H   H2128     1.0  0.88253  0.13429  0.51833  1.0000
  H   H2129     1.0  0.84681  0.11862  0.53587  1.0000
  H   H2130     1.0  0.51081  0.40474  0.74120  1.0000
  H   H2131     1.0  0.93802  0.03884  0.56465  1.0000
  H   H2132     1.0  0.97750  0.20988  0.65130  1.0000
  C   C1212     1.0  0.95946  0.31685  0.71586  1.0000
  C   C1213     1.0  0.62946  0.01577  0.71379  1.0000
  H   H2133     1.0  0.93070  0.28237  0.72632  1.0000
  C   C1214     1.0  0.99828  0.27683  0.68911  1.0000
  H   H2134     1.0  0.97770  0.35114  0.66258  1.0000
  H   H2135     1.0  0.56257  0.10606  0.74698  1.0000
  H   H2136     1.0  0.62692  0.02006  0.64115  1.0000
  H   H2137     1.0  0.61961  0.01083  0.70344  1.0000
  C   C1215     1.0  0.50683  0.50143  0.68467  1.0000
  H   H2138     1.0  0.83850  0.13591  0.52140  1.0000
  H   H2139     1.0  0.99919  0.26929  0.51026  1.0000
  H   H2140     1.0  0.94586  0.01822  0.57673  1.0000
  H   H2141     1.0  0.94917  0.49556  0.68320  1.0000
  C   C1216     1.0  0.59523  0.04565  0.74823  1.0000
  H   H2142     1.0  0.90348  0.03461  0.61215  1.0000
  H   H2143     1.0  0.61244  0.08839  0.74539  1.0000
  H   H2144     1.0  0.58627  0.02856  0.74086  1.0000
  H   H2145     1.0  0.98770  0.47357  0.72027  1.0000
  H   H2146     1.0  0.64219  0.00443  0.67816  1.0000
  H   H2147     1.0  0.00184  0.24746  0.67455  1.0000
  H   H2148     1.0  0.75964  0.49266  0.74949  1.0000
  H   H2149     1.0  0.81959  0.44982  0.74990  1.0000
  H   H2150     1.0  0.00383  0.46587  0.73566  1.0000
  C   C1217     1.0  0.95687  0.50319  0.69409  1.0000
  S   S258      1.0  0.97138  0.24714  0.97374  1.0000
  H   H2151     1.0  0.53031  0.18247  0.76801  1.0000
  H   H2152     1.0  0.93584  0.27840  0.93242  1.0000
  C   C1218     1.0  0.58282  0.10934  0.76731  1.0000
  Fe  Fe130     1.0  0.69868  0.08952  0.91958  1.0000
  S   S259      1.0  0.68639  0.12130  0.92824  1.0000
  S   S260      1.0  0.72650  0.07358  0.93088  1.0000
  Fe  Fe131     1.0  0.67096  0.08730  0.89034  1.0000
  S   S261      1.0  0.65658  0.11846  0.89701  1.0000
  S   S262      1.0  0.65533  0.07018  0.86832  1.0000
  Fe  Fe132     1.0  0.69700  0.13967  0.90646  1.0000
  S   S263      1.0  0.71652  0.18316  0.90107  1.0000
  Fe  Fe133     1.0  0.64688  0.09747  0.91799  1.0000
  S   S264      1.0  0.60810  0.08739  0.92942  1.0000
  S   S265      1.0  0.71214  0.10985  0.89833  1.0000
  S   S266      1.0  0.65844  0.06428  0.91083  1.0000
  Fe  Fe134     1.0  0.86910  0.30580  0.77170  1.0000
  S   S267      1.0  0.91308  0.31749  0.77200  1.0000
  C   C1219     1.0  0.86398  0.47255  0.87515  1.0000
  Fe  Fe135     1.0  0.87504  0.36271  0.77784  1.0000
  S   S268      1.0  0.91894  0.37833  0.77813  1.0000
  S   S269      1.0  0.85593  0.38957  0.78600  1.0000
  H   H2153     1.0  0.57084  0.21245  0.78086  1.0000
  Fe  Fe136     1.0  0.91313  0.34222  0.79139  1.0000
  S   S270      1.0  0.93596  0.34787  0.81247  1.0000
  S   S271      1.0  0.86945  0.32795  0.79199  1.0000
  Fe  Fe137     1.0  0.69539  0.10873  0.79089  1.0000
  S   S272      1.0  0.68204  0.14162  0.79485  1.0000
  S   S273      1.0  0.71766  0.10115  0.80983  1.0000
  H   H2154     1.0  0.78182  0.15901  0.86909  1.0000
  Fe  Fe138     1.0  0.69928  0.15712  0.77353  1.0000
  H   H2155     1.0  0.72164  0.19553  0.80562  1.0000
  Fe  Fe139     1.0  0.64552  0.11660  0.78296  1.0000
  H   H2156     1.0  0.89615  0.33892  0.96391  1.0000
  S   S274      1.0  0.71493  0.12545  0.76995  1.0000
  S   S275      1.0  0.65718  0.08192  0.78047  1.0000
  H   H2157     1.0  0.65661  0.47403  0.90346  1.0000
  Fe  Fe140     1.0  0.91088  0.32528  0.92259  1.0000
  S   S276      1.0  0.87532  0.32902  0.93218  1.0000
  S   S277      1.0  0.94573  0.33376  0.93810  1.0000
  Fe  Fe141     1.0  0.88410  0.31056  0.89292  1.0000
  S   S278      1.0  0.84680  0.31251  0.90095  1.0000
  S   S279      1.0  0.87857  0.29542  0.86986  1.0000
  Fe  Fe142     1.0  0.87311  0.35029  0.91191  1.0000
  S   S280      1.0  0.85876  0.38389  0.90984  1.0000
  Fe  Fe143     1.0  0.85250  0.29113  0.92032  1.0000
  S   S281      1.0  0.82315  0.25599  0.93209  1.0000
  S   S282      1.0  0.91034  0.34954  0.90288  1.0000
  S   S283      1.0  0.88812  0.28630  0.91173  1.0000
  H   H2158     1.0  0.77495  0.47935  0.78803  1.0000
  H   H2159     1.0  0.98498  0.37997  0.75392  1.0000
  C   C1220     1.0  0.57978  0.46427  0.91978  1.0000
  C   C1221     1.0  0.56398  0.47288  0.91098  1.0000
  C   C1222     1.0  0.53819  0.45543  0.90725  1.0000
  C   C1223     1.0  0.52783  0.42910  0.91216  1.0000
  C   C1224     1.0  0.54375  0.42042  0.92084  1.0000
  C   C1225     1.0  0.56950  0.43793  0.92464  1.0000
  C   C1226     1.0  0.57821  0.04404  0.76151  1.0000
  H   H2160     1.0  0.52216  0.02632  0.87017  1.0000
  H   H2161     1.0  0.58147  0.43103  0.93148  1.0000
  C   C1227     1.0  0.57627  0.46415  0.76993  1.0000
  C   C1228     1.0  0.53526  0.10459  0.77959  1.0000
  C   C1229     1.0  0.53734  0.42331  0.77204  1.0000
  C   C1230     1.0  0.54269  0.42226  0.78667  1.0000
  C   C1231     1.0  0.56525  0.44177  0.79280  1.0000
  C   C1232     1.0  0.58189  0.46282  0.78450  1.0000
  H   H2162     1.0  0.56997  0.44033  0.80395  1.0000
  S   S284      1.0  0.87068  0.33941  0.75738  1.0000
  C   C1233     1.0  0.90488  0.47241  0.91930  1.0000
  C   C1234     1.0  0.87844  0.46285  0.91508  1.0000
  C   C1235     1.0  0.86471  0.43571  0.91221  1.0000
  C   C1236     1.0  0.87713  0.41779  0.91365  1.0000
  C   C1237     1.0  0.90360  0.42732  0.91787  1.0000
  C   C1238     1.0  0.91740  0.45455  0.92069  1.0000
  H   H2163     1.0  0.86857  0.47639  0.91402  1.0000
  H   H2164     1.0  0.84424  0.42850  0.90898  1.0000
  H   H2165     1.0  0.91337  0.41371  0.91902  1.0000
  H   H2166     1.0  0.93784  0.46179  0.92396  1.0000
  C   C1239     1.0  0.58090  0.10994  0.78221  1.0000
  H   H2167     1.0  0.60649  0.21545  0.96128  1.0000
  C   C1240     1.0  0.64668  0.13340  0.84016  1.0000
  H   H2168     1.0  0.64671  0.40494  0.96169  1.0000
  S   S285      1.0  0.87958  0.49522  0.75145  1.0000
  C   C1241     1.0  0.77099  0.20420  0.77063  1.0000
  C   C1242     1.0  0.72015  0.19392  0.86103  1.0000
  N   N68       1.0  0.88333  0.39506  0.83439  1.0000
  C   C1243     1.0  0.86350  0.41908  0.77641  1.0000
  H   H2169     1.0  0.86296  0.41241  0.82013  1.0000
  H   H2170     1.0  0.61135  0.48653  0.81504  1.0000
  H   H2171     1.0  0.79452  0.23692  0.82268  1.0000
  C   C1244     1.0  0.86738  0.46481  0.77571  1.0000
  C   C1245     1.0  0.86177  0.44113  0.78324  1.0000
  H   H2172     1.0  0.86649  0.48190  0.78110  1.0000
  H   H2173     1.0  0.85634  0.43995  0.79439  1.0000
  C   C1246     1.0  0.91932  0.33469  0.82854  1.0000
  C   C1247     1.0  0.89369  0.31558  0.82826  1.0000
  C   C1248     1.0  0.88106  0.30503  0.84114  1.0000
  C   C1249     1.0  0.89402  0.31293  0.85441  1.0000
  C   C1250     1.0  0.91940  0.33259  0.85480  1.0000
  C   C1251     1.0  0.93203  0.34336  0.84188  1.0000
  H   H2174     1.0  0.88375  0.30866  0.81811  1.0000
  H   H2175     1.0  0.86123  0.29032  0.84087  1.0000
  H   H2176     1.0  0.92965  0.33869  0.86498  1.0000
  H   H2177     1.0  0.95192  0.35806  0.84220  1.0000
  C   C1252     1.0  0.80979  0.24563  0.76933  1.0000
  C   C1253     1.0  0.75463  0.21828  0.77105  1.0000
  N   N69       1.0  0.69598  0.47867  0.94370  1.0000
  C   C1254     1.0  0.87069  0.42071  0.76200  1.0000
  H   H2178     1.0  0.80376  0.28487  0.80313  1.0000
  S   S286      1.0  0.60793  0.11356  0.79339  1.0000
  C   C1255     1.0  0.74686  0.20239  0.90936  1.0000
  C   C1256     1.0  0.76163  0.22755  0.90390  1.0000
  C   C1257     1.0  0.78540  0.24385  0.91057  1.0000
  C   C1258     1.0  0.79430  0.23530  0.92293  1.0000
  C   C1259     1.0  0.77954  0.21009  0.92840  1.0000
  C   C1260     1.0  0.75603  0.19352  0.92154  1.0000
  H   H2179     1.0  0.75472  0.23456  0.89451  1.0000
  H   H2180     1.0  0.79656  0.26327  0.90631  1.0000
  H   H2181     1.0  0.78628  0.20340  0.93799  1.0000
  H   H2182     1.0  0.74475  0.17416  0.92584  1.0000
  C   C1261     1.0  0.67334  0.07936  0.85230  1.0000
  C   C1262     1.0  0.65961  0.07713  0.83925  1.0000
  C   C1263     1.0  0.67307  0.08411  0.82623  1.0000
  C   C1264     1.0  0.70038  0.09244  0.82608  1.0000
  C   C1265     1.0  0.71414  0.09407  0.83909  1.0000
  C   C1266     1.0  0.70071  0.08793  0.85219  1.0000
  H   H2183     1.0  0.63842  0.07024  0.83923  1.0000
  H   H2184     1.0  0.66225  0.08267  0.81629  1.0000
  H   H2185     1.0  0.73523  0.10013  0.83902  1.0000
  H   H2186     1.0  0.71138  0.08903  0.86215  1.0000
  C   C1267     1.0  0.58371  0.09938  0.92445  1.0000
  C   C1268     1.0  0.58819  0.11883  0.91400  1.0000
  C   C1269     1.0  0.56877  0.12877  0.91078  1.0000
  C   C1270     1.0  0.54428  0.11856  0.91752  1.0000
  C   C1271     1.0  0.53965  0.09884  0.92783  1.0000
  C   C1272     1.0  0.55946  0.08961  0.93143  1.0000
  H   H2187     1.0  0.60675  0.12639  0.90856  1.0000
  H   H2188     1.0  0.57249  0.14409  0.90283  1.0000
  H   H2189     1.0  0.85508  0.19260  0.92554  1.0000
  H   H2190     1.0  0.55590  0.07467  0.93961  1.0000
  C   C1273     1.0  0.72534  0.05061  0.97844  1.0000
  C   C1274     1.0  0.70684  0.06019  0.97305  1.0000
  C   C1275     1.0  0.70699  0.06747  0.95854  1.0000
  C   C1276     1.0  0.72565  0.06515  0.94927  1.0000
  C   C1277     1.0  0.74419  0.05561  0.95467  1.0000
  C   C1278     1.0  0.74420  0.04859  0.96922  1.0000
  H   H2191     1.0  0.74386  0.44936  0.77268  1.0000
  H   H2192     1.0  0.69255  0.07470  0.95451  1.0000
  H   H2193     1.0  0.75857  0.05359  0.94753  1.0000
  H   H2194     1.0  0.75848  0.04119  0.97323  1.0000
  C   C1279     1.0  0.96315  0.27128  0.96459  1.0000
  C   C1280     1.0  0.95100  0.26483  0.95098  1.0000
  C   C1281     1.0  0.94504  0.28359  0.94293  1.0000
  C   C1282     1.0  0.95161  0.30921  0.94829  1.0000
  C   C1283     1.0  0.96414  0.31580  0.96183  1.0000
  C   C1284     1.0  0.96944  0.29681  0.97009  1.0000
  H   H2195     1.0  0.94631  0.24524  0.94657  1.0000
  H   H2196     1.0  0.90569  0.38465  0.87639  1.0000
  H   H2197     1.0  0.89361  0.48617  0.85926  1.0000
  H   H2198     1.0  0.83396  0.17591  0.81542  1.0000
  H   H2199     1.0  0.92106  0.32852  0.97090  1.0000
  C   C1285     1.0  0.87613  0.22903  0.84802  1.0000
  S   S287      1.0  0.84452  0.26166  0.76885  1.0000
  C   C1286     1.0  0.69996  0.49676  0.87576  1.0000
  H   H2200     1.0  0.86022  0.47713  0.88631  1.0000
  H   H2201     1.0  0.81824  0.26936  0.82649  1.0000
  H   H2202     1.0  0.61127  0.49146  0.85422  1.0000
  H   H2203     1.0  0.59243  0.22463  0.75422  1.0000
  H   H2204     1.0  0.86577  0.25698  0.82720  1.0000
  H   H2205     1.0  0.62936  0.13846  0.83807  1.0000
  C   C1287     1.0  0.85013  0.23681  0.82726  1.0000
  H   H2206     1.0  0.69215  0.06181  0.98012  1.0000
  H   H2207     1.0  0.91446  0.25233  0.99006  1.0000
  H   H2208     1.0  0.93905  0.48407  0.85825  1.0000
  N   N70       1.0  0.64956  0.19406  0.93004  1.0000
  C   C1288     1.0  0.63755  0.20899  0.93925  1.0000
  C   C1289     1.0  0.67895  0.20917  0.92902  1.0000
  C   C1290     1.0  0.63759  0.19190  0.91513  1.0000
  C   C1291     1.0  0.64326  0.16633  0.93548  1.0000
  C   C1292     1.0  0.65262  0.16395  0.95095  1.0000
  C   C1293     1.0  0.60731  0.19578  0.94102  1.0000
  C   C1294     1.0  0.65178  0.18364  0.90294  1.0000
  C   C1295     1.0  0.69386  0.22493  0.94246  1.0000
  H   H2209     1.0  0.56859  0.18589  0.79294  1.0000
  C   C1296     1.0  0.64068  0.13544  0.95627  1.0000
  C   C1297     1.0  0.79683  0.46869  0.77116  1.0000
  C   C1298     1.0  0.63576  0.17767  0.88893  1.0000
  H   H2210     1.0  0.64233  0.22916  0.93477  1.0000
  H   H2211     1.0  0.64618  0.21248  0.95023  1.0000
  H   H2212     1.0  0.68852  0.19557  0.92562  1.0000
  H   H2213     1.0  0.68348  0.22449  0.92049  1.0000
  H   H2214     1.0  0.63684  0.21116  0.91185  1.0000
  H   H2215     1.0  0.61688  0.17735  0.91498  1.0000
  H   H2216     1.0  0.62180  0.15437  0.93467  1.0000
  H   H2217     1.0  0.65205  0.15558  0.92851  1.0000
  H   H2218     1.0  0.64702  0.17610  0.95868  1.0000
  H   H2219     1.0  0.67426  0.17001  0.95120  1.0000
  H   H2220     1.0  0.59683  0.19302  0.93053  1.0000
  H   H2221     1.0  0.60158  0.17621  0.94627  1.0000
  H   H2222     1.0  0.65545  0.16595  0.90595  1.0000
  H   H2223     1.0  0.67097  0.19973  0.90067  1.0000
  H   H2224     1.0  0.68949  0.24296  0.94380  1.0000
  H   H2225     1.0  0.68831  0.21343  0.95247  1.0000
  C   C1299     1.0  0.66008  0.49009  0.82182  1.0000
  H   H2226     1.0  0.83635  0.08404  0.98728  1.0000
  H   H2227     1.0  0.84522  0.15169  0.98127  1.0000
  H   H2228     1.0  0.64727  0.13449  0.96749  1.0000
  H   H2229     1.0  0.61888  0.12785  0.95599  1.0000
  H   H2230     1.0  0.64711  0.12241  0.94956  1.0000
  H   H2231     1.0  0.80113  0.13234  0.98890  1.0000
  C   C1300     1.0  0.89515  0.23540  0.99075  1.0000
  C   C1301     1.0  0.95571  0.46938  0.88678  1.0000
  H   H2232     1.0  0.61656  0.16097  0.89031  1.0000
  H   H2233     1.0  0.63239  0.19539  0.88528  1.0000
  H   H2234     1.0  0.64666  0.17199  0.88051  1.0000
  H   H2235     1.0  0.59914  0.47789  0.78928  1.0000
  C   C1302     1.0  0.84501  0.24023  0.97048  1.0000
  S   S288      1.0  0.71997  0.20195  0.77196  1.0000
  H   H2236     1.0  0.52101  0.09107  0.93323  1.0000
  C   C1303     1.0  0.59744  0.21281  0.95037  1.0000
  H   H2237     1.0  0.79614  0.13547  0.80803  1.0000
  C   C1304     1.0  0.67750  0.45878  0.91876  1.0000
  H   H2238     1.0  0.84598  0.19846  0.83612  1.0000
  H   H2239     1.0  0.64224  0.11938  0.84930  1.0000
  C   C1305     1.0  0.97799  0.46537  0.89500  1.0000
  H   H2240     1.0  0.77679  0.12379  0.94287  1.0000
  H   H2241     1.0  0.52466  0.37849  0.85914  1.0000
  H   H2242     1.0  0.72702  0.23195  0.85070  1.0000
  C   C1306     1.0  0.51059  0.18653  0.88914  1.0000
  H   H2243     1.0  0.89042  0.27839  0.98310  1.0000
  C   C1307     1.0  0.79293  0.15351  0.81122  1.0000
  H   H2244     1.0  0.86044  0.22692  0.92340  1.0000
  C   C1308     1.0  0.90011  0.21277  0.99807  1.0000
  C   C1309     1.0  0.86187  0.21787  0.83382  1.0000
  S   S289      1.0  0.52124  0.39740  0.79770  1.0000
  H   H2245     1.0  0.76155  0.18061  0.85191  1.0000
  H   H2246     1.0  0.89134  0.24555  0.77836  1.0000
  H   H2247     1.0  0.64260  0.19280  0.75970  1.0000
  C   C1310     1.0  0.91666  0.40751  0.81373  1.0000
  C   C1311     1.0  0.76226  0.14288  0.87059  1.0000
  H   H2248     1.0  0.52013  0.20829  0.89079  1.0000
  H   H2249     1.0  0.82210  0.11165  0.95416  1.0000
  H   H2250     1.0  0.54887  0.10446  0.86931  1.0000
  H   H2251     1.0  0.80465  0.25582  0.97879  1.0000
  C   C1312     1.0  0.57652  0.05437  0.87080  1.0000
  H   H2252     1.0  0.86386  0.45926  0.82035  1.0000
  C   C1313     1.0  0.53727  0.04132  0.80184  1.0000
  H   H2253     1.0  0.70015  0.24645  0.86692  1.0000
  H   H2254     1.0  0.76156  0.13531  0.88168  1.0000
  C   C1314     1.0  0.83693  0.04868  0.96866  1.0000
  H   H2255     1.0  0.58804  0.45009  0.84844  1.0000
  H   H2256     1.0  0.67455  0.48378  0.82740  1.0000
  H   H2257     1.0  0.89875  0.22424  0.96929  1.0000
  H   H2258     1.0  0.86050  0.38028  0.85356  1.0000
  H   H2259     1.0  0.87429  0.11651  0.97172  1.0000
  C   C1315     1.0  0.57296  0.47132  0.83284  1.0000
  H   H2260     1.0  0.93721  0.49696  0.83293  1.0000
  H   H2261     1.0  0.86584  0.19940  0.95134  1.0000
  H   H2262     1.0  0.50544  0.34431  0.86317  1.0000
  H   H2263     1.0  0.97823  0.47123  0.90644  1.0000
  C   C1316     1.0  0.87419  0.46251  0.83093  1.0000
  H   H2264     1.0  0.88773  0.48364  0.83167  1.0000
  H   H2265     1.0  0.93569  0.47021  0.76238  1.0000
  H   H2266     1.0  0.82756  0.47596  0.79653  1.0000
  C   C1317     1.0  0.94091  0.48635  0.77042  1.0000
  H   H2267     1.0  0.52608  0.46254  0.90068  1.0000
  H   H2268     1.0  0.61011  0.26812  0.76669  1.0000
  C   C1318     1.0  0.80636  0.47153  0.79801  1.0000
  H   H2269     1.0  0.51323  0.13257  0.87884  1.0000
  H   H2270     1.0  0.95251  0.44325  0.81496  1.0000
  C   C1319     1.0  0.89959  0.32352  0.97037  1.0000
  H   H2271     1.0  0.54423  0.41816  0.82702  1.0000
  H   H2272     1.0  0.55911  0.40492  0.84059  1.0000
  C   C1320     1.0  0.82183  0.08349  0.97878  1.0000
  H   H2273     1.0  0.97888  0.30211  0.98052  1.0000
  H   H2274     1.0  0.91044  0.46667  0.87812  1.0000
  H   H2275     1.0  0.76250  0.18280  0.77083  1.0000
  N   N71       1.0  0.56839  0.01825  0.76964  1.0000
  H   H2276     1.0  0.80204  0.28116  0.76986  1.0000
  N   N72       1.0  0.59535  0.49805  0.83378  1.0000
  H   H2277     1.0  0.78086  0.09840  0.98561  1.0000
  H   H2278     1.0  0.88765  0.21772  0.92814  1.0000
  C   C1321     1.0  0.61843  0.49883  0.82494  1.0000
  C   C1322     1.0  0.52906  0.13077  0.87226  1.0000
  H   H2279     1.0  0.55586  0.47132  0.83895  1.0000
  C   C1323     1.0  0.89393  0.15840  0.97356  1.0000
  H   H2280     1.0  0.81718  0.46940  0.77042  1.0000
  S   S290      1.0  0.66114  0.13476  0.76184  1.0000
  H   H2281     1.0  0.56146  0.04930  0.75807  1.0000
  H   H2282     1.0  0.89416  0.25878  0.81055  1.0000
  H   H2283     1.0  0.65321  0.17925  0.78308  1.0000
  H   H2284     1.0  0.55327  0.04572  0.88973  1.0000
  H   H2285     1.0  0.99178  0.12767  0.98852  1.0000
  H   H2286     1.0  0.84392  0.08574  0.95864  1.0000
  S   S291      1.0  0.52044  0.13146  0.91283  1.0000
  C   C1324     1.0  0.88975  0.44485  0.83242  1.0000
  H   H2287     1.0  0.51236  0.36911  0.87704  1.0000
  C   C1325     1.0  0.79548  0.48246  0.78551  1.0000
  H   H2288     1.0  0.99723  0.47721  0.89018  1.0000
  H   H2289     1.0  0.79554  0.44978  0.79888  1.0000
  H   H2290     1.0  0.69607  0.13731  0.84000  1.0000
  H   H2291     1.0  0.72301  0.48137  0.77744  1.0000
  H   H2292     1.0  0.52392  0.13096  0.86070  1.0000
  H   H2293     1.0  0.90763  0.48860  0.89144  1.0000
  H   H2294     1.0  0.57321  0.18349  0.76010  1.0000
  H   H2295     1.0  0.59039  0.06065  0.76865  1.0000
  H   H2296     1.0  0.57148  0.49310  0.90726  1.0000
  C   C1326     1.0  0.80570  0.13968  0.96023  1.0000
  H   H2297     1.0  0.90035  0.15844  0.98492  1.0000
  H   H2298     1.0  0.77837  0.25236  0.80128  1.0000
  H   H2299     1.0  0.89268  0.24835  0.84630  1.0000
  H   H2300     1.0  0.71552  0.15568  0.82042  1.0000
  C   C1327     1.0  0.55710  0.10753  0.78835  1.0000
  H   H2301     1.0  0.63112  0.47138  0.83769  1.0000
  H   H2302     1.0  0.55550  0.10794  0.79990  1.0000
  C   C1328     1.0  0.79120  0.26709  0.80914  1.0000
  C   C1329     1.0  0.82818  0.07123  0.96500  1.0000
  C   C1330     1.0  0.88296  0.22728  0.97547  1.0000
  H   H2303     1.0  0.57173  0.05886  0.78927  1.0000
  H   H2304     1.0  0.61132  0.19754  0.79540  1.0000
  H   H2305     1.0  0.68966  0.14119  0.85805  1.0000
  H   H2306     1.0  0.64619  0.19976  0.81285  1.0000
  H   H2307     1.0  0.61485  0.23148  0.78007  1.0000
  H   H2308     1.0  0.92021  0.38999  0.83390  1.0000
  H   H2309     1.0  0.88779  0.37094  0.85175  1.0000
  H   H2310     1.0  0.69562  0.46489  0.91228  1.0000
  H   H2311     1.0  0.52018  0.40812  0.76723  1.0000
  H   H2312     1.0  0.93717  0.45605  0.89174  1.0000
  H   H2313     1.0  0.80449  0.24676  0.99739  1.0000
  H   H2314     1.0  0.91184  0.27787  0.96943  1.0000
  C   C1331     1.0  0.89100  0.27451  0.97147  1.0000
  N   N73       1.0  0.87359  0.24631  0.96763  1.0000
  H   H2315     1.0  0.57579  0.20292  0.95142  1.0000
  S   S292      1.0  0.61221  0.48559  0.92524  1.0000
  H   H2316     1.0  0.52487  0.18484  0.78688  1.0000
  N   N74       1.0  0.83786  0.22969  0.81252  1.0000
  H   H2317     1.0  0.74308  0.16835  0.87673  1.0000
  H   H2318     1.0  0.79290  0.15933  0.94325  1.0000
  C   C1332     1.0  0.55509  0.05759  0.87986  1.0000
  H   H2319     1.0  0.52616  0.17860  0.88813  1.0000
  C   C1333     1.0  0.81397  0.20377  0.81271  1.0000
  C   C1334     1.0  0.88125  0.38766  0.85007  1.0000
  H   H2320     1.0  0.87797  0.35593  0.82684  1.0000
  H   H2321     1.0  0.83307  0.21882  0.96873  1.0000
  Fe  Fe144     1.0  0.67527  0.10138  0.75975  1.0000
  H   H2322     1.0  0.90431  0.45032  0.82369  1.0000
  H   H2323     1.0  0.89707  0.24829  0.94902  1.0000
  H   H2324     1.0  0.54752  0.14808  0.87462  1.0000
  H   H2325     1.0  0.82304  0.17820  0.79737  1.0000
  H   H2326     1.0  0.89047  0.17668  0.97143  1.0000
  H   H2327     1.0  0.52464  0.02183  0.80632  1.0000
  C   C1335     1.0  0.86062  0.21444  0.94559  1.0000
  C   C1336     1.0  0.76595  0.47613  0.94487  1.0000
  C   C1337     1.0  0.87614  0.24269  0.95172  1.0000
  H   H2328     1.0  0.82429  0.34225  0.80848  1.0000
  C   C1338     1.0  0.88530  0.29640  0.96333  1.0000
  C   C1339     1.0  0.83816  0.24678  0.98565  1.0000
  H   H2329     1.0  0.62147  0.16100  0.76561  1.0000
  Fe  Fe145     1.0  0.98583  0.24698  0.99681  1.0000
  H   H2330     1.0  0.52506  0.04898  0.79508  1.0000
  H   H2331     1.0  0.57160  0.03229  0.80043  1.0000
  C   C1340     1.0  0.64661  0.19209  0.78986  1.0000
  H   H2332     1.0  0.79645  0.22158  0.98363  1.0000
  H   H2333     1.0  0.86345  0.13528  0.95897  1.0000
  H   H2334     1.0  0.97501  0.44413  0.89459  1.0000
  H   H2335     1.0  0.60122  0.11150  0.76259  1.0000
  H   H2336     1.0  0.77857  0.27265  0.81653  1.0000
  C   C1341     1.0  0.79839  0.21782  0.76970  1.0000
  H   H2337     1.0  0.89242  0.29768  0.95217  1.0000
  C   C1342     1.0  0.55942  0.03892  0.79307  1.0000
  S   S293      1.0  0.78235  0.01466  0.99735  1.0000
  S   S294      1.0  0.72369  0.04075  0.99663  1.0000
  H   H2338     1.0  0.94884  0.42359  0.79893  1.0000
  H   H2339     1.0  0.86673  0.20742  0.97619  1.0000
  C   C1343     1.0  0.55420  0.44416  0.76368  1.0000
  H   H2340     1.0  0.69982  0.45077  0.76997  1.0000
  H   H2341     1.0  0.89385  0.10105  0.99998  1.0000
  H   H2342     1.0  0.60474  0.03412  0.78208  1.0000
  N   N75       1.0  0.60971  0.19259  0.77223  1.0000
  C   C1344     1.0  0.94574  0.42273  0.81069  1.0000
  H   H2343     1.0  0.57094  0.03336  0.86757  1.0000
  H   H2344     1.0  0.64335  0.45806  0.95381  1.0000
  H   H2345     1.0  0.86950  0.25616  0.94538  1.0000
  C   C1345     1.0  0.56502  0.19075  0.78176  1.0000
  C   C1346     1.0  0.91168  0.40429  0.83009  1.0000
  H   H2346     1.0  0.64580  0.42979  0.97430  1.0000
  H   H2347     1.0  0.81030  0.06311  0.95802  1.0000
  H   H2348     1.0  0.87204  0.40372  0.75669  1.0000
  H   H2349     1.0  0.58012  0.06685  0.86105  1.0000
  H   H2350     1.0  0.86248  0.23198  0.85584  1.0000
  C   C1347     1.0  0.86812  0.37011  0.82596  1.0000
  H   H2351     1.0  0.83424  0.31926  0.81851  1.0000
  H   H2352     1.0  0.95595  0.46317  0.87547  1.0000
  H   H2353     1.0  0.92537  0.49439  0.76997  1.0000
  H   H2354     1.0  0.89223  0.32385  0.98136  1.0000
  H   H2355     1.0  0.72144  0.13651  0.87007  1.0000
  H   H2356     1.0  0.75012  0.16865  0.82444  1.0000
  H   H2357     1.0  0.77645  0.15440  0.80455  1.0000
  C   C1348     1.0  0.56099  0.10631  0.75854  1.0000
  H   H2358     1.0  0.83786  0.34514  0.84067  1.0000
  C   C1349     1.0  0.83905  0.35512  0.83018  1.0000
  H   H2359     1.0  0.86793  0.37455  0.81432  1.0000
  H   H2360     1.0  0.82860  0.36875  0.83087  1.0000
  C   C1350     1.0  0.82452  0.33354  0.81923  1.0000
  H   H2361     1.0  0.71890  0.46006  0.93281  1.0000
  H   H2362     1.0  0.91074  0.38770  0.80862  1.0000
  H   H2363     1.0  0.80394  0.32283  0.82262  1.0000
  H   H2364     1.0  0.86183  0.45156  0.87456  1.0000
  C   C1351     1.0  0.52836  0.04811  0.87153  1.0000
  C   C1352     1.0  0.68075  0.48019  0.93040  1.0000
  C   C1353     1.0  0.79587  0.14060  0.94489  1.0000
  H   H2365     1.0  0.51698  0.10297  0.78439  1.0000
  H   H2366     1.0  0.81035  0.13974  0.93697  1.0000
  H   H2367     1.0  0.53322  0.02484  0.77485  1.0000
  H   H2368     1.0  0.65063  0.47585  0.81296  1.0000
  H   H2369     1.0  0.91002  0.15842  0.96655  1.0000
  H   H2370     1.0  0.67430  0.17125  0.83400  1.0000
  H   H2371     1.0  0.82181  0.03324  0.97498  1.0000
  H   H2372     1.0  0.80278  0.06844  0.98243  1.0000
  H   H2373     1.0  0.79078  0.14155  0.96750  1.0000
  C   C1354     1.0  0.65165  0.18682  0.80551  1.0000
  H   H2374     1.0  0.90674  0.23294  0.79219  1.0000
  H   H2375     1.0  0.90074  0.44970  0.84273  1.0000
  H   H2376     1.0  0.72906  0.21640  0.94053  1.0000
  H   H2377     1.0  0.65005  0.12363  0.83037  1.0000
  C   C1355     1.0  0.53543  0.17767  0.77893  1.0000
  C   C1356     1.0  0.62139  0.26346  0.75808  1.0000
  C   C1357     1.0  0.73848  0.19018  0.80859  1.0000
  H   H2378     1.0  0.79021  0.09697  0.96106  1.0000
  C   C1358     1.0  0.73303  0.17406  0.82240  1.0000
  H   H2379     1.0  0.56211  0.07857  0.88324  1.0000
  C   C1359     1.0  0.70621  0.23014  0.87018  1.0000
  H   H2380     1.0  0.74059  0.14861  0.84546  1.0000
  C   C1360     1.0  0.67072  0.15854  0.84360  1.0000
  H   H2381     1.0  0.71438  0.19827  0.83154  1.0000
  C   C1361     1.0  0.71130  0.21668  0.85686  1.0000
  H   H2382     1.0  0.94328  0.48946  0.79377  1.0000
  H   H2383     1.0  0.73025  0.24541  0.93086  1.0000
  C   C1362     1.0  0.69480  0.15211  0.84776  1.0000
  H   H2384     1.0  0.66551  0.16838  0.85277  1.0000
  H   H2385     1.0  0.75630  0.20849  0.80983  1.0000
  C   C1363     1.0  0.87136  0.41512  0.83126  1.0000
  H   H2386     1.0  0.87902  0.27116  0.79665  1.0000
  H   H2387     1.0  0.69031  0.21573  0.87660  1.0000
  C   C1364     1.0  0.76604  0.24611  0.77078  1.0000
  H   H2388     1.0  0.85435  0.41169  0.83838  1.0000
  C   C1365     1.0  0.53725  0.10419  0.76465  1.0000
  H   H2389     1.0  0.95510  0.46563  0.78626  1.0000
  H   H2390     1.0  0.83700  0.25043  0.96253  1.0000
  C   C1366     1.0  0.74159  0.16472  0.85302  1.0000
  C   C1367     1.0  0.61705  0.18631  0.78709  1.0000
  C   C1368     1.0  0.87536  0.44410  0.75433  1.0000
  H   H2391     1.0  0.57296  0.15875  0.77218  1.0000
  C   C1369     1.0  0.57906  0.44726  0.83755  1.0000
  N   N76       1.0  0.72085  0.17532  0.84916  1.0000
  H   H2392     1.0  0.82440  0.15708  0.96175  1.0000
  H   H2393     1.0  0.78426  0.44728  0.77224  1.0000
  C   C1370     1.0  0.80957  0.11347  0.96292  1.0000
  H   H2394     1.0  0.78736  0.15165  0.82269  1.0000
  H   H2395     1.0  0.85557  0.05628  0.97502  1.0000
  C   C1371     1.0  0.93999  0.47425  0.78526  1.0000
  H   H2396     1.0  0.74161  0.17832  0.79966  1.0000
  C   C1372     1.0  0.74043  0.15317  0.86832  1.0000
  C   C1373     1.0  0.72884  0.19009  0.83519  1.0000
  H   H2397     1.0  0.69326  0.20982  0.85013  1.0000
  H   H2398     1.0  0.67282  0.19098  0.80716  1.0000
  H   H2399     1.0  0.70757  0.18241  0.86991  1.0000
  H   H2400     1.0  0.63563  0.44724  0.91444  1.0000
  H   H2401     1.0  0.74755  0.20764  0.83686  1.0000
  H   H2402     1.0  0.69657  0.48437  0.88553  1.0000
  C   C1374     1.0  0.87370  0.46614  0.76118  1.0000
  H   H2403     1.0  0.64020  0.16577  0.80824  1.0000
  C   C1375     1.0  0.62070  0.22232  0.77079  1.0000
  H   H2404     1.0  0.50447  0.08080  0.86118  1.0000
  H   H2405     1.0  0.64384  0.43353  0.94142  1.0000
  C   C1376     1.0  0.86907  0.13399  0.97032  1.0000
  H   H2406     1.0  0.54577  0.05547  0.81086  1.0000
  H   H2407     1.0  0.67436  0.43935  0.92364  1.0000
  H   H2408     1.0  0.86380  0.21220  0.80383  1.0000
  H   H2409     1.0  0.86408  0.29251  0.96297  1.0000
  H   H2410     1.0  0.92040  0.45818  0.78683  1.0000
  H   H2411     1.0  0.84155  0.23347  0.99365  1.0000
  H   H2412     1.0  0.75357  0.25719  0.77113  1.0000
  H   H2413     1.0  0.74008  0.20421  0.86595  1.0000
  H   H2414     1.0  0.60589  0.16503  0.78955  1.0000
  C   C1377     1.0  0.89628  0.40982  0.86100  1.0000
  C   C1378     1.0  0.63994  0.42134  0.96335  1.0000
  C   C1379     1.0  0.58011  0.18061  0.77094  1.0000
  H   H2415     1.0  0.61816  0.41313  0.96250  1.0000
  H   H2416     1.0  0.72426  0.23859  0.87696  1.0000
  C   C1380     1.0  0.80128  0.11213  0.98859  1.0000
  H   H2417     1.0  0.80447  0.20075  0.82338  1.0000
  C   C1381     1.0  0.86640  0.21290  0.92971  1.0000
  H   H2418     1.0  0.88250  0.24144  0.99778  1.0000
  H   H2419     1.0  0.73389  0.46670  0.95958  1.0000
  C   C1382     1.0  0.59057  0.01467  0.77793  1.0000
  H   H2420     1.0  0.64250  0.23043  0.77134  1.0000
  H   H2421     1.0  0.75977  0.12644  0.86297  1.0000
  N   N77       1.0  0.82033  0.11042  0.97752  1.0000
  H   H2422     1.0  0.87627  0.21494  0.82658  1.0000
  C   C1383     1.0  0.89519  0.39830  0.87603  1.0000
  H   H2423     1.0  0.68857  0.45774  0.96389  1.0000
  H   H2424     1.0  0.60202  0.23250  0.94543  1.0000
  H   H2425     1.0  0.85409  0.12935  0.99149  1.0000
  H   H2426     1.0  0.65921  0.21297  0.78760  1.0000
  H   H2427     1.0  0.50872  0.45504  0.76681  1.0000
  H   H2428     1.0  0.83553  0.23791  0.83507  1.0000
  H   H2429     1.0  0.84776  0.22421  0.79076  1.0000
  C   C1384     1.0  0.84679  0.13211  0.98067  1.0000
  H   H2430     1.0  0.85960  0.45844  0.83961  1.0000
  C   C1385     1.0  0.85739  0.22864  0.80158  1.0000
  H   H2431     1.0  0.59238  0.44378  0.82973  1.0000
  H   H2432     1.0  0.52855  0.15584  0.77992  1.0000
  H   H2433     1.0  0.73390  0.24649  0.95013  1.0000
  C   C1386     1.0  0.53274  0.10528  0.87600  1.0000
  H   H2434     1.0  0.91932  0.26784  0.78835  1.0000
  H   H2435     1.0  0.92383  0.42328  0.83540  1.0000
  H   H2436     1.0  0.53858  0.10659  0.88741  1.0000
  H   H2437     1.0  0.84018  0.03949  0.95863  1.0000
  H   H2438     1.0  0.88179  0.19469  0.99859  1.0000
  H   H2439     1.0  0.64470  0.02393  0.77945  1.0000
  C   C1387     1.0  0.65442  0.45501  0.90855  1.0000
  C   C1388     1.0  0.80796  0.25539  0.81765  1.0000
  H   H2440     1.0  0.53345  0.04042  0.91753  1.0000
  C   C1389     1.0  0.89140  0.49111  0.87055  1.0000
  H   H2441     1.0  0.54035  0.42393  0.84581  1.0000
  H   H2442     1.0  0.88682  0.42431  0.86156  1.0000
  H   H2443     1.0  0.53216  0.05620  0.86045  1.0000
  H   H2444     1.0  0.90454  0.41439  0.88400  1.0000
  H   H2445     1.0  0.87452  0.38728  0.87924  1.0000
  H   H2446     1.0  0.91725  0.42012  0.85833  1.0000
  C   C1390     1.0  0.55409  0.42209  0.83774  1.0000
  C   C1391     1.0  0.90115  0.24963  0.78910  1.0000
  C   C1392     1.0  0.72355  0.23384  0.94085  1.0000
  H   H2447     1.0  0.84511  0.27070  0.80742  1.0000
  H   H2448     1.0  0.53612  0.40030  0.92474  1.0000
  H   H2449     1.0  0.69646  0.48373  0.86617  1.0000
  C   C1393     1.0  0.54842  0.01931  0.78030  1.0000
  H   H2450     1.0  0.91533  0.20829  0.99226  1.0000
  H   H2451     1.0  0.66101  0.47946  0.93306  1.0000
  H   H2452     1.0  0.80419  0.48092  0.80820  1.0000
  H   H2453     1.0  0.95764  0.41248  0.81561  1.0000
  H   H2454     1.0  0.68745  0.43754  0.94894  1.0000
  H   H2455     1.0  0.82047  0.24689  0.79685  1.0000
  C   C1394     1.0  0.91283  0.48746  0.88005  1.0000
  H   H2456     1.0  0.84899  0.47519  0.86797  1.0000
  C   C1395     1.0  0.79351  0.25976  0.77002  1.0000
  C   C1396     1.0  0.88305  0.25382  0.80023  1.0000
  H   H2457     1.0  0.90516  0.41782  0.80849  1.0000
  C   C1397     1.0  0.68194  0.45411  0.95245  1.0000
  H   H2458     1.0  0.88417  0.21508  0.85271  1.0000
  H   H2459     1.0  0.67822  0.02085  0.93541  1.0000
  H   H2460     1.0  0.81082  0.20671  0.76924  1.0000
  C   C1398     1.0  0.65139  0.44273  0.95203  1.0000
  H   H2461     1.0  0.55006  0.44495  0.75236  1.0000
  H   H2462     1.0  0.56538  0.46696  0.82167  1.0000
  H   H2463     1.0  0.79872  0.20424  0.80485  1.0000
  H   H2464     1.0  0.65353  0.44058  0.89999  1.0000
  C   C1399     1.0  0.82862  0.25109  0.80793  1.0000
  H   H2465     1.0  0.98361  0.50218  0.77140  1.0000
  C   C1400     1.0  0.81802  0.17805  0.80889  1.0000
  H   H2466     1.0  0.96960  0.33570  0.96599  1.0000
  H   H2467     1.0  0.56615  0.48963  0.86027  1.0000
  C   C1401     1.0  0.72196  0.47855  0.93887  1.0000
  H   H2468     1.0  0.52695  0.06907  0.89852  1.0000
  H   H2469     1.0  0.83915  0.20909  0.94640  1.0000
  H   H2470     1.0  0.59515  0.06070  0.87715  1.0000
  H   H2471     1.0  0.75961  0.45568  0.94053  1.0000
  H   H2472     1.0  0.54106  0.49573  0.77784  1.0000
  C   C1402     1.0  0.62154  0.18002  0.76137  1.0000
  C   C1403     1.0  0.63961  0.49089  0.83246  1.0000
  C   C1404     1.0  0.80914  0.24242  0.98636  1.0000
  H   H2473     1.0  0.97516  0.15003  0.99119  1.0000
  C   C1405     1.0  0.99360  0.14692  0.99325  1.0000
  Fe  Fe146     1.0  0.91493  0.35255  0.75871  1.0000
  H   H2474     1.0  0.78076  0.47874  0.95355  1.0000
  S   S295      1.0  0.51073  0.10204  0.75344  1.0000
  H   H2475     1.0  0.84963  0.26769  0.98870  1.0000
  H   H2476     1.0  0.61220  0.00866  0.75928  1.0000
  H   H2477     1.0  0.50595  0.18827  0.86635  1.0000
  C   C1406     1.0  0.71766  0.46861  0.76767  1.0000
  H   H2478     1.0  0.51128  0.01603  0.89558  1.0000
  H   H2479     1.0  0.64274  0.27367  0.76045  1.0000
  H   H2480     1.0  0.99120  0.26878  0.92906  1.0000
  C   C1407     1.0  0.51170  0.03061  0.91705  1.0000
  H   H2481     1.0  0.76802  0.50088  0.76766  1.0000
  C   C1408     1.0  0.50788  0.36505  0.86541  1.0000
  C   C1409     1.0  0.50776  0.05487  0.89435  1.0000
  N   N78       1.0  0.50665  0.05451  0.87813  1.0000
  C   C1410     1.0  0.50728  0.08084  0.87299  1.0000
  H   H2482     1.0  0.69609  0.00636  0.95822  1.0000
  C   C1411     1.0  0.95817  0.49852  0.88781  1.0000
  H   H2483     1.0  0.60108  0.50067  0.87911  1.0000
  N   N79       1.0  0.78969  0.48002  0.75774  1.0000
  H   H2484     1.0  0.66499  0.03399  0.75098  1.0000
  H   H2485     1.0  0.71292  0.47964  0.75879  1.0000
  H   H2486     1.0  0.99858  0.30179  0.92260  1.0000
  H   H2487     1.0  0.73338  0.44670  0.75422  1.0000
  C   C1412     1.0  0.74260  0.48106  0.95084  1.0000
  C   C1413     1.0  0.76489  0.48493  0.75959  1.0000
  H   H2488     1.0  0.75058  0.50142  0.95542  1.0000
  S   S296      1.0  0.59603  0.49068  0.75925  1.0000
  C   C1414     1.0  0.74013  0.46041  0.76355  1.0000
  C   C1415     1.0  0.52983  0.49696  0.76807  1.0000
  H   H2489     1.0  0.61487  0.04693  0.75181  1.0000
  H   H2490     1.0  0.54204  0.49744  0.75862  1.0000
  H   H2491     1.0  0.95430  0.50210  0.89916  1.0000
  H   H2492     1.0  0.77547  0.49047  0.93622  1.0000
  H   H2493     1.0  0.69056  0.49978  0.92521  1.0000
  H   H2494     1.0  0.73141  0.49500  0.93126  1.0000
  H   H2495     1.0  0.56928  0.49807  0.80693  1.0000
  H   H2496     1.0  0.66726  0.49322  0.96613  1.0000
  H   H2497     1.0  0.50585  0.01079  0.92202  1.0000
  C   C1416     1.0  0.61369  0.23356  0.75683  1.0000
  H   H2498     1.0  0.96686  0.46421  0.75097  1.0000
  H   H2499     1.0  0.67826  0.00420  0.91878  1.0000
  H   H2500     1.0  0.71350  0.50314  0.96237  1.0000
  C   C1417     1.0  0.70186  0.50341  0.95260  1.0000
  H   H2501     1.0  0.56953  0.54225  0.11869  1.0000
  C   C1418     1.0  0.66054  0.95942  0.13145  1.0000
  C   C1419     1.0  0.56703  0.79332  0.24356  1.0000
  H   H2502     1.0  0.55760  0.98024  0.24388  1.0000
  S   S297      1.0  0.73234  0.98085  0.01711  1.0000
  S   S298      1.0  0.54505  0.87226  0.23371  1.0000
  Fe  Fe147     1.0  0.00195  0.74527  0.02289  1.0000
  H   H2503     1.0  0.69442  0.81967  0.05263  1.0000
  H   H2504     1.0  0.54201  0.58736  0.15803  1.0000
  Fe  Fe148     1.0  0.78581  0.74765  0.00961  1.0000
  S   S299      1.0  0.82230  0.73877  0.01509  1.0000
  Fe  Fe149     1.0  0.72701  0.72686  0.01895  1.0000
  Fe  Fe150     1.0  0.76785  0.97527  0.00877  1.0000
  S   S300      1.0  0.69909  0.69654  0.03433  1.0000
  H   H2505     1.0  0.67245  0.95500  0.13998  1.0000
  C   C1420     1.0  0.71171  0.91680  0.04006  1.0000
  Fe  Fe151     1.0  0.57719  0.86315  0.24462  1.0000
  S   S301      1.0  0.76386  0.76031  0.02622  1.0000
  Fe  Fe152     1.0  0.60258  0.92440  0.09797  1.0000
  S   S302      1.0  0.56170  0.89653  0.09169  1.0000
  S   S303      1.0  0.62467  0.95082  0.07962  1.0000
  Fe  Fe153     1.0  0.59739  0.90072  0.12827  1.0000
  S   S304      1.0  0.55704  0.87032  0.12371  1.0000
  S   S305      1.0  0.61700  0.89841  0.14947  1.0000
  Fe  Fe154     1.0  0.57289  0.86570  0.10234  1.0000
  S   S306      1.0  0.56884  0.82920  0.08982  1.0000
  Fe  Fe155     1.0  0.54958  0.90404  0.11359  1.0000
  S   S307      1.0  0.61410  0.89313  0.10763  1.0000
  S   S308      1.0  0.58957  0.93504  0.11917  1.0000
  H   H2506     1.0  0.73281  0.92006  0.03992  1.0000
  H   H2507     1.0  0.61904  0.84696  0.12819  1.0000
  S   S309      1.0  0.58051  0.63491  0.23368  1.0000
  Fe  Fe156     1.0  0.57316  0.66803  0.22258  1.0000
  S   S310      1.0  0.58603  0.68946  0.20146  1.0000
  S   S311      1.0  0.53031  0.65339  0.22780  1.0000
  Fe  Fe157     1.0  0.57684  0.91141  0.22843  1.0000
  Fe  Fe158     1.0  0.75458  0.78425  0.00881  1.0000
  S   S312      1.0  0.57844  0.93266  0.20736  1.0000
  H   H2508     1.0  0.55825  0.57728  0.10915  1.0000
  H   H2509     1.0  0.64893  0.85028  0.04607  1.0000
  Fe  Fe159     1.0  0.58304  0.68104  0.09200  1.0000
  S   S313      1.0  0.54110  0.67731  0.08898  1.0000
  S   S314      1.0  0.61235  0.70778  0.07572  1.0000
  Fe  Fe160     1.0  0.57000  0.65288  0.12123  1.0000
  H   H2510     1.0  0.62445  0.95717  0.22927  1.0000
  S   S315      1.0  0.58229  0.63531  0.14067  1.0000
  S   S316      1.0  0.71651  0.75078  0.00217  1.0000
  H   H2511     1.0  0.72153  0.82699  0.04077  1.0000
  Fe  Fe161     1.0  0.54350  0.68940  0.11210  1.0000
  S   S317      1.0  0.52864  0.71895  0.12145  1.0000
  S   S318      1.0  0.57071  0.63826  0.09860  1.0000
  S   S319      1.0  0.58583  0.69569  0.11491  1.0000
  C   C1421     1.0  0.58269  0.67289  0.18480  1.0000
  C   C1422     1.0  0.58329  0.64767  0.18379  1.0000
  C   C1423     1.0  0.58317  0.63628  0.17021  1.0000
  C   C1424     1.0  0.58162  0.64966  0.15759  1.0000
  C   C1425     1.0  0.58005  0.67444  0.15864  1.0000
  C   C1426     1.0  0.58103  0.68617  0.17218  1.0000
  H   H2512     1.0  0.58487  0.63741  0.19345  1.0000
  H   H2513     1.0  0.58463  0.61721  0.16949  1.0000
  H   H2514     1.0  0.57875  0.68483  0.14899  1.0000
  H   H2515     1.0  0.58066  0.70567  0.17291  1.0000
  H   H2516     1.0  0.58464  0.89445  0.06255  1.0000
  S   S320      1.0  0.60918  0.90141  0.23797  1.0000
  C   C1427     1.0  0.70344  0.81103  0.04459  1.0000
  H   H2517     1.0  0.65569  0.94376  0.12306  1.0000
  C   C1428     1.0  0.55875  0.79918  0.09917  1.0000
  C   C1429     1.0  0.56346  0.77796  0.09327  1.0000
  C   C1430     1.0  0.55488  0.75347  0.10027  1.0000
  C   C1431     1.0  0.54101  0.74995  0.11304  1.0000
  C   C1432     1.0  0.53637  0.77122  0.11899  1.0000
  C   C1433     1.0  0.54547  0.79590  0.11214  1.0000
  H   H2518     1.0  0.57370  0.78037  0.08322  1.0000
  H   H2519     1.0  0.55857  0.73717  0.09561  1.0000
  S   S321      1.0  0.51332  0.90987  0.12117  1.0000
  H   H2520     1.0  0.54171  0.81217  0.11672  1.0000
  C   C1434     1.0  0.58793  0.92146  0.19138  1.0000
  C   C1435     1.0  0.60289  0.90590  0.19169  1.0000
  C   C1436     1.0  0.61156  0.89880  0.17878  1.0000
  C   C1437     1.0  0.60484  0.90667  0.16546  1.0000
  C   C1438     1.0  0.58933  0.92167  0.16515  1.0000
  C   C1439     1.0  0.58121  0.92930  0.17806  1.0000
  H   H2521     1.0  0.60827  0.89983  0.20188  1.0000
  H   H2522     1.0  0.62358  0.88725  0.17912  1.0000
  H   H2523     1.0  0.58401  0.92784  0.15497  1.0000
  H   H2524     1.0  0.56963  0.94131  0.17772  1.0000
  C   C1440     1.0  0.67433  0.69949  0.04540  1.0000
  C   C1441     1.0  0.66231  0.67991  0.05571  1.0000
  C   C1442     1.0  0.64302  0.68179  0.06493  1.0000
  C   C1443     1.0  0.63552  0.70337  0.06396  1.0000
  C   C1444     1.0  0.64735  0.72279  0.05353  1.0000
  C   C1445     1.0  0.66649  0.72080  0.04425  1.0000
  H   H2525     1.0  0.66815  0.66330  0.05669  1.0000
  H   H2526     1.0  0.63417  0.66672  0.07289  1.0000
  H   H2527     1.0  0.64147  0.73938  0.05256  1.0000
  H   H2528     1.0  0.67507  0.73563  0.03614  1.0000
  C   C1446     1.0  0.65710  0.95819  0.07360  1.0000
  C   C1447     1.0  0.66449  0.97067  0.06027  1.0000
  C   C1448     1.0  0.69047  0.97862  0.05544  1.0000
  C   C1449     1.0  0.70953  0.97459  0.06402  1.0000
  C   C1450     1.0  0.70208  0.96184  0.07731  1.0000
  C   C1451     1.0  0.67597  0.95351  0.08204  1.0000
  H   H2529     1.0  0.62533  0.76541  0.22271  1.0000
  S   S322      1.0  0.51509  0.57765  0.23938  1.0000
  H   H2530     1.0  0.63255  0.73788  0.22891  1.0000
  H   H2531     1.0  0.67064  0.94412  0.09237  1.0000
  C   C1452     1.0  0.68437  0.80175  0.03181  1.0000
  H   H2532     1.0  0.63241  0.85773  0.09222  1.0000
  H   H2533     1.0  0.60563  0.82802  0.05602  1.0000
  H   H2534     1.0  0.97742  0.64905  0.02715  1.0000
  C   C1453     1.0  0.75883  0.85534  0.01192  1.0000
  H   H2535     1.0  0.51122  0.82649  0.21622  1.0000
  C   C1454     1.0  0.56874  0.77298  0.23502  1.0000
  C   C1455     1.0  0.66248  0.95598  0.22643  1.0000
  H   H2536     1.0  0.61641  0.99524  0.10002  1.0000
  C   C1456     1.0  0.85645  0.75493  0.01143  1.0000
  C   C1457     1.0  0.87359  0.74299  0.01609  1.0000
  C   C1458     1.0  0.90072  0.75454  0.01322  1.0000
  H   H2537     1.0  0.86580  0.72465  0.02198  1.0000
  H   H2538     1.0  0.91362  0.74521  0.01699  1.0000
  H   H2539     1.0  0.51454  0.60826  0.16857  1.0000
  H   H2540     1.0  0.65772  0.85239  0.11320  1.0000
  C   C1459     1.0  0.65453  0.99610  0.23501  1.0000
  H   H2541     1.0  0.50959  0.77820  0.23353  1.0000
  S   S323      1.0  0.52773  0.64759  0.12014  1.0000
  H   H2542     1.0  0.64217  0.97513  0.21411  1.0000
  H   H2543     1.0  0.68624  0.87849  0.07774  1.0000
  S   S324      1.0  0.74954  0.71201  0.00368  1.0000
  H   H2544     1.0  0.67089  0.90008  0.08307  1.0000
  Fe  Fe162     1.0  0.75782  0.99960  0.03625  1.0000
  H   H2545     1.0  0.56811  0.58191  0.13237  1.0000
  C   C1460     1.0  0.59014  0.56144  0.24913  1.0000
  S   S325      1.0  0.79324  0.99270  0.02825  1.0000
  C   C1461     1.0  0.99954  0.91287  0.00723  1.0000
  H   H2546     1.0  0.52551  0.76851  0.12882  1.0000
  H   H2547     1.0  0.69942  0.87987  0.05134  1.0000
  C   C1462     1.0  0.52219  0.54609  0.11775  1.0000
  C   C1463     1.0  0.58509  0.87899  0.05497  1.0000
  H   H2548     1.0  0.71050  0.90919  0.06257  1.0000
  H   H2549     1.0  0.53150  0.59269  0.13220  1.0000
  H   H2550     1.0  0.54068  0.54437  0.08969  1.0000
  H   H2551     1.0  0.58471  0.83304  0.13221  1.0000
  H   H2552     1.0  0.58955  0.56866  0.23804  1.0000
  H   H2553     1.0  0.56931  0.80180  0.15354  1.0000
  H   H2554     1.0  0.55779  0.73091  0.23231  1.0000
  C   C1464     1.0  0.63639  0.75904  0.23093  1.0000
  H   H2555     1.0  0.95414  0.67966  0.02947  1.0000
  C   C1465     1.0  0.62320  0.79939  0.05693  1.0000
  H   H2556     1.0  0.67287  0.68612  0.00623  1.0000
  C   C1466     1.0  0.61339  0.88245  0.05225  1.0000
  H   H2557     1.0  0.65767  0.77105  0.22972  1.0000
  H   H2558     1.0  0.89358  0.69604  0.01486  1.0000
  C   C1467     1.0  0.51966  0.57399  0.13778  1.0000
  H   H2559     1.0  0.57394  0.85910  0.05950  1.0000
  H   H2560     1.0  0.50914  0.56344  0.16041  1.0000
  C   C1468     1.0  0.88422  0.67544  0.01072  1.0000
  H   H2561     1.0  0.61815  0.82445  0.07324  1.0000
  H   H2562     1.0  0.66414  0.60141  0.01839  1.0000
  H   H2563     1.0  0.68013  0.81861  0.02755  1.0000
  H   H2564     1.0  0.63171  0.78435  0.24714  1.0000
  H   H2565     1.0  0.64208  0.95879  0.13634  1.0000
  H   H2566     1.0  0.59637  0.82266  0.20404  1.0000
  C   C1469     1.0  0.61255  0.81566  0.20253  1.0000
  H   H2567     1.0  0.86372  0.66646  0.01458  1.0000
  H   H2568     1.0  0.65412  0.97648  0.10497  1.0000
  C   C1470     1.0  0.76397  0.90109  0.01731  1.0000
  C   C1471     1.0  0.54540  0.74437  0.15800  1.0000
  H   H2569     1.0  0.71671  0.95868  0.08403  1.0000
  H   H2570     1.0  0.76513  0.87272  0.03311  1.0000
  H   H2571     1.0  0.53525  0.75682  0.15366  1.0000
  H   H2572     1.0  0.69723  0.65980  0.01131  1.0000
  H   H2573     1.0  0.51990  0.51104  0.13788  1.0000
  C   C1472     1.0  0.97554  0.66047  0.01766  1.0000
  H   H2574     1.0  0.99646  0.87865  0.01947  1.0000
  H   H2575     1.0  0.60364  0.55685  0.14621  1.0000
  H   H2576     1.0  0.60042  0.98075  0.23493  1.0000
  H   H2577     1.0  0.66514  0.84359  0.06107  1.0000
  C   C1473     1.0  0.55626  0.74635  0.23902  1.0000
  Fe  Fe163     1.0  0.97650  0.77633  0.00505  1.0000
  C   C1474     1.0  0.53190  0.55914  0.09169  1.0000
  N   N80       1.0  0.59082  0.78188  0.16474  1.0000
  C   C1475     1.0  0.58554  0.79501  0.15147  1.0000
  C   C1476     1.0  0.56576  0.76006  0.16972  1.0000
  C   C1477     1.0  0.60021  0.80270  0.17647  1.0000
  C   C1478     1.0  0.61197  0.77131  0.16241  1.0000
  C   C1479     1.0  0.60809  0.75235  0.14947  1.0000
  C   C1480     1.0  0.60908  0.81931  0.14589  1.0000
  C   C1481     1.0  0.60445  0.79294  0.19160  1.0000
  H   H2578     1.0  0.61351  0.86455  0.07298  1.0000
  C   C1482     1.0  0.62248  0.82582  0.06166  1.0000
  C   C1483     1.0  0.63158  0.74442  0.14798  1.0000
  H   H2579     1.0  0.68814  0.86996  0.10420  1.0000
  C   C1484     1.0  0.95105  0.66643  0.01998  1.0000
  H   H2580     1.0  0.57833  0.78080  0.14238  1.0000
  H   H2581     1.0  0.57041  0.74562  0.17648  1.0000
  S   S326      1.0  0.58466  0.82648  0.23844  1.0000
  H   H2582     1.0  0.58619  0.81274  0.17756  1.0000
  H   H2583     1.0  0.61940  0.81848  0.17368  1.0000
  H   H2584     1.0  0.63147  0.78786  0.16139  1.0000
  H   H2585     1.0  0.61401  0.76012  0.17201  1.0000
  H   H2586     1.0  0.60582  0.76154  0.13922  1.0000
  H   H2587     1.0  0.59079  0.73380  0.15108  1.0000
  H   H2588     1.0  0.61400  0.83631  0.15343  1.0000
  H   H2589     1.0  0.62669  0.81461  0.14448  1.0000
  H   H2590     1.0  0.62033  0.78530  0.19144  1.0000
  H   H2591     1.0  0.58635  0.77702  0.19554  1.0000
  S   S327      1.0  0.94538  0.79401  0.00210  1.0000
  H   H2592     1.0  0.55447  0.73846  0.14889  1.0000
  H   H2593     1.0  0.69590  0.98848  0.04522  1.0000
  H   H2594     1.0  0.56159  0.56336  0.14828  1.0000
  H   H2595     1.0  0.61009  0.54269  0.12995  1.0000
  H   H2596     1.0  0.64981  0.76207  0.14604  1.0000
  H   H2597     1.0  0.63419  0.73414  0.15780  1.0000
  H   H2598     1.0  0.62813  0.73057  0.13874  1.0000
  C   C1485     1.0  0.76110  0.90585  0.00276  1.0000
  C   C1486     1.0  0.69862  0.89962  0.05289  1.0000
  H   H2599     1.0  0.65010  0.97453  0.05368  1.0000
  H   H2600     1.0  0.69652  0.60987  0.03819  1.0000
  C   C1487     1.0  0.68329  0.61842  0.01743  1.0000
  H   H2601     1.0  0.71378  0.64341  0.03225  1.0000
  N   N81       1.0  0.73005  0.79466  0.06269  1.0000
  C   C1488     1.0  0.72872  0.76944  0.06981  1.0000
  C   C1489     1.0  0.72591  0.81236  0.07392  1.0000
  C   C1490     1.0  0.70914  0.78766  0.05106  1.0000
  C   C1491     1.0  0.75631  0.80911  0.05585  1.0000
  C   C1492     1.0  0.78080  0.81606  0.06582  1.0000
  C   C1493     1.0  0.73739  0.75087  0.06057  1.0000
  H   H2602     1.0  0.76748  0.91683  0.02505  1.0000
  C   C1494     1.0  0.69901  0.80100  0.08151  1.0000
  C   C1495     1.0  0.69630  0.82128  0.09191  1.0000
  C   C1496     1.0  0.80597  0.82711  0.05713  1.0000
  C   C1497     1.0  0.73320  0.72514  0.06844  1.0000
  C   C1498     1.0  0.60058  0.55553  0.13437  1.0000
  H   H2603     1.0  0.70822  0.75742  0.07307  1.0000
  H   H2604     1.0  0.74053  0.77380  0.07997  1.0000
  H   H2605     1.0  0.74106  0.81666  0.08259  1.0000
  H   H2606     1.0  0.72881  0.83201  0.06930  1.0000
  H   H2607     1.0  0.69022  0.77299  0.05500  1.0000
  H   H2608     1.0  0.71448  0.77765  0.04194  1.0000
  H   H2609     1.0  0.75874  0.79772  0.04649  1.0000
  H   H2610     1.0  0.75737  0.82817  0.05122  1.0000
  H   H2611     1.0  0.78093  0.79857  0.07171  1.0000
  H   H2612     1.0  0.78152  0.83143  0.07377  1.0000
  H   H2613     1.0  0.72590  0.74569  0.05041  1.0000
  H   H2614     1.0  0.75852  0.76031  0.05800  1.0000
  H   H2615     1.0  0.63897  0.79551  0.06279  1.0000
  H   H2616     1.0  0.66351  0.64470  0.01560  1.0000
  H   H2617     1.0  0.68235  0.79533  0.07374  1.0000
  H   H2618     1.0  0.69708  0.78322  0.08785  1.0000
  H   H2619     1.0  0.67691  0.81275  0.09717  1.0000
  H   H2620     1.0  0.71187  0.82661  0.10038  1.0000
  H   H2621     1.0  0.69774  0.83941  0.08606  1.0000
  H   H2622     1.0  0.80701  0.84499  0.05111  1.0000
  H   H2623     1.0  0.82335  0.83263  0.06443  1.0000
  H   H2624     1.0  0.80671  0.81201  0.04936  1.0000
  H   H2625     1.0  0.71215  0.71445  0.07104  1.0000
  H   H2626     1.0  0.73917  0.71209  0.06143  1.0000
  H   H2627     1.0  0.74519  0.72920  0.07849  1.0000
  C   C1499     1.0  0.62763  0.88030  0.06636  1.0000
  H   H2628     1.0  0.71031  0.93643  0.04082  1.0000
  C   C1500     1.0  0.51461  0.80798  0.21781  1.0000
  S   S328      1.0  0.96912  0.73308  0.00631  1.0000
  H   H2629     1.0  0.53364  0.70554  0.16792  1.0000
  H   H2630     1.0  0.53079  0.85264  0.06693  1.0000
  C   C1501     1.0  0.55757  0.56155  0.13652  1.0000
  S   S329      1.0  0.75742  0.82413  0.01844  1.0000
  S   S330      1.0  0.57168  0.93134  0.24858  1.0000
  C   C1502     1.0  0.62738  0.76291  0.24590  1.0000
  C   C1503     1.0  0.50704  0.79724  0.23294  1.0000
  H   H2631     1.0  0.95477  0.62622  0.00494  1.0000
  C   C1504     1.0  0.65287  0.85965  0.09067  1.0000
  N   N82       1.0  0.65281  0.87607  0.06447  1.0000
  S   S331      1.0  0.74295  0.98616  0.05890  1.0000
  H   H2632     1.0  0.65266  0.83993  0.08783  1.0000
  H   H2633     1.0  0.61710  0.80884  0.21306  1.0000
  C   C1505     1.0  0.86688  0.77876  0.00390  1.0000
  H   H2634     1.0  0.93380  0.64785  0.02197  1.0000
  H   H2635     1.0  0.62647  0.79929  0.04519  1.0000
  H   H2636     1.0  0.52114  0.81127  0.24063  1.0000
  H   H2637     1.0  0.66113  0.89463  0.04358  1.0000
  N   N83       1.0  0.52846  0.55223  0.13349  1.0000
  C   C1506     1.0  0.67928  0.64149  0.00950  1.0000
  H   H2638     1.0  0.52118  0.53014  0.15335  1.0000
  C   C1507     1.0  0.51452  0.52734  0.14192  1.0000
  H   H2639     1.0  0.70240  0.90702  0.02982  1.0000
  H   H2640     1.0  0.94680  0.67636  0.01048  1.0000
  C   C1508     1.0  0.97241  0.91015  0.01228  1.0000
  C   C1509     1.0  0.61260  0.99783  0.24180  1.0000
  C   C1510     1.0  0.53674  0.56885  0.10725  1.0000
  Fe  Fe164     1.0  0.52893  0.63566  0.09725  1.0000
  C   C1511     1.0  0.97291  0.64441  0.00357  1.0000
  H   H2641     1.0  0.63144  0.89886  0.07258  1.0000
  H   H2642     1.0  0.69320  0.79423  0.02307  1.0000
  H   H2643     1.0  0.55469  0.76826  0.17687  1.0000
  C   C1512     1.0  0.67593  0.98668  0.12510  1.0000
  H   H2644     1.0  0.54104  0.57615  0.08437  1.0000
  C   C1513     1.0  0.66739  0.86779  0.10508  1.0000
  H   H2645     1.0  0.51416  0.72412  0.17305  1.0000
  C   C1514     1.0  0.52148  0.58074  0.15403  1.0000
  H   H2646     1.0  0.52409  0.62113  0.15090  1.0000
  H   H2647     1.0  0.57546  0.88088  0.04473  1.0000
  C   C1515     1.0  0.76272  0.87601  0.02184  1.0000
  H   H2648     1.0  0.68075  0.63314  0.03889  1.0000
  H   H2649     1.0  0.65465  0.93799  0.21952  1.0000
  H   H2650     1.0  0.66696  0.88683  0.10888  1.0000
  C   C1516     1.0  0.69425  0.62676  0.03261  1.0000
  Fe  Fe165     1.0  0.53816  0.62190  0.24016  1.0000
  H   H2651     1.0  0.57987  0.77777  0.22526  1.0000
  H   H2652     1.0  0.63034  0.83250  0.19899  1.0000
  C   C1517     1.0  0.64852  0.84932  0.05802  1.0000
  H   H2653     1.0  0.51591  0.84402  0.09181  1.0000
  H   H2654     1.0  0.60416  0.78307  0.05935  1.0000
  H   H2655     1.0  0.61324  0.86740  0.04425  1.0000
  H   H2656     1.0  0.69690  0.61147  0.01178  1.0000
  C   C1518     1.0  0.52453  0.71925  0.16407  1.0000
  H   H2657     1.0  0.89528  0.66394  0.01511  1.0000
  H   H2658     1.0  0.67106  0.91726  0.05820  1.0000
  H   H2659     1.0  0.59954  0.81320  0.12303  1.0000
  C   C1519     1.0  0.60259  0.82856  0.13143  1.0000
  H   H2660     1.0  0.53577  0.81237  0.21616  1.0000
  S   S332      1.0  0.58604  0.69428  0.24205  1.0000
  H   H2661     1.0  0.68230  0.96869  0.22259  1.0000
  H   H2662     1.0  0.62356  0.90237  0.04749  1.0000
  C   C1520     1.0  0.57129  0.54386  0.13055  1.0000
  H   H2663     1.0  0.50829  0.81387  0.08181  1.0000
  H   H2664     1.0  0.66564  0.78580  0.03505  1.0000
  C   C1521     1.0  0.66997  0.89748  0.05458  1.0000
  H   H2665     1.0  0.52572  0.52819  0.11455  1.0000
  C   C1522     1.0  0.66681  0.87982  0.07884  1.0000
  H   H2666     1.0  0.52950  0.58500  0.10840  1.0000
  H   H2667     1.0  0.61019  0.57562  0.12973  1.0000
  C   C1523     1.0  0.64402  0.97070  0.22558  1.0000
  H   H2668     1.0  0.56275  0.52369  0.13512  1.0000
  H   H2669     1.0  0.69472  0.98653  0.12117  1.0000
  C   C1524     1.0  0.91117  0.77837  0.00573  1.0000
  H   H2670     1.0  0.96420  0.92095  0.00487  1.0000
  H   H2671     1.0  0.66409  0.94981  0.23765  1.0000
  H   H2672     1.0  0.68397  0.98549  0.00425  1.0000
  H   H2673     1.0  0.99272  0.67947  0.01755  1.0000
  S   S333      1.0  0.00045  0.72532  0.04441  1.0000
  C   C1525     1.0  0.51217  0.60312  0.15696  1.0000
  H   H2674     1.0  0.51298  0.60932  0.19899  1.0000
  H   H2675     1.0  0.97371  0.91861  0.02324  1.0000
  H   H2676     1.0  0.65591  0.98938  0.24617  1.0000
  H   H2677     1.0  0.99333  0.61490  0.01887  1.0000
  H   H2678     1.0  0.61865  0.00060  0.21403  1.0000
  H   H2679     1.0  0.95874  0.88899  0.01233  1.0000
  H   H2680     1.0  0.64132  0.99203  0.11785  1.0000
  C   C1526     1.0  0.65988  0.99309  0.11287  1.0000
  H   H2681     1.0  0.60598  0.75168  0.24624  1.0000
  H   H2682     1.0  0.50997  0.70897  0.15548  1.0000
  C   C1527     1.0  0.50972  0.84706  0.06925  1.0000
  Fe  Fe166     1.0  0.54380  0.67806  0.24787  1.0000
  H   H2683     1.0  0.69910  0.00052  0.09792  1.0000
  H   H2684     1.0  0.50596  0.86549  0.07023  1.0000
  H   H2685     1.0  0.51054  0.55008  0.08915  1.0000
  H   H2686     1.0  0.58396  0.53961  0.24871  1.0000
  H   H2687     1.0  0.68034  0.00130  0.13398  1.0000
  H   H2688     1.0  0.67420  0.94993  0.00278  1.0000
  H   H2689     1.0  0.64980  0.96423  0.00263  1.0000
  C   C1528     1.0  0.89407  0.79039  0.00111  1.0000
  H   H2690     1.0  0.61283  0.00295  0.07401  1.0000
  H   H2691     1.0  0.84156  0.78470  0.40388  1.0000
  C   C1529     1.0  0.56460  0.71344  0.28970  1.0000
  H   H2692     1.0  0.93584  0.58954  0.38256  1.0000
  H   H2693     1.0  0.60043  0.82279  0.27428  1.0000
  S   S334      1.0  0.61984  0.66844  0.27181  1.0000
  H   H2694     1.0  0.78583  0.60795  0.38036  1.0000
  C   C1530     1.0  0.56753  0.63559  0.30115  1.0000
  S   S335      1.0  0.57276  0.87949  0.26620  1.0000
  S   S336      1.0  0.63710  0.94694  0.27156  1.0000
  H   H2695     1.0  0.54143  0.55431  0.30649  1.0000
  H   H2696     1.0  0.88101  0.68891  0.37340  1.0000
  H   H2697     1.0  0.97244  0.51720  0.31546  1.0000
  Fe  Fe167     1.0  0.64219  0.54583  0.35015  1.0000
  S   S337      1.0  0.66647  0.54203  0.33181  1.0000
  Fe  Fe168     1.0  0.68050  0.60420  0.35595  1.0000
  S   S338      1.0  0.70656  0.60441  0.33746  1.0000
  S   S339      1.0  0.68452  0.64081  0.36928  1.0000
  Fe  Fe169     1.0  0.66878  0.58245  0.32514  1.0000
  S   S340      1.0  0.66087  0.58625  0.30130  1.0000
  Fe  Fe170     1.0  0.70258  0.56432  0.34548  1.0000
  S   S341      1.0  0.73651  0.55025  0.34886  1.0000
  S   S342      1.0  0.64303  0.58531  0.34283  1.0000
  S   S343      1.0  0.67802  0.56507  0.36462  1.0000
  Fe  Fe171     1.0  0.89383  0.58231  0.33262  1.0000
  S   S344      1.0  0.90743  0.57349  0.35415  1.0000
  S   S345      1.0  0.85564  0.58881  0.32773  1.0000
  Fe  Fe172     1.0  0.94994  0.59798  0.31981  1.0000
  S   S346      1.0  0.96672  0.59142  0.34093  1.0000
  S   S347      1.0  0.97001  0.60879  0.29786  1.0000
  Fe  Fe173     1.0  0.93009  0.55366  0.34197  1.0000
  Fe  Fe174     1.0  0.94275  0.61157  0.35150  1.0000
  S   S348      1.0  0.94760  0.64169  0.36960  1.0000
  S   S349      1.0  0.91401  0.55970  0.32047  1.0000
  S   S350      1.0  0.92865  0.62081  0.33025  1.0000
  Fe  Fe175     1.0  0.98360  0.77902  0.43085  1.0000
  S   S351      1.0  0.94308  0.77382  0.42299  1.0000
  S   S352      1.0  0.99101  0.74799  0.44379  1.0000
  Fe  Fe176     1.0  0.80133  0.98031  0.44883  1.0000
  H   H2698     1.0  0.60146  0.51623  0.40993  1.0000
  S   S353      1.0  0.80447  0.94130  0.45512  1.0000
  H   H2699     1.0  0.60157  0.56769  0.37080  1.0000
  H   H2700     1.0  0.69199  0.57628  0.27592  1.0000
  H   H2701     1.0  0.82402  0.80297  0.39578  1.0000
  Fe  Fe177     1.0  0.76177  0.76607  0.46156  1.0000
  S   S354      1.0  0.79949  0.80099  0.45892  1.0000
  S   S355      1.0  0.73801  0.77263  0.47964  1.0000
  Fe  Fe178     1.0  0.77079  0.73731  0.43504  1.0000
  S   S356      1.0  0.80924  0.77103  0.43056  1.0000
  S   S357      1.0  0.76083  0.69869  0.42215  1.0000
  Fe  Fe179     1.0  0.81711  0.77135  0.45426  1.0000
  S   S358      1.0  0.85607  0.77789  0.46524  1.0000
  Fe  Fe180     1.0  0.78867  0.79822  0.43565  1.0000
  S   S359      1.0  0.79430  0.83526  0.42267  1.0000
  S   S360      1.0  0.78011  0.73628  0.45879  1.0000
  S   S361      1.0  0.74936  0.76455  0.43829  1.0000
  C   C1531     1.0  0.80277  0.91292  0.44535  1.0000
  C   C1532     1.0  0.79495  0.90867  0.43090  1.0000
  C   C1533     1.0  0.79269  0.88493  0.42398  1.0000
  C   C1534     1.0  0.79811  0.86528  0.43145  1.0000
  C   C1535     1.0  0.80647  0.86989  0.44578  1.0000
  C   C1536     1.0  0.80870  0.89350  0.45268  1.0000
  H   H2702     1.0  0.79043  0.92352  0.42511  1.0000
  H   H2703     1.0  0.78646  0.88166  0.41284  1.0000
  H   H2704     1.0  0.81121  0.85527  0.45157  1.0000
  H   H2705     1.0  0.81497  0.89672  0.46381  1.0000
  H   H2706     1.0  0.79135  0.62643  0.28339  1.0000
  H   H2707     1.0  0.93932  0.50952  0.38096  1.0000
  H   H2708     1.0  0.97170  0.52453  0.42640  1.0000
  H   H2709     1.0  0.96270  0.82998  0.43469  1.0000
  H   H2710     1.0  0.52907  0.75507  0.27005  1.0000
  C   C1537     1.0  0.91913  0.77300  0.43541  1.0000
  C   C1538     1.0  0.92561  0.78139  0.44966  1.0000
  C   C1539     1.0  0.90609  0.78252  0.45888  1.0000
  C   C1540     1.0  0.88006  0.77490  0.45392  1.0000
  C   C1541     1.0  0.87358  0.76571  0.43985  1.0000
  C   C1542     1.0  0.89307  0.76501  0.43059  1.0000
  H   H2711     1.0  0.94573  0.78761  0.45343  1.0000
  H   H2712     1.0  0.91126  0.78967  0.46977  1.0000
  H   H2713     1.0  0.85354  0.75911  0.43603  1.0000
  H   H2714     1.0  0.88793  0.75830  0.41962  1.0000
  H   H2715     1.0  0.83191  0.61869  0.27898  1.0000
  H   H2716     1.0  0.59094  0.73856  0.26755  1.0000
  C   C1543     1.0  0.97134  0.66343  0.38183  1.0000
  C   C1544     1.0  0.96372  0.68003  0.39058  1.0000
  C   C1545     1.0  0.98121  0.69737  0.40071  1.0000
  C   C1546     1.0  0.60783  0.57109  0.41049  1.0000
  H   H2717     1.0  0.89417  0.65355  0.39503  1.0000
  H   H2718     1.0  0.77933  0.86719  0.49019  1.0000
  H   H2719     1.0  0.94407  0.67946  0.38949  1.0000
  H   H2720     1.0  0.97494  0.71006  0.40728  1.0000
  H   H2721     1.0  0.97270  0.52420  0.39965  1.0000
  H   H2722     1.0  0.70679  0.60782  0.41494  1.0000
  C   C1547     1.0  0.70714  0.65754  0.38335  1.0000
  C   C1548     1.0  0.72560  0.64818  0.38886  1.0000
  C   C1549     1.0  0.74201  0.66125  0.40059  1.0000
  C   C1550     1.0  0.74039  0.68392  0.40693  1.0000
  C   C1551     1.0  0.72215  0.69345  0.40129  1.0000
  C   C1552     1.0  0.70560  0.68027  0.38963  1.0000
  H   H2723     1.0  0.72696  0.63066  0.38424  1.0000
  H   H2724     1.0  0.75595  0.65362  0.40487  1.0000
  H   H2725     1.0  0.72056  0.71076  0.40605  1.0000
  H   H2726     1.0  0.69135  0.68765  0.38552  1.0000
  C   C1553     1.0  0.76993  0.56195  0.34332  1.0000
  C   C1554     1.0  0.78572  0.54830  0.34775  1.0000
  C   C1555     1.0  0.81209  0.55645  0.34339  1.0000
  C   C1556     1.0  0.82299  0.57823  0.33434  1.0000
  C   C1557     1.0  0.80733  0.59212  0.33009  1.0000
  C   C1558     1.0  0.78112  0.58422  0.33465  1.0000
  H   H2727     1.0  0.77739  0.53112  0.35453  1.0000
  H   H2728     1.0  0.82376  0.54550  0.34676  1.0000
  H   H2729     1.0  0.81566  0.60932  0.32335  1.0000
  H   H2730     1.0  0.76961  0.59542  0.33154  1.0000
  C   C1559     1.0  0.63818  0.97492  0.28158  1.0000
  H   H2731     1.0  0.70124  0.63421  0.42395  1.0000
  H   H2732     1.0  0.94724  0.54807  0.41412  1.0000
  H   H2733     1.0  0.61650  0.54603  0.42696  1.0000
  C   C1560     1.0  0.60361  0.58376  0.37858  1.0000
  H   H2734     1.0  0.61064  0.57062  0.25328  1.0000
  C   C1561     1.0  0.63038  0.64493  0.27998  1.0000
  C   C1562     1.0  0.63806  0.64800  0.29455  1.0000
  C   C1563     1.0  0.64693  0.62994  0.30136  1.0000
  C   C1564     1.0  0.64904  0.60912  0.29350  1.0000
  C   C1565     1.0  0.64193  0.60642  0.27887  1.0000
  C   C1566     1.0  0.63228  0.62396  0.27217  1.0000
  H   H2735     1.0  0.63698  0.66434  0.30065  1.0000
  H   H2736     1.0  0.65255  0.63240  0.31260  1.0000
  H   H2737     1.0  0.64382  0.59057  0.27269  1.0000
  H   H2738     1.0  0.62700  0.62173  0.26088  1.0000
  C   C1567     1.0  0.66214  0.80485  0.48201  1.0000
  H   H2739     1.0  0.91442  0.54177  0.37953  1.0000
  H   H2740     1.0  0.75283  0.64270  0.28949  1.0000
  H   H2741     1.0  0.67451  0.62174  0.40197  1.0000
  H   H2742     1.0  0.90330  0.73393  0.47686  1.0000
  H   H2743     1.0  0.64693  0.72420  0.28029  1.0000
  C   C1568     1.0  0.88332  0.66998  0.37578  1.0000
  H   H2744     1.0  0.50609  0.56343  0.29687  1.0000
  H   H2745     1.0  0.59522  0.77843  0.28211  1.0000
  H   H2746     1.0  0.77010  0.60672  0.36319  1.0000
  C   C1569     1.0  0.85495  0.60384  0.38128  1.0000
  C   C1570     1.0  0.59445  0.72765  0.28969  1.0000
  S   S362      1.0  0.93910  0.51802  0.34976  1.0000
  H   H2747     1.0  0.82569  0.71317  0.48298  1.0000
  H   H2748     1.0  0.70138  0.55964  0.29527  1.0000
  C   C1571     1.0  0.74400  0.76342  0.49706  1.0000
  N   N84       1.0  0.74135  0.58742  0.29159  1.0000
  H   H2749     1.0  0.55777  0.70818  0.30085  1.0000
  H   H2750     1.0  0.90525  0.57379  0.40266  1.0000
  H   H2751     1.0  0.60675  0.59096  0.41107  1.0000
  H   H2752     1.0  0.78570  0.59912  0.27135  1.0000
  H   H2753     1.0  0.91905  0.62131  0.39645  1.0000
  C   C1572     1.0  0.92454  0.51042  0.38859  1.0000
  C   C1573     1.0  0.73840  0.60632  0.30252  1.0000
  S   S363      1.0  0.79951  0.00231  0.42847  1.0000
  H   H2754     1.0  0.52992  0.82495  0.27701  1.0000
  C   C1574     1.0  0.68004  0.76172  0.28192  1.0000
  H   H2755     1.0  0.90181  0.69066  0.41129  1.0000
  H   H2756     1.0  0.88419  0.58624  0.38185  1.0000
  H   H2757     1.0  0.91223  0.61540  0.41525  1.0000
  C   C1575     1.0  0.89925  0.69366  0.39967  1.0000
  H   H2758     1.0  0.92269  0.71637  0.49603  1.0000
  C   C1576     1.0  0.57169  0.56900  0.25855  1.0000
  H   H2759     1.0  0.58701  0.60203  0.36267  1.0000
  C   C1577     1.0  0.64640  0.98232  0.35375  1.0000
  C   C1578     1.0  0.55411  0.55073  0.29835  1.0000
  H   H2760     1.0  0.58628  0.63809  0.30669  1.0000
  H   H2761     1.0  0.56641  0.99546  0.33339  1.0000
  C   C1579     1.0  0.73544  0.59392  0.27651  1.0000
  H   H2762     1.0  0.91897  0.70372  0.39498  1.0000
  H   H2763     1.0  0.68564  0.60430  0.25701  1.0000
  H   H2764     1.0  0.60392  0.71416  0.26978  1.0000
  H   H2765     1.0  0.55187  0.55995  0.25357  1.0000
  C   C1580     1.0  0.61823  0.81836  0.27602  1.0000
  H   H2766     1.0  0.58343  0.57776  0.43527  1.0000
  N   N85       1.0  0.64235  0.97526  0.33799  1.0000
  H   H2767     1.0  0.79805  0.68883  0.49178  1.0000
  H   H2768     1.0  0.68449  0.78325  0.28256  1.0000
  H   H2769     1.0  0.60452  0.62384  0.37718  1.0000
  C   C1581     1.0  0.98924  0.53770  0.42053  1.0000
  C   C1582     1.0  0.70778  0.51909  0.31070  1.0000
  C   C1583     1.0  0.72571  0.54835  0.30960  1.0000
  H   H2770     1.0  0.60109  0.99081  0.34856  1.0000
  H   H2771     1.0  0.56622  0.53738  0.27365  1.0000
  H   H2772     1.0  0.53145  0.96406  0.29636  1.0000
  H   H2773     1.0  0.73698  0.57898  0.26884  1.0000
  H   H2774     1.0  0.76779  0.56672  0.28979  1.0000
  H   H2775     1.0  0.51244  0.99328  0.35271  1.0000
  H   H2776     1.0  0.67849  0.96974  0.33416  1.0000
  H   H2777     1.0  0.66496  0.97873  0.31877  1.0000
  H   H2778     1.0  0.76545  0.92402  0.47918  1.0000
  N   N86       1.0  0.63272  0.75388  0.27296  1.0000
  C   C1584     1.0  0.98146  0.54329  0.40546  1.0000
  N   N87       1.0  0.55449  0.56574  0.28468  1.0000
  H   H2779     1.0  0.93775  0.75145  0.49539  1.0000
  H   H2780     1.0  0.68802  0.75744  0.27178  1.0000
  C   C1585     1.0  0.65517  0.57920  0.40591  1.0000
  C   C1586     1.0  0.00277  0.62342  0.29132  1.0000
  C   C1587     1.0  0.69473  0.75466  0.29421  1.0000
  H   H2781     1.0  0.89441  0.75372  0.48950  1.0000
  H   H2782     1.0  0.64454  0.80387  0.47574  1.0000
  H   H2783     1.0  0.97444  0.57792  0.41093  1.0000
  H   H2784     1.0  0.60228  0.94320  0.31730  1.0000
  C   C1588     1.0  0.59971  0.98443  0.33717  1.0000
  C   C1589     1.0  0.81736  0.70536  0.49361  1.0000
  H   H2785     1.0  0.86102  0.61409  0.39173  1.0000
  H   H2786     1.0  0.68643  0.60097  0.43073  1.0000
  H   H2787     1.0  0.95587  0.56363  0.36924  1.0000
  H   H2788     1.0  0.70128  0.80741  0.47884  1.0000
  C   C1590     1.0  0.62731  0.94576  0.33647  1.0000
  H   H2789     1.0  0.62633  0.82534  0.28693  1.0000
  H   H2790     1.0  0.55622  0.64337  0.30829  1.0000
  C   C1591     1.0  0.62896  0.59034  0.38783  1.0000
  H   H2791     1.0  0.58585  0.57734  0.38530  1.0000
  S   S364      1.0  0.54714  0.64486  0.26086  1.0000
  C   C1592     1.0  0.60382  0.90530  0.32069  1.0000
  C   C1593     1.0  0.92577  0.58740  0.40506  1.0000
  H   H2792     1.0  0.72147  0.54583  0.28634  1.0000
  H   H2793     1.0  0.97958  0.84658  0.41896  1.0000
  H   H2794     1.0  0.82321  0.61397  0.29759  1.0000
  N   N88       1.0  0.62781  0.57096  0.39960  1.0000
  C   C1594     1.0  0.75546  0.63598  0.30039  1.0000
  H   H2795     1.0  0.61019  0.93883  0.34374  1.0000
  C   C1595     1.0  0.70521  0.60330  0.25851  1.0000
  H   H2796     1.0  0.83236  0.63748  0.38337  1.0000
  H   H2797     1.0  0.59659  0.89860  0.30960  1.0000
  C   C1596     1.0  0.74826  0.65312  0.31110  1.0000
  C   C1597     1.0  0.81122  0.82550  0.50025  1.0000
  C   C1598     1.0  0.66821  0.98257  0.33049  1.0000
  H   H2798     1.0  0.54507  0.52905  0.29609  1.0000
  H   H2799     1.0  0.88832  0.70685  0.39857  1.0000
  H   H2800     1.0  0.65395  0.61429  0.41729  1.0000
  C   C1599     1.0  0.89766  0.73510  0.48817  1.0000
  C   C1600     1.0  0.55155  0.60635  0.29783  1.0000
  C   C1601     1.0  0.66208  0.99161  0.28799  1.0000
  S   S365      1.0  0.76948  0.98926  0.45977  1.0000
  H   H2801     1.0  0.74338  0.60141  0.31343  1.0000
  C   C1602     1.0  0.99264  0.58898  0.37895  1.0000
  H   H2802     1.0  0.77644  0.63968  0.30233  1.0000
  H   H2803     1.0  0.60273  0.71447  0.29512  1.0000
  C   C1603     1.0  0.66578  0.97292  0.36200  1.0000
  H   H2804     1.0  0.61568  0.98887  0.25204  1.0000
  H   H2805     1.0  0.63322  0.94139  0.31326  1.0000
  C   C1604     1.0  0.60508  0.73344  0.27420  1.0000
  H   H2806     1.0  0.59751  0.96833  0.27838  1.0000
  C   C1605     1.0  0.61706  0.93548  0.32108  1.0000
  H   H2807     1.0  0.59999  0.74604  0.29618  1.0000
  H   H2808     1.0  0.59392  0.55015  0.29903  1.0000
  H   H2809     1.0  0.72726  0.65011  0.30980  1.0000
  H   H2810     1.0  0.75191  0.64823  0.32229  1.0000
  H   H2811     1.0  0.76048  0.67433  0.30924  1.0000
  H   H2812     1.0  0.85391  0.56724  0.39071  1.0000
  H   H2813     1.0  0.96290  0.60393  0.39453  1.0000
  C   C1606     1.0  0.70828  0.59558  0.27399  1.0000
  H   H2814     1.0  0.93616  0.94187  0.42914  1.0000
  H   H2815     1.0  0.63386  0.61051  0.39239  1.0000
  H   H2816     1.0  0.60266  0.78276  0.26355  1.0000
  H   H2817     1.0  0.54795  0.59575  0.30818  1.0000
  H   H2818     1.0  0.66272  0.76726  0.25670  1.0000
  H   H2819     1.0  0.63656  0.52495  0.40879  1.0000
  C   C1607     1.0  0.51155  0.82801  0.27902  1.0000
  H   H2820     1.0  0.63978  0.93506  0.34004  1.0000
  S   S366      1.0  0.52697  0.70643  0.25712  1.0000
  H   H2821     1.0  0.60013  0.53778  0.38750  1.0000
  H   H2822     1.0  0.86433  0.65906  0.39711  1.0000
  C   C1608     1.0  0.81711  0.60596  0.28659  1.0000
  C   C1609     1.0  0.92391  0.53839  0.38957  1.0000
  C   C1610     1.0  0.55258  0.78678  0.25619  1.0000
  C   C1611     1.0  0.57782  0.54157  0.32002  1.0000
  H   H2823     1.0  0.64070  0.73356  0.25486  1.0000
  H   H2824     1.0  0.62562  0.98682  0.31942  1.0000
  H   H2825     1.0  0.58683  0.89825  0.32801  1.0000
  H   H2826     1.0  0.83433  0.66432  0.37240  1.0000
  C   C1612     1.0  0.65007  0.74520  0.28263  1.0000
  H   H2827     1.0  0.85495  0.56782  0.37138  1.0000
  C   C1613     1.0  0.72165  0.56000  0.29498  1.0000
  H   H2828     1.0  0.71751  0.60387  0.30323  1.0000
  C   C1614     1.0  0.88402  0.66696  0.39231  1.0000
  C   C1615     1.0  0.86253  0.57984  0.38129  1.0000
  C   C1616     1.0  0.66659  0.97947  0.37800  1.0000
  C   C1617     1.0  0.74886  0.74051  0.49928  1.0000
  H   H2829     1.0  0.65993  0.95124  0.36090  1.0000
  H   H2830     1.0  0.74612  0.54981  0.31127  1.0000
  N   N89       1.0  0.86292  0.64767  0.36736  1.0000
  C   C1618     1.0  0.83593  0.64465  0.37219  1.0000
  C   C1619     1.0  0.86527  0.65580  0.35176  1.0000
  C   C1620     1.0  0.86772  0.62238  0.36855  1.0000
  C   C1621     1.0  0.81263  0.62597  0.36286  1.0000
  C   C1622     1.0  0.89281  0.66337  0.34510  1.0000
  H   H2831     1.0  0.64509  0.59228  0.38030  1.0000
  C   C1623     1.0  0.78643  0.61921  0.37037  1.0000
  C   C1624     1.0  0.89171  0.66633  0.32882  1.0000
  H   H2832     1.0  0.90702  0.92711  0.41811  1.0000
  H   H2833     1.0  0.90346  0.67290  0.37237  1.0000
  H   H2834     1.0  0.85937  0.67292  0.35020  1.0000
  H   H2835     1.0  0.85153  0.63943  0.34494  1.0000
  H   H2836     1.0  0.86058  0.60999  0.35867  1.0000
  H   H2837     1.0  0.88920  0.62700  0.36906  1.0000
  H   H2838     1.0  0.81146  0.63568  0.35256  1.0000
  H   H2839     1.0  0.81502  0.60725  0.36039  1.0000
  H   H2840     1.0  0.90088  0.64813  0.34739  1.0000
  H   H2841     1.0  0.90672  0.68267  0.34944  1.0000
  C   C1625     1.0  0.96699  0.56371  0.37931  1.0000
  H   H2842     1.0  0.74926  0.72833  0.49021  1.0000
  H   H2843     1.0  0.78325  0.63751  0.37304  1.0000
  H   H2844     1.0  0.61800  0.89633  0.32383  1.0000
  C   C1626     1.0  0.76855  0.58683  0.29255  1.0000
  H   H2845     1.0  0.87887  0.64730  0.32372  1.0000
  H   H2846     1.0  0.88423  0.68185  0.32601  1.0000
  C   C1627     1.0  0.57182  0.55922  0.27421  1.0000
  C   C1628     1.0  0.56603  0.59528  0.28718  1.0000
  H   H2847     1.0  0.66815  0.82194  0.48956  1.0000
  C   C1629     1.0  0.58112  0.55653  0.30585  1.0000
  H   H2848     1.0  0.00332  0.65205  0.37662  1.0000
  H   H2849     1.0  0.68852  0.75955  0.30474  1.0000
  H   H2850     1.0  0.56739  0.51993  0.31831  1.0000
  H   H2851     1.0  0.59260  0.56775  0.27797  1.0000
  H   H2852     1.0  0.58689  0.60200  0.29070  1.0000
  C   C1630     1.0  0.96261  0.55818  0.40609  1.0000
  H   H2853     1.0  0.68185  0.97427  0.38356  1.0000
  H   H2854     1.0  0.59149  0.57789  0.30837  1.0000
  H   H2855     1.0  0.52759  0.95662  0.27732  1.0000
  H   H2856     1.0  0.85642  0.80793  0.38967  1.0000
  H   H2857     1.0  0.76073  0.83225  0.48754  1.0000
  S   S367      1.0  0.50646  0.89066  0.26592  1.0000
  H   H2858     1.0  0.62740  0.97384  0.35944  1.0000
  H   H2859     1.0  0.83323  0.59610  0.38047  1.0000
  C   C1631     1.0  0.62743  0.99024  0.33118  1.0000
  C   C1632     1.0  0.61107  0.78861  0.27443  1.0000
  H   H2860     1.0  0.83056  0.69751  0.49931  1.0000
  H   H2861     1.0  0.65258  0.79648  0.27222  1.0000
  H   H2862     1.0  0.98479  0.54618  0.29099  1.0000
  H   H2863     1.0  0.58704  0.96308  0.33642  1.0000
  C   C1633     1.0  0.52718  0.55681  0.27807  1.0000
  H   H2864     1.0  0.68693  0.51616  0.30887  1.0000
  N   N90       1.0  0.71520  0.83780  0.45276  1.0000
  C   C1634     1.0  0.69252  0.83270  0.46279  1.0000
  C   C1635     1.0  0.72160  0.86368  0.44483  1.0000
  C   C1636     1.0  0.70658  0.81568  0.44175  1.0000
  C   C1637     1.0  0.73917  0.83746  0.46053  1.0000
  C   C1638     1.0  0.75017  0.85763  0.47298  1.0000
  C   C1639     1.0  0.68460  0.80722  0.47200  1.0000
  C   C1640     1.0  0.72626  0.81813  0.42958  1.0000
  C   C1641     1.0  0.71735  0.88648  0.45284  1.0000
  C   C1642     1.0  0.72829  0.91231  0.44442  1.0000
  C   C1643     1.0  0.77037  0.85144  0.48198  1.0000
  H   H2865     1.0  0.98970  0.61893  0.26920  1.0000
  C   C1644     1.0  0.71386  0.79730  0.41786  1.0000
  H   H2866     1.0  0.67484  0.83183  0.45655  1.0000
  H   H2867     1.0  0.69654  0.84922  0.47052  1.0000
  H   H2868     1.0  0.74235  0.87143  0.44118  1.0000
  H   H2869     1.0  0.70941  0.86052  0.43482  1.0000
  H   H2870     1.0  0.68754  0.81381  0.43666  1.0000
  H   H2871     1.0  0.70305  0.79630  0.44689  1.0000
  H   H2872     1.0  0.73553  0.81726  0.46455  1.0000
  H   H2873     1.0  0.75559  0.84157  0.45297  1.0000
  H   H2874     1.0  0.73468  0.85759  0.48038  1.0000
  H   H2875     1.0  0.76013  0.87780  0.46855  1.0000
  H   H2876     1.0  0.67779  0.78914  0.46520  1.0000
  H   H2877     1.0  0.82471  0.83272  0.49107  1.0000
  H   H2878     1.0  0.74341  0.81488  0.43405  1.0000
  H   H2879     1.0  0.73343  0.83778  0.42437  1.0000
  H   H2880     1.0  0.69602  0.88147  0.45424  1.0000
  H   H2881     1.0  0.72695  0.89017  0.46352  1.0000
  H   H2882     1.0  0.72467  0.92814  0.45034  1.0000
  H   H2883     1.0  0.74979  0.91876  0.44309  1.0000
  H   H2884     1.0  0.71867  0.90986  0.43367  1.0000
  H   H2885     1.0  0.55832  0.69497  0.28318  1.0000
  H   H2886     1.0  0.77837  0.95925  0.49795  1.0000
  H   H2887     1.0  0.78618  0.85030  0.47514  1.0000
  H   H2888     1.0  0.00127  0.59506  0.38983  1.0000
  H   H2889     1.0  0.64733  0.96815  0.38295  1.0000
  C   C1645     1.0  0.53997  0.76004  0.26020  1.0000
  H   H2890     1.0  0.70624  0.77707  0.42246  1.0000
  H   H2891     1.0  0.69758  0.80079  0.41233  1.0000
  H   H2892     1.0  0.72895  0.79852  0.40982  1.0000
  N   N91       1.0  0.89542  0.84783  0.42770  1.0000
  C   C1646     1.0  0.91990  0.84403  0.43260  1.0000
  C   C1647     1.0  0.87653  0.84292  0.44004  1.0000
  C   C1648     1.0  0.88233  0.82736  0.41616  1.0000
  C   C1649     1.0  0.90144  0.87478  0.42127  1.0000
  C   C1650     1.0  0.91775  0.89905  0.43064  1.0000
  C   C1651     1.0  0.94019  0.84592  0.42087  1.0000
  C   C1652     1.0  0.85550  0.82633  0.41032  1.0000
  C   C1653     1.0  0.88876  0.85126  0.45531  1.0000
  C   C1654     1.0  0.86826  0.85119  0.46615  1.0000
  C   C1655     1.0  0.92499  0.92467  0.42212  1.0000
  C   C1656     1.0  0.96608  0.84716  0.42755  1.0000
  C   C1657     1.0  0.84375  0.80409  0.39924  1.0000
  H   H2893     1.0  0.91430  0.82420  0.43760  1.0000
  H   H2894     1.0  0.93050  0.85825  0.44120  1.0000
  H   H2895     1.0  0.86236  0.85252  0.43793  1.0000
  H   H2896     1.0  0.86413  0.82136  0.44094  1.0000
  H   H2897     1.0  0.87930  0.80725  0.42016  1.0000
  H   H2898     1.0  0.89510  0.83064  0.40664  1.0000
  H   H2899     1.0  0.91139  0.87648  0.41081  1.0000
  H   H2900     1.0  0.88290  0.87742  0.41865  1.0000
  H   H2901     1.0  0.93634  0.89802  0.43457  1.0000
  H   H2902     1.0  0.90597  0.90071  0.43984  1.0000
  H   H2903     1.0  0.93267  0.82810  0.41382  1.0000
  H   H2904     1.0  0.94460  0.86379  0.41418  1.0000
  H   H2905     1.0  0.85762  0.84504  0.40491  1.0000
  H   H2906     1.0  0.84125  0.82289  0.41907  1.0000
  H   H2907     1.0  0.89730  0.83706  0.45915  1.0000
  H   H2908     1.0  0.90461  0.87118  0.45554  1.0000
  H   H2909     1.0  0.87781  0.85777  0.47681  1.0000
  H   H2910     1.0  0.85873  0.86481  0.46275  1.0000
  H   H2911     1.0  0.85314  0.83092  0.46728  1.0000
  H   H2912     1.0  0.93746  0.92466  0.41287  1.0000
  H   H2913     1.0  0.91173  0.67209  0.32442  1.0000
  Fe  Fe181     1.0  0.60194  0.91879  0.25860  1.0000
  H   H2914     1.0  0.66862  0.57661  0.39777  1.0000
  H   H2915     1.0  0.57082  0.54268  0.43111  1.0000
  H   H2916     1.0  0.65573  0.56624  0.41491  1.0000
  C   C1658     1.0  0.69204  0.61297  0.42082  1.0000
  C   C1659     1.0  0.61990  0.54400  0.39266  1.0000
  H   H2917     1.0  0.57812  0.59080  0.25810  1.0000
  N   N92       1.0  0.94986  0.56130  0.39213  1.0000
  H   H2918     1.0  0.64463  0.74565  0.29405  1.0000
  C   C1660     1.0  0.58807  0.55977  0.43530  1.0000
  C   C1661     1.0  0.64182  0.75376  0.25774  1.0000
  H   H2919     1.0  0.58781  0.55740  0.40694  1.0000
  C   C1662     1.0  0.63522  0.78131  0.27742  1.0000
  H   H2920     1.0  0.52305  0.53908  0.27107  1.0000
  C   C1663     1.0  0.61218  0.56406  0.42622  1.0000
  H   H2921     1.0  0.91006  0.53697  0.39834  1.0000
  H   H2922     1.0  0.50668  0.99361  0.29312  1.0000
  H   H2923     1.0  0.69096  0.73321  0.29387  1.0000
  S   S368      1.0  0.60209  0.51645  0.35826  1.0000
  C   C1664     1.0  0.66794  0.60833  0.41127  1.0000
  H   H2924     1.0  0.63362  0.54492  0.38385  1.0000
  C   C1665     1.0  0.75055  0.92683  0.48613  1.0000
  C   C1666     1.0  0.61605  0.98105  0.28320  1.0000
  C   C1667     1.0  0.56925  0.99607  0.25157  1.0000
  H   H2925     1.0  0.98812  0.60549  0.37438  1.0000
  C   C1668     1.0  0.99691  0.66433  0.38338  1.0000
  H   H2926     1.0  0.55522  0.72648  0.28525  1.0000
  H   H2927     1.0  0.71618  0.76610  0.29319  1.0000
  H   H2928     1.0  0.62899  0.58039  0.43130  1.0000
  H   H2929     1.0  0.56663  0.60595  0.27698  1.0000
  H   H2930     1.0  0.93180  0.58196  0.41558  1.0000
  H   H2931     1.0  0.63937  0.78447  0.28916  1.0000
  C   C1669     1.0  0.60449  0.60776  0.36991  1.0000
  H   H2932     1.0  0.63283  0.82938  0.26785  1.0000
  H   H2933     1.0  0.70595  0.61079  0.28106  1.0000
  H   H2934     1.0  0.97221  0.54623  0.37818  1.0000
  H   H2935     1.0  0.79952  0.73321  0.49653  1.0000
  H   H2936     1.0  0.81694  0.58564  0.28599  1.0000
  H   H2937     1.0  0.72094  0.55898  0.31856  1.0000
  C   C1670     1.0  0.79007  0.60582  0.28271  1.0000
  H   H2938     1.0  0.77618  0.59052  0.30380  1.0000
  H   H2939     1.0  0.73427  0.90744  0.48799  1.0000
  H   H2940     1.0  0.97571  0.86573  0.43385  1.0000
  C   C1671     1.0  0.92576  0.61518  0.40660  1.0000
  C   C1672     1.0  0.94433  0.58624  0.39293  1.0000
  C   C1673     1.0  0.91952  0.73477  0.49831  1.0000
  H   H2941     1.0  0.68605  0.98288  0.35799  1.0000
  H   H2942     1.0  0.97229  0.56537  0.27975  1.0000
  H   H2943     1.0  0.94575  0.62978  0.40941  1.0000
  Fe  Fe182     1.0  0.58901  0.65974  0.25384  1.0000
  H   H2944     1.0  0.83099  0.79010  0.49365  1.0000
  H   H2945     1.0  0.62240  0.61538  0.36327  1.0000
  H   H2946     1.0  0.75018  0.61318  0.27298  1.0000
  H   H2947     1.0  0.74250  0.93989  0.48043  1.0000
  H   H2948     1.0  0.53261  0.60498  0.29296  1.0000
  Fe  Fe183     1.0  0.54273  0.89130  0.25471  1.0000
  H   H2949     1.0  0.67938  0.98717  0.28670  1.0000
  H   H2950     1.0  0.57190  0.64741  0.29115  1.0000
  H   H2951     1.0  0.55167  0.80237  0.26298  1.0000
  H   H2952     1.0  0.59743  0.54513  0.32481  1.0000
  C   C1674     1.0  0.61817  0.52073  0.40254  1.0000
  H   H2953     1.0  0.56680  0.54853  0.32779  1.0000
  H   H2954     1.0  0.99978  0.55545  0.39990  1.0000
  H   H2955     1.0  0.87908  0.71793  0.49019  1.0000
  H   H2956     1.0  0.99895  0.55645  0.42667  1.0000
  H   H2957     1.0  0.72045  0.62306  0.25605  1.0000
  C   C1675     1.0  0.54203  0.73976  0.25169  1.0000
  H   H2958     1.0  0.79185  0.81157  0.49612  1.0000
  H   H2959     1.0  0.97041  0.53365  0.27349  1.0000
  C   C1676     1.0  0.98264  0.55160  0.27971  1.0000
  H   H2960     1.0  0.54612  0.98998  0.28353  1.0000
  C   C1677     1.0  0.58604  0.99959  0.32882  1.0000
  H   H2961     1.0  0.52582  0.57242  0.27080  1.0000
  H   H2962     1.0  0.67158  0.00096  0.37963  1.0000
  H   H2963     1.0  0.51682  0.84932  0.28139  1.0000
  H   H2964     1.0  0.59198  0.55553  0.44656  1.0000
  C   C1678     1.0  0.52873  0.97159  0.28564  1.0000
  H   H2965     1.0  0.58342  0.99344  0.31736  1.0000
  H   H2966     1.0  0.76092  0.99951  0.49552  1.0000
  H   H2967     1.0  0.51629  0.00018  0.40789  1.0000
  H   H2968     1.0  0.57270  0.98689  0.26160  1.0000
  H   H2969     1.0  0.88407  0.79397  0.49508  1.0000
  H   H2970     1.0  0.65685  0.78644  0.48840  1.0000
  H   H2971     1.0  0.84808  0.75741  0.49416  1.0000
  H   H2972     1.0  0.70979  0.51183  0.32161  1.0000
  H   H2973     1.0  0.87226  0.81987  0.49782  1.0000
  H   H2974     1.0  0.92062  0.83691  0.49767  1.0000
  H   H2975     1.0  0.70672  0.58839  0.25088  1.0000
  H   H2976     1.0  0.71334  0.50720  0.30271  1.0000
  H   H2977     1.0  0.92881  0.50423  0.39935  1.0000
  C   C1679     1.0  0.76299  0.93958  0.50039  1.0000
  H   H2978     1.0  0.00322  0.52767  0.41976  1.0000
  Fe  Fe184     1.0  0.80885  0.99701  0.58987  1.0000
  S   S369      1.0  0.83225  0.97167  0.59330  1.0000
  S   S370      1.0  0.76517  0.97873  0.58764  1.0000
  H   H2979     1.0  0.83773  0.80672  0.63465  1.0000
  H   H2980     1.0  0.59974  0.69296  0.62186  1.0000
  Fe  Fe185     1.0  0.98385  0.78073  0.57252  1.0000
  S   S371      1.0  0.95264  0.79484  0.56379  1.0000
  S   S372      1.0  0.97793  0.73794  0.57013  1.0000
  Fe  Fe186     1.0  0.77932  0.82212  0.57141  1.0000
  S   S373      1.0  0.74081  0.78693  0.57069  1.0000
  S   S374      1.0  0.77743  0.85993  0.56276  1.0000
  Fe  Fe187     1.0  0.80985  0.78979  0.58288  1.0000
  S   S375      1.0  0.77343  0.75249  0.58290  1.0000
  S   S376      1.0  0.84600  0.78605  0.59309  1.0000
  Fe  Fe188     1.0  0.76501  0.76613  0.56130  1.0000
  S   S377      1.0  0.75540  0.73751  0.54257  1.0000
  Fe  Fe189     1.0  0.75264  0.77660  0.59239  1.0000
  S   S378      1.0  0.73111  0.76911  0.61386  1.0000
  S   S379      1.0  0.80278  0.80185  0.56066  1.0000
  S   S380      1.0  0.78975  0.81352  0.59363  1.0000
  H   H2981     1.0  0.88157  0.72862  0.53781  1.0000
  H   H2982     1.0  0.82250  0.95725  0.51409  1.0000
  H   H2983     1.0  0.66288  0.76859  0.63087  1.0000
  C   C1680     1.0  0.75631  0.99658  0.51858  1.0000
  Fe  Fe190     1.0  0.55119  0.91762  0.67666  1.0000
  S   S381      1.0  0.56197  0.90538  0.69803  1.0000
  Fe  Fe191     1.0  0.60579  0.92736  0.66427  1.0000
  S   S382      1.0  0.61999  0.91551  0.68482  1.0000
  S   S383      1.0  0.62616  0.93642  0.64250  1.0000
  Fe  Fe192     1.0  0.58037  0.88193  0.68548  1.0000
  S   S384      1.0  0.57630  0.84140  0.69395  1.0000
  Fe  Fe193     1.0  0.60075  0.93990  0.69591  1.0000
  S   S385      1.0  0.61989  0.96218  0.71657  1.0000
  S   S386      1.0  0.56724  0.89200  0.66424  1.0000
  S   S387      1.0  0.58897  0.95396  0.67523  1.0000
  Fe  Fe194     1.0  0.60357  0.66991  0.65765  1.0000
  S   S388      1.0  0.60736  0.69670  0.67667  1.0000
  S   S389      1.0  0.63245  0.67388  0.63942  1.0000
  Fe  Fe195     1.0  0.54546  0.63355  0.66482  1.0000
  S   S390      1.0  0.54528  0.65922  0.68360  1.0000
  Fe  Fe196     1.0  0.56730  0.69490  0.66995  1.0000
  S   S391      1.0  0.55795  0.73091  0.66353  1.0000
  Fe  Fe197     1.0  0.58534  0.65888  0.68877  1.0000
  S   S392      1.0  0.58993  0.64702  0.71183  1.0000
  S   S393      1.0  0.56424  0.66903  0.65063  1.0000
  S   S394      1.0  0.58475  0.63226  0.67036  1.0000
  C   C1681     1.0  0.57295  0.81162  0.68495  1.0000
  C   C1682     1.0  0.57700  0.79153  0.69277  1.0000
  C   C1683     1.0  0.57315  0.76695  0.68633  1.0000
  C   C1684     1.0  0.56452  0.76194  0.67206  1.0000
  C   C1685     1.0  0.56054  0.78207  0.66421  1.0000
  C   C1686     1.0  0.56510  0.80691  0.67053  1.0000
  H   H2984     1.0  0.58297  0.79493  0.70395  1.0000
  H   H2985     1.0  0.57620  0.75168  0.69253  1.0000
  H   H2986     1.0  0.55360  0.77832  0.65321  1.0000
  H   H2987     1.0  0.56182  0.82211  0.66439  1.0000
  C   C1687     1.0  0.64870  0.61521  0.73139  1.0000
  C   C1688     1.0  0.62346  0.60773  0.73689  1.0000
  C   C1689     1.0  0.60550  0.61721  0.73058  1.0000
  C   C1690     1.0  0.61205  0.63308  0.71826  1.0000
  C   C1691     1.0  0.63677  0.63934  0.71227  1.0000
  C   C1692     1.0  0.65514  0.63077  0.71894  1.0000
  C   C1693     1.0  0.98620  0.50893  0.69529  1.0000
  H   H2988     1.0  0.58652  0.61249  0.73538  1.0000
  H   H2989     1.0  0.64216  0.65175  0.70286  1.0000
  H   H2990     1.0  0.67460  0.63661  0.71457  1.0000
  H   H2991     1.0  0.92189  0.99293  0.55565  1.0000
  C   C1694     1.0  0.84017  0.75077  0.50501  1.0000
  H   H2992     1.0  0.66704  0.00298  0.69977  1.0000
  C   C1695     1.0  0.71992  0.91601  0.54369  1.0000
  H   H2993     1.0  0.77261  0.93938  0.54396  1.0000
  H   H2994     1.0  0.83582  0.92616  0.52348  1.0000
  H   H2995     1.0  0.56260  0.53294  0.68529  1.0000
  C   C1696     1.0  0.80658  0.75577  0.62352  1.0000
  H   H2996     1.0  0.95321  0.52141  0.69619  1.0000
  C   C1697     1.0  0.96132  0.78706  0.51526  1.0000
  C   C1698     1.0  0.64429  0.00254  0.73583  1.0000
  C   C1699     1.0  0.00192  0.53068  0.68467  1.0000
  H   H2997     1.0  0.95153  0.59433  0.73565  1.0000
  H   H2998     1.0  0.80502  0.67495  0.59672  1.0000
  C   C1700     1.0  0.70289  0.74290  0.62048  1.0000
  C   C1701     1.0  0.68557  0.72302  0.61159  1.0000
  C   C1702     1.0  0.66373  0.70244  0.61751  1.0000
  C   C1703     1.0  0.65873  0.70161  0.63232  1.0000
  C   C1704     1.0  0.67597  0.72163  0.64116  1.0000
  C   C1705     1.0  0.69780  0.74217  0.63527  1.0000
  H   H2999     1.0  0.68917  0.72326  0.60020  1.0000
  H   H3000     1.0  0.65078  0.68685  0.61058  1.0000
  H   H3001     1.0  0.67304  0.72066  0.65262  1.0000
  H   H3002     1.0  0.71113  0.75732  0.64227  1.0000
  C   C1706     1.0  0.75134  0.74817  0.52517  1.0000
  H   H3003     1.0  0.96369  0.55243  0.73027  1.0000
  C   C1707     1.0  0.80482  0.71150  0.61771  1.0000
  C   C1708     1.0  0.74724  0.77151  0.52294  1.0000
  H   H3004     1.0  0.75499  0.71449  0.51498  1.0000
  H   H3005     1.0  0.74652  0.78349  0.53203  1.0000
  H   H3006     1.0  0.79314  0.52694  0.74102  1.0000
  C   C1709     1.0  0.92270  0.79140  0.57197  1.0000
  C   C1710     1.0  0.91655  0.78150  0.58584  1.0000
  C   C1711     1.0  0.89280  0.77967  0.59205  1.0000
  C   C1712     1.0  0.87481  0.78734  0.58440  1.0000
  C   C1713     1.0  0.88063  0.79660  0.57036  1.0000
  C   C1714     1.0  0.90459  0.79885  0.56425  1.0000
  H   H3007     1.0  0.93027  0.77568  0.59189  1.0000
  H   H3008     1.0  0.88849  0.77254  0.60291  1.0000
  H   H3009     1.0  0.86702  0.80271  0.56441  1.0000
  H   H3010     1.0  0.90923  0.80662  0.55353  1.0000
  C   C1715     1.0  0.77510  0.92217  0.50848  1.0000
  C   C1716     1.0  0.55374  0.55836  0.67015  1.0000
  C   C1717     1.0  0.68000  0.96229  0.64743  1.0000
  C   C1718     1.0  0.65912  0.95509  0.63753  1.0000
  C   C1719     1.0  0.66452  0.96222  0.62307  1.0000
  C   C1720     1.0  0.69039  0.97685  0.61858  1.0000
  H   H3011     1.0  0.67620  0.95631  0.65849  1.0000
  H   H3012     1.0  0.64851  0.95675  0.61532  1.0000
  C   C1721     1.0  0.82244  0.81188  0.51124  1.0000
  C   C1722     1.0  0.81677  0.94016  0.58528  1.0000
  C   C1723     1.0  0.82511  0.91965  0.58861  1.0000
  C   C1724     1.0  0.81286  0.89457  0.58206  1.0000
  C   C1725     1.0  0.79226  0.89005  0.57217  1.0000
  C   C1726     1.0  0.78368  0.91038  0.56912  1.0000
  C   C1727     1.0  0.79608  0.93542  0.57545  1.0000
  H   H3013     1.0  0.84112  0.92318  0.59620  1.0000
  H   H3014     1.0  0.81958  0.87891  0.58449  1.0000
  H   H3015     1.0  0.76743  0.90672  0.56171  1.0000
  H   H3016     1.0  0.78993  0.95117  0.57248  1.0000
  H   H3017     1.0  0.80107  0.97313  0.51821  1.0000
  H   H3018     1.0  0.83322  0.75449  0.64781  1.0000
  H   H3019     1.0  0.78359  0.72782  0.64922  1.0000
  H   H3020     1.0  0.55483  0.58818  0.70248  1.0000
  C   C1728     1.0  0.74681  0.85433  0.60104  1.0000
  N   N93       1.0  0.62764  0.77100  0.63925  1.0000
  C   C1729     1.0  0.60899  0.78437  0.63574  1.0000
  C   C1730     1.0  0.61427  0.74193  0.63548  1.0000
  C   C1731     1.0  0.63242  0.77307  0.65531  1.0000
  C   C1732     1.0  0.65370  0.78338  0.63182  1.0000
  C   C1733     1.0  0.65361  0.79539  0.61674  1.0000
  C   C1734     1.0  0.61728  0.81316  0.64145  1.0000
  C   C1735     1.0  0.60760  0.73494  0.61941  1.0000
  C   C1736     1.0  0.59011  0.70570  0.61734  1.0000
  C   C1737     1.0  0.67973  0.80143  0.60929  1.0000
  C   C1738     1.0  0.60156  0.82738  0.63414  1.0000
  H   H3021     1.0  0.58929  0.77268  0.64023  1.0000
  H   H3022     1.0  0.60539  0.78455  0.62404  1.0000
  H   H3023     1.0  0.59587  0.73278  0.64169  1.0000
  H   H3024     1.0  0.61345  0.76441  0.66104  1.0000
  H   H3025     1.0  0.64159  0.79414  0.65876  1.0000
  H   H3026     1.0  0.66784  0.79977  0.63846  1.0000
  H   H3027     1.0  0.65065  0.81422  0.61771  1.0000
  H   H3028     1.0  0.63791  0.78210  0.60959  1.0000
  H   H3029     1.0  0.61347  0.81293  0.65314  1.0000
  H   H3030     1.0  0.63848  0.82486  0.63982  1.0000
  H   H3031     1.0  0.59694  0.74633  0.61450  1.0000
  H   H3032     1.0  0.62595  0.73868  0.61345  1.0000
  H   H3033     1.0  0.58636  0.70107  0.60572  1.0000
  H   H3034     1.0  0.57095  0.70096  0.62264  1.0000
  H   H3035     1.0  0.69637  0.81459  0.61607  1.0000
  H   H3036     1.0  0.68259  0.78279  0.60709  1.0000
  H   H3037     1.0  0.67979  0.81129  0.59888  1.0000
  H   H3038     1.0  0.60610  0.83006  0.62254  1.0000
  H   H3039     1.0  0.58016  0.81595  0.63542  1.0000
  H   H3040     1.0  0.60665  0.84717  0.63917  1.0000
  H   H3041     1.0  0.88168  0.70238  0.55945  1.0000
  H   H3042     1.0  0.51796  0.56503  0.72098  1.0000
  N   N94       1.0  0.53556  0.54695  0.69591  1.0000
  H   H3043     1.0  0.73909  0.79646  0.50730  1.0000
  H   H3044     1.0  0.51355  0.82214  0.68911  1.0000
  H   H3045     1.0  0.76437  0.85535  0.59505  1.0000
  C   C1739     1.0  0.82527  0.72526  0.66422  1.0000
  H   H3046     1.0  0.79910  0.91539  0.54165  1.0000
  C   C1740     1.0  0.91096  0.99774  0.56438  1.0000
  H   H3047     1.0  0.74067  0.88435  0.58872  1.0000
  C   C1741     1.0  0.82454  0.73258  0.64845  1.0000
  H   H3048     1.0  0.79298  0.95021  0.62366  1.0000
  H   H3049     1.0  0.81070  0.81711  0.63665  1.0000
  H   H3050     1.0  0.51667  0.61296  0.70440  1.0000
  C   C1742     1.0  0.97852  0.81525  0.52005  1.0000
  H   H3051     1.0  0.86099  0.99179  0.52650  1.0000
  H   H3052     1.0  0.80864  0.84264  0.50533  1.0000
  S   S395      1.0  0.67337  0.60774  0.74049  1.0000
  C   C1743     1.0  0.80827  0.95798  0.52225  1.0000
  H   H3053     1.0  0.96664  0.82454  0.52569  1.0000
  H   H3054     1.0  0.74138  0.89270  0.53745  1.0000
  C   C1744     1.0  0.54006  0.53378  0.70931  1.0000
  C   C1745     1.0  0.51238  0.85970  0.64091  1.0000
  H   H3055     1.0  0.83806  0.73175  0.53215  1.0000
  H   H3056     1.0  0.93567  0.77899  0.53282  1.0000
  H   H3057     1.0  0.52994  0.58233  0.68937  1.0000
  H   H3058     1.0  0.51938  0.83929  0.66637  1.0000
  H   H3059     1.0  0.96282  0.73679  0.51136  1.0000
  C   C1746     1.0  0.83446  0.54348  0.73729  1.0000
  H   H3060     1.0  0.87493  0.73109  0.56411  1.0000
  H   H3061     1.0  0.90691  0.73109  0.56773  1.0000
  C   C1747     1.0  0.95281  0.72842  0.52151  1.0000
  H   H3062     1.0  0.51667  0.88001  0.64505  1.0000
  C   C1748     1.0  0.97219  0.60636  0.73452  1.0000
  H   H3063     1.0  0.58463  0.54751  0.73827  1.0000
  H   H3064     1.0  0.99446  0.81514  0.52741  1.0000
  C   C1749     1.0  0.69446  0.93820  0.57673  1.0000
  H   H3065     1.0  0.81334  0.73328  0.67076  1.0000
  C   C1750     1.0  0.68357  0.97842  0.68881  1.0000
  H   H3066     1.0  0.58261  0.55638  0.71255  1.0000
  C   C1751     1.0  0.69325  0.90356  0.61917  1.0000
  C   C1752     1.0  0.82573  0.76487  0.52768  1.0000
  H   H3067     1.0  0.82830  0.76186  0.62401  1.0000
  H   H3068     1.0  0.62628  0.98917  0.64802  1.0000
  H   H3069     1.0  0.73874  0.93067  0.63771  1.0000
  H   H3070     1.0  0.64188  0.73843  0.66007  1.0000
  C   C1753     1.0  0.83784  0.74965  0.53758  1.0000
  C   C1754     1.0  0.82218  0.74056  0.55132  1.0000
  H   H3071     1.0  0.72692  0.91704  0.58755  1.0000
  H   H3072     1.0  0.00193  0.69913  0.63784  1.0000
  H   H3073     1.0  0.83729  0.72478  0.64250  1.0000
  H   H3074     1.0  0.82599  0.78219  0.53401  1.0000
  H   H3075     1.0  0.80456  0.75245  0.52598  1.0000
  H   H3076     1.0  0.79950  0.77082  0.64458  1.0000
  H   H3077     1.0  0.68128  0.91973  0.57125  1.0000
  H   H3078     1.0  0.73645  0.94819  0.61439  1.0000
  C   C1755     1.0  0.77862  0.95145  0.63157  1.0000
  H   H3079     1.0  0.71588  0.93338  0.54003  1.0000
  C   C1756     1.0  0.91201  0.73562  0.51429  1.0000
  H   H3080     1.0  0.92712  0.53737  0.71315  1.0000
  H   H3081     1.0  0.85819  0.76254  0.54084  1.0000
  H   H3082     1.0  0.82142  0.75770  0.55735  1.0000
  H   H3083     1.0  0.80189  0.72644  0.54877  1.0000
  S   S396      1.0  0.51204  0.91905  0.66893  1.0000
  H   H3084     1.0  0.71595  0.68935  0.61002  1.0000
  H   H3085     1.0  0.82646  0.71945  0.61948  1.0000
  H   H3086     1.0  0.50998  0.79736  0.65858  1.0000
  H   H3087     1.0  0.91228  0.70645  0.53878  1.0000
  H   H3088     1.0  0.68645  0.94399  0.69894  1.0000
  H   H3089     1.0  0.99369  0.51547  0.73367  1.0000
  H   H3090     1.0  0.54912  0.57625  0.66994  1.0000
  H   H3091     1.0  0.69893  0.97987  0.68094  1.0000
  C   C1757     1.0  0.66864  0.88927  0.64254  1.0000
  H   H3092     1.0  0.50885  0.78582  0.67675  1.0000
  H   H3093     1.0  0.79097  0.92147  0.50148  1.0000
  C   C1758     1.0  0.95125  0.53101  0.73018  1.0000
  C   C1759     1.0  0.82488  0.88649  0.53109  1.0000
  H   H3094     1.0  0.52233  0.52707  0.71614  1.0000
  S   S397      1.0  0.51225  0.59549  0.65641  1.0000
  H   H3095     1.0  0.91522  0.53833  0.73091  1.0000
  H   H3096     1.0  0.85419  0.74314  0.51004  1.0000
  C   C1760     1.0  0.51513  0.57405  0.71080  1.0000
  H   H3097     1.0  0.96250  0.69665  0.50072  1.0000
  C   C1761     1.0  0.82339  0.96953  0.53645  1.0000
  C   C1762     1.0  0.94845  0.76970  0.52829  1.0000
  H   H3098     1.0  0.69459  0.89280  0.58968  1.0000
  C   C1763     1.0  0.51806  0.60229  0.71430  1.0000
  H   H3099     1.0  0.90334  0.75077  0.51542  1.0000
  N   N95       1.0  0.93343  0.74046  0.52549  1.0000
  H   H3100     1.0  0.72945  0.83841  0.59609  1.0000
  C   C1764     1.0  0.56698  0.53521  0.73186  1.0000
  C   C1765     1.0  0.98775  0.61674  0.74677  1.0000
  S   S398      1.0  0.99637  0.71772  0.60957  1.0000
  H   H3101     1.0  0.58300  0.54605  0.66054  1.0000
  C   C1766     1.0  0.55787  0.55090  0.68579  1.0000
  H   H3102     1.0  0.66413  0.96583  0.68421  1.0000
  C   C1767     1.0  0.86683  0.79314  0.51639  1.0000
  H   H3103     1.0  0.77802  0.89120  0.52981  1.0000
  H   H3104     1.0  0.76031  0.90144  0.50872  1.0000
  C   C1768     1.0  0.50951  0.52959  0.68925  1.0000
  H   H3105     1.0  0.97856  0.69342  0.51729  1.0000
  H   H3106     1.0  0.84180  0.88403  0.52595  1.0000
  H   H3107     1.0  0.75499  0.90996  0.63100  1.0000
  H   H3108     1.0  0.83163  0.73039  0.55835  1.0000
  C   C1769     1.0  0.68913  0.88601  0.63272  1.0000
  H   H3109     1.0  0.53725  0.61327  0.71972  1.0000
  C   C1770     1.0  0.98329  0.61184  0.72074  1.0000
  H   H3110     1.0  0.76294  0.89640  0.60385  1.0000
  H   H3111     1.0  0.84200  0.82643  0.51462  1.0000
  H   H3112     1.0  0.70103  0.89856  0.54406  1.0000
  H   H3113     1.0  0.71133  0.95216  0.59741  1.0000
  H   H3114     1.0  0.99816  0.55717  0.74289  1.0000
  N   N96       1.0  0.78574  0.93146  0.52337  1.0000
  H   H3115     1.0  0.96894  0.73388  0.52971  1.0000
  H   H3116     1.0  0.93984  0.68894  0.53112  1.0000
  H   H3117     1.0  0.83499  0.70439  0.59544  1.0000
  H   H3118     1.0  0.99271  0.51498  0.70650  1.0000
  H   H3119     1.0  0.90484  0.75773  0.54627  1.0000
  C   C1771     1.0  0.94851  0.51916  0.74546  1.0000
  C   C1772     1.0  0.74046  0.92984  0.61432  1.0000
  H   H3120     1.0  0.84583  0.73379  0.66836  1.0000
  C   C1773     1.0  0.81812  0.90747  0.52312  1.0000
  H   H3121     1.0  0.66638  0.78738  0.67950  1.0000
  C   C1774     1.0  0.75208  0.73269  0.51330  1.0000
  H   H3122     1.0  0.81370  0.90087  0.51178  1.0000
  C   C1775     1.0  0.57834  0.56397  0.66128  1.0000
  C   C1776     1.0  0.88215  0.80803  0.50310  1.0000
  H   H3123     1.0  0.96410  0.77258  0.53660  1.0000
  H   H3124     1.0  0.74933  0.84916  0.61233  1.0000
  H   H3125     1.0  0.68189  0.86483  0.62946  1.0000
  H   H3126     1.0  0.74746  0.94252  0.50667  1.0000
  N   N97       1.0  0.79282  0.72670  0.62672  1.0000
  N   N98       1.0  0.71625  0.90639  0.60970  1.0000
  H   H3127     1.0  0.89555  0.71624  0.51616  1.0000
  C   C1777     1.0  0.76512  0.93466  0.53274  1.0000
  H   H3128     1.0  0.72858  0.91999  0.55470  1.0000
  C   C1778     1.0  0.81769  0.80360  0.63069  1.0000
  H   H3129     1.0  0.95987  0.52078  0.72288  1.0000
  H   H3130     1.0  0.79770  0.69044  0.62110  1.0000
  C   C1779     1.0  0.89886  0.73614  0.54518  1.0000
  H   H3131     1.0  0.52326  0.98937  0.69852  1.0000
  H   H3132     1.0  0.90383  0.98060  0.57179  1.0000
  H   H3133     1.0  0.67867  0.92740  0.59767  1.0000
  H   H3134     1.0  0.87871  0.78278  0.52123  1.0000
  C   C1780     1.0  0.89007  0.72434  0.56000  1.0000
  H   H3135     1.0  0.94595  0.78843  0.50789  1.0000
  H   H3136     1.0  0.76086  0.72533  0.61248  1.0000
  H   H3137     1.0  0.75514  0.72867  0.63075  1.0000
  H   H3138     1.0  0.95025  0.66610  0.51061  1.0000
  H   H3139     1.0  0.71019  0.69228  0.62893  1.0000
  H   H3140     1.0  0.98756  0.82737  0.51054  1.0000
  C   C1781     1.0  0.71824  0.68245  0.62097  1.0000
  C   C1782     1.0  0.74707  0.68841  0.62440  1.0000
  C   C1783     1.0  0.68799  0.96412  0.70204  1.0000
  C   C1784     1.0  0.70936  0.91132  0.59449  1.0000
  H   H3141     1.0  0.83918  0.55812  0.74620  1.0000
  H   H3142     1.0  0.70664  0.66079  0.62147  1.0000
  C   C1785     1.0  0.76394  0.71851  0.62335  1.0000
  H   H3143     1.0  0.90897  0.84260  0.51484  1.0000
  H   H3144     1.0  0.86727  0.80803  0.52464  1.0000
  H   H3145     1.0  0.80229  0.75988  0.61230  1.0000
  H   H3146     1.0  0.53741  0.54212  0.66467  1.0000
  H   H3147     1.0  0.71369  0.94608  0.57128  1.0000
  H   H3148     1.0  0.68560  0.95319  0.57575  1.0000
  C   C1786     1.0  0.80924  0.51965  0.74035  1.0000
  C   C1787     1.0  0.65592  0.76582  0.67748  1.0000
  H   H3149     1.0  0.70287  0.86433  0.60585  1.0000
  H   H3150     1.0  0.77881  0.77325  0.63012  1.0000
  C   C1788     1.0  0.52086  0.97180  0.74059  1.0000
  H   H3151     1.0  0.66423  0.87481  0.65145  1.0000
  H   H3152     1.0  0.81871  0.80871  0.61914  1.0000
  H   H3153     1.0  0.59538  0.58047  0.66611  1.0000
  C   C1789     1.0  0.53496  0.57370  0.69922  1.0000
  Fe  Fe198     1.0  0.00373  0.74437  0.58999  1.0000
  H   H3154     1.0  0.93678  0.73311  0.54812  1.0000
  H   H3155     1.0  0.54291  0.51535  0.70647  1.0000
  H   H3156     1.0  0.57493  0.56983  0.65025  1.0000
  H   H3157     1.0  0.69408  0.98295  0.60752  1.0000
  C   C1790     1.0  0.92127  0.72837  0.53956  1.0000
  C   C1791     1.0  0.63732  0.70294  0.73480  1.0000
  H   H3158     1.0  0.65542  0.72130  0.73514  1.0000
  H   H3159     1.0  0.72194  0.98203  0.65064  1.0000
  H   H3160     1.0  0.67440  0.89434  0.61301  1.0000
  H   H3161     1.0  0.78635  0.95055  0.64253  1.0000
  H   H3162     1.0  0.65013  0.88597  0.63652  1.0000
  H   H3163     1.0  0.69425  0.92347  0.62256  1.0000
  H   H3164     1.0  0.72514  0.87557  0.62050  1.0000
  H   H3165     1.0  0.53632  0.97262  0.73288  1.0000
  C   C1792     1.0  0.69812  0.93316  0.59258  1.0000
  H   H3166     1.0  0.97095  0.60391  0.71136  1.0000
  C   C1793     1.0  0.92457  0.52814  0.72392  1.0000
  C   C1794     1.0  0.73859  0.91049  0.53347  1.0000
  H   H3167     1.0  0.78860  0.69923  0.64407  1.0000
  H   H3168     1.0  0.83102  0.95571  0.54165  1.0000
  C   C1795     1.0  0.80046  0.71200  0.60126  1.0000
  C   C1796     1.0  0.65083  0.76015  0.66141  1.0000
  C   C1797     1.0  0.75198  0.92860  0.62937  1.0000
  H   H3169     1.0  0.77930  0.70362  0.59830  1.0000
  H   H3170     1.0  0.80947  0.80700  0.52072  1.0000
  C   C1798     1.0  0.79895  0.77491  0.63298  1.0000
  H   H3171     1.0  0.62040  0.70826  0.73196  1.0000
  C   C1799     1.0  0.95934  0.68800  0.51165  1.0000
  H   H3172     1.0  0.70741  0.89064  0.63910  1.0000
  C   C1800     1.0  0.72103  0.88104  0.60956  1.0000
  H   H3173     1.0  0.75633  0.93361  0.60638  1.0000
  H   H3174     1.0  0.80934  0.73247  0.59721  1.0000
  H   H3175     1.0  0.75368  0.67687  0.61674  1.0000
  H   H3176     1.0  0.81766  0.70342  0.66547  1.0000
  H   H3177     1.0  0.67007  0.76776  0.65600  1.0000
  C   C1801     1.0  0.81346  0.69598  0.59334  1.0000
  H   H3178     1.0  0.77672  0.97080  0.63036  1.0000
  H   H3179     1.0  0.66825  0.75547  0.68170  1.0000
  H   H3180     1.0  0.64613  0.98720  0.74252  1.0000
  H   H3181     1.0  0.83019  0.89248  0.54248  1.0000
  C   C1802     1.0  0.74399  0.88096  0.60018  1.0000
  H   H3182     1.0  0.67621  0.90947  0.64728  1.0000
  C   C1803     1.0  0.79602  0.72097  0.64231  1.0000
  H   H3183     1.0  0.81049  0.97406  0.54414  1.0000
  H   H3184     1.0  0.83198  0.55328  0.72728  1.0000
  H   H3185     1.0  0.80288  0.77228  0.50360  1.0000
  H   H3186     1.0  0.62667  0.73098  0.63863  1.0000
  H   H3187     1.0  0.81003  0.69679  0.58160  1.0000
  C   C1804     1.0  0.98660  0.50527  0.74401  1.0000
  H   H3188     1.0  0.74805  0.68108  0.63539  1.0000
  H   H3189     1.0  0.63711  0.75855  0.68337  1.0000
  H   H3190     1.0  0.57620  0.56689  0.68992  1.0000
  H   H3191     1.0  0.50553  0.85867  0.62958  1.0000
  H   H3192     1.0  0.67289  0.96203  0.71022  1.0000
  H   H3193     1.0  0.70778  0.97511  0.70684  1.0000
  H   H3194     1.0  0.56233  0.56887  0.72264  1.0000
  H   H3195     1.0  0.91136  0.50693  0.72286  1.0000
  C   C1805     1.0  0.84683  0.99533  0.53371  1.0000
  S   S399      1.0  0.75074  0.99190  0.54790  1.0000
  C   C1806     1.0  0.56420  0.55062  0.71870  1.0000
  H   H3196     1.0  0.54952  0.53014  0.73876  1.0000
  H   H3197     1.0  0.80791  0.86710  0.53082  1.0000
  H   H3198     1.0  0.51466  0.86687  0.71918  1.0000
  H   H3199     1.0  0.99676  0.77239  0.62954  1.0000
  C   C1807     1.0  0.63276  0.68915  0.74935  1.0000
  H   H3200     1.0  0.80474  0.71811  0.51283  1.0000
  N   N99       1.0  0.83908  0.77377  0.51350  1.0000
  H   H3201     1.0  0.56939  0.51678  0.72862  1.0000
  C   C1808     1.0  0.63165  0.99575  0.72234  1.0000
  C   C1809     1.0  0.82366  0.78624  0.50485  1.0000
  H   H3202     1.0  0.72874  0.90588  0.52277  1.0000
  H   H3203     1.0  0.53067  0.85582  0.64116  1.0000
  C   C1810     1.0  0.79437  0.91104  0.53007  1.0000
  H   H3204     1.0  0.76092  0.95205  0.52940  1.0000
  H   H3205     1.0  0.89378  0.00044  0.55953  1.0000
  C   C1811     1.0  0.71125  0.98416  0.62849  1.0000
  H   H3206     1.0  0.99386  0.52289  0.67387  1.0000
  H   H3207     1.0  0.61815  0.59554  0.74635  1.0000
  H   H3208     1.0  0.97383  0.77914  0.50927  1.0000
  C   C1812     1.0  0.94148  0.69774  0.52025  1.0000
  H   H3209     1.0  0.69694  0.66591  0.74914  1.0000
  H   H3210     1.0  0.63915  0.68964  0.72626  1.0000
  H   H3211     1.0  0.85109  0.53711  0.73590  1.0000
  H   H3212     1.0  0.65977  0.99069  0.66718  1.0000
  C   C1813     1.0  0.74305  0.77882  0.50893  1.0000
  C   C1814     1.0  0.90982  0.82710  0.50740  1.0000
  H   H3213     1.0  0.50925  0.86591  0.69291  1.0000
  H   H3214     1.0  0.73705  0.98079  0.51797  1.0000
  H   H3215     1.0  0.53145  0.84798  0.71126  1.0000
  C   C1815     1.0  0.70590  0.97667  0.64291  1.0000
  H   H3216     1.0  0.67373  0.69528  0.75047  1.0000
  H   H3217     1.0  0.50437  0.75051  0.65941  1.0000
  H   H3218     1.0  0.65277  0.66319  0.74508  1.0000
  H   H3219     1.0  0.61342  0.67225  0.74867  1.0000
  H   H3220     1.0  0.92078  0.81631  0.51271  1.0000
  H   H3221     1.0  0.99654  0.54806  0.68629  1.0000
  H   H3222     1.0  0.92168  0.68987  0.51514  1.0000
  C   C1816     1.0  0.51182  0.84842  0.71318  1.0000
  C   C1817     1.0  0.81364  0.72703  0.50253  1.0000
  H   H3223     1.0  0.51444  0.95282  0.74652  1.0000
  H   H3224     1.0  0.50482  0.53952  0.67985  1.0000
  H   H3225     1.0  0.80534  0.50608  0.73101  1.0000
  S   S400      1.0  0.74416  0.00335  0.62366  1.0000
  H   H3226     1.0  0.85696  0.00346  0.54405  1.0000
  H   H3227     1.0  0.50586  0.96009  0.70880  1.0000
  H   H3228     1.0  0.84770  0.58748  0.87908  1.0000
  H   H3229     1.0  0.76598  0.57972  0.89090  1.0000
  H   H3230     1.0  0.85993  0.62626  0.79619  1.0000
  H   H3231     1.0  0.66966  0.53849  0.96996  1.0000
  H   H3232     1.0  0.72692  0.66332  0.77684  1.0000
  S   S401      1.0  0.73528  0.72191  0.96416  1.0000
  Fe  Fe199     1.0  0.89804  0.58595  0.93038  1.0000
  S   S402      1.0  0.87480  0.54209  0.93342  1.0000
  S   S403      1.0  0.90335  0.61253  0.95022  1.0000
  Fe  Fe200     1.0  0.90240  0.57859  0.89790  1.0000
  S   S404      1.0  0.88025  0.53478  0.89867  1.0000
  S   S405      1.0  0.91761  0.59952  0.87687  1.0000
  Fe  Fe201     1.0  0.85314  0.54435  0.91323  1.0000
  S   S406      1.0  0.81004  0.52211  0.90825  1.0000
  Fe  Fe202     1.0  0.90372  0.53600  0.91862  1.0000
  S   S407      1.0  0.87366  0.58837  0.91118  1.0000
  S   S408      1.0  0.92864  0.57963  0.91689  1.0000
  Fe  Fe203     1.0  0.88947  0.53135  0.76540  1.0000
  S   S409      1.0  0.92491  0.54497  0.77986  1.0000
  Fe  Fe204     1.0  0.87439  0.57720  0.77344  1.0000
  S   S410      1.0  0.90954  0.59520  0.78827  1.0000
  C   C1818     1.0  0.58155  0.51799  0.81116  1.0000
  H   H3233     1.0  0.63903  0.62029  0.78458  1.0000
  Fe  Fe205     1.0  0.89920  0.55346  0.79590  1.0000
  S   S411      1.0  0.89187  0.53520  0.81807  1.0000
  S   S412      1.0  0.86297  0.53629  0.78198  1.0000
  Fe  Fe206     1.0  0.65075  0.56884  0.79112  1.0000
  S   S413      1.0  0.65158  0.52831  0.79021  1.0000
  S   S414      1.0  0.63863  0.58505  0.81094  1.0000
  H   H3234     1.0  0.83700  0.53528  0.81051  1.0000
  H   H3235     1.0  0.90548  0.68497  0.99111  1.0000
  Fe  Fe207     1.0  0.68933  0.54822  0.77814  1.0000
  H   H3236     1.0  0.74885  0.61042  0.90104  1.0000
  S   S415      1.0  0.62691  0.56335  0.77072  1.0000
  S   S416      1.0  0.68940  0.58915  0.78025  1.0000
  Fe  Fe208     1.0  0.65540  0.58886  0.92142  1.0000
  S   S417      1.0  0.66028  0.55795  0.93552  1.0000
  S   S418      1.0  0.64730  0.62154  0.93311  1.0000
  Fe  Fe209     1.0  0.66721  0.56439  0.89407  1.0000
  S   S419      1.0  0.67378  0.53265  0.90678  1.0000
  S   S420      1.0  0.67867  0.55983  0.87113  1.0000
  Fe  Fe210     1.0  0.63725  0.52817  0.91865  1.0000
  C   C1819     1.0  0.83767  0.56572  0.82573  1.0000
  Fe  Fe211     1.0  0.69585  0.56467  0.92241  1.0000
  S   S421      1.0  0.73450  0.57241  0.93366  1.0000
  S   S422      1.0  0.62918  0.55847  0.90520  1.0000
  S   S423      1.0  0.69223  0.59698  0.90906  1.0000
  C   C1820     1.0  0.65073  0.57948  0.82772  1.0000
  C   C1821     1.0  0.66872  0.56734  0.82854  1.0000
  C   C1822     1.0  0.67713  0.56181  0.84197  1.0000
  C   C1823     1.0  0.66789  0.56851  0.85472  1.0000
  C   C1824     1.0  0.65008  0.58092  0.85396  1.0000
  C   C1825     1.0  0.64154  0.58641  0.84046  1.0000
  H   H3237     1.0  0.67593  0.56193  0.81881  1.0000
  H   H3238     1.0  0.69048  0.55180  0.84247  1.0000
  H   H3239     1.0  0.64281  0.58615  0.86373  1.0000
  H   H3240     1.0  0.62762  0.59586  0.83990  1.0000
  H   H3241     1.0  0.84601  0.58182  0.80417  1.0000
  H   H3242     1.0  0.81484  0.63658  0.81113  1.0000
  H   H3243     1.0  0.85765  0.56905  0.82968  1.0000
  H   H3244     1.0  0.76477  0.55787  0.81701  1.0000
  C   C1826     1.0  0.76491  0.57535  0.77206  1.0000
  H   H3245     1.0  0.83681  0.67018  0.79268  1.0000
  H   H3246     1.0  0.77715  0.97807  0.94879  1.0000
  H   H3247     1.0  0.82515  0.52324  0.82802  1.0000
  C   C1827     1.0  0.78957  0.53691  0.91505  1.0000
  C   C1828     1.0  0.76344  0.52797  0.91023  1.0000
  C   C1829     1.0  0.74666  0.53954  0.91546  1.0000
  C   C1830     1.0  0.75572  0.55937  0.92595  1.0000
  C   C1831     1.0  0.78180  0.56815  0.93087  1.0000
  C   C1832     1.0  0.79885  0.55720  0.92529  1.0000
  H   H3248     1.0  0.62920  0.64334  0.79414  1.0000
  H   H3249     1.0  0.93506  0.53374  0.89272  1.0000
  H   H3250     1.0  0.75620  0.51191  0.90253  1.0000
  H   H3251     1.0  0.81898  0.56408  0.92912  1.0000
  C   C1833     1.0  0.90975  0.58178  0.86047  1.0000
  C   C1834     1.0  0.92422  0.59297  0.84819  1.0000
  C   C1835     1.0  0.91866  0.57913  0.83502  1.0000
  C   C1836     1.0  0.89875  0.55388  0.83412  1.0000
  C   C1837     1.0  0.88417  0.54274  0.84636  1.0000
  C   C1838     1.0  0.88941  0.55680  0.85943  1.0000
  H   H3252     1.0  0.94011  0.61224  0.84895  1.0000
  H   H3253     1.0  0.93025  0.58764  0.82569  1.0000
  H   H3254     1.0  0.86864  0.52323  0.84572  1.0000
  H   H3255     1.0  0.87769  0.54831  0.86871  1.0000
  C   C1839     1.0  0.67213  0.64886  0.94200  1.0000
  C   C1840     1.0  0.66484  0.66672  0.94993  1.0000
  C   C1841     1.0  0.68386  0.68863  0.95712  1.0000
  C   C1842     1.0  0.71053  0.69310  0.95643  1.0000
  C   C1843     1.0  0.71788  0.67561  0.94820  1.0000
  C   C1844     1.0  0.69882  0.65337  0.94125  1.0000
  H   H3256     1.0  0.64434  0.66375  0.95038  1.0000
  H   H3257     1.0  0.67798  0.70261  0.96276  1.0000
  H   H3258     1.0  0.73846  0.67927  0.94719  1.0000
  H   H3259     1.0  0.70484  0.64002  0.93508  1.0000
  H   H3260     1.0  0.74029  0.94559  0.96178  1.0000
  C   C1845     1.0  0.81179  0.50609  0.75459  1.0000
  H   H3261     1.0  0.71229  0.00123  0.93471  1.0000
  H   H3262     1.0  0.89229  0.51153  0.87125  1.0000
  C   C1846     1.0  0.95346  0.65205  0.94764  1.0000
  C   C1847     1.0  0.93043  0.64163  0.95557  1.0000
  C   C1848     1.0  0.92878  0.65446  0.96839  1.0000
  C   C1849     1.0  0.94969  0.67761  0.97314  1.0000
  H   H3263     1.0  0.98148  0.55299  0.89303  1.0000
  H   H3264     1.0  0.95508  0.64235  0.93780  1.0000
  H   H3265     1.0  0.91128  0.64627  0.97473  1.0000
  H   H3266     1.0  0.94818  0.68724  0.98301  1.0000
  C   C1850     1.0  0.65919  0.68996  0.77932  1.0000
  C   C1851     1.0  0.85321  0.65009  0.83712  1.0000
  H   H3267     1.0  0.93944  0.53003  0.75220  1.0000
  H   H3268     1.0  0.64212  0.69593  0.77957  1.0000
  C   C1852     1.0  0.82533  0.53764  0.81960  1.0000
  H   H3269     1.0  0.98422  0.55202  0.87388  1.0000
  H   H3270     1.0  0.75488  0.88851  0.98155  1.0000
  H   H3271     1.0  0.69156  0.64755  0.97316  1.0000
  C   C1853     1.0  0.73416  0.53453  0.86231  1.0000
  C   C1854     1.0  0.64823  0.60277  0.97393  1.0000
  H   H3272     1.0  0.67376  0.87626  0.96897  1.0000
  H   H3273     1.0  0.69795  0.55163  0.95871  1.0000
  H   H3274     1.0  0.80702  0.50396  0.78503  1.0000
  H   H3275     1.0  0.79818  0.60520  0.76193  1.0000
  H   H3276     1.0  0.72999  0.63762  0.96489  1.0000
  H   H3277     1.0  0.00054  0.60649  0.98632  1.0000
  H   H3278     1.0  0.56848  0.99183  0.75221  1.0000
  H   H3279     1.0  0.85401  0.78821  0.00023  1.0000
  H   H3280     1.0  0.70983  0.69197  0.76209  1.0000
  H   H3281     1.0  0.68254  0.72843  0.80024  1.0000
  H   H3282     1.0  0.58032  0.51873  0.88166  1.0000
  H   H3283     1.0  0.70184  0.71062  0.78100  1.0000
  C   C1855     1.0  0.97451  0.67503  0.95250  1.0000
  C   C1856     1.0  0.80834  0.57729  0.87025  1.0000
  C   C1857     1.0  0.74667  0.56645  0.83603  1.0000
  H   H3284     1.0  0.71701  0.53982  0.85993  1.0000
  H   H3285     1.0  0.77444  0.54945  0.84263  1.0000
  H   H3286     1.0  0.84687  0.67462  0.85376  1.0000
  C   C1858     1.0  0.72870  0.97878  0.95700  1.0000
  S   S424      1.0  0.66863  0.54049  0.75660  1.0000
  H   H3287     1.0  0.58300  0.61913  0.78601  1.0000
  H   H3288     1.0  0.77587  0.54898  0.88161  1.0000
  H   H3289     1.0  0.93181  0.54139  0.87469  1.0000
  C   C1859     1.0  0.56827  0.53668  0.80670  1.0000
  H   H3290     1.0  0.51465  0.99404  0.75805  1.0000
  C   C1860     1.0  0.64791  0.69626  0.99185  1.0000
  H   H3291     1.0  0.66588  0.60641  0.96736  1.0000
  H   H3292     1.0  0.68675  0.96870  0.93212  1.0000
  H   H3293     1.0  0.95755  0.54454  0.85364  1.0000
  C   C1861     1.0  0.68575  0.94039  0.95678  1.0000
  C   C1862     1.0  0.85169  0.63184  0.80593  1.0000
  H   H3294     1.0  0.81721  0.64879  0.84711  1.0000
  C   C1863     1.0  0.80160  0.55600  0.78289  1.0000
  H   H3295     1.0  0.71426  0.52108  0.94638  1.0000
  H   H3296     1.0  0.75299  0.84452  0.98957  1.0000
  H   H3297     1.0  0.87721  0.65404  0.99091  1.0000
  C   C1864     1.0  0.68808  0.98587  0.95371  1.0000
  H   H3298     1.0  0.85213  0.66385  0.82866  1.0000
  H   H3299     1.0  0.77083  0.62630  0.88676  1.0000
  H   H3300     1.0  0.99228  0.68287  0.94631  1.0000
  N   N100      1.0  0.86887  0.69296  0.97174  1.0000
  H   H3301     1.0  0.70452  0.92234  0.97258  1.0000
  C   C1865     1.0  0.85055  0.70613  0.96688  1.0000
  C   C1866     1.0  0.85936  0.66579  0.96485  1.0000
  C   C1867     1.0  0.89650  0.70838  0.96679  1.0000
  C   C1868     1.0  0.91171  0.73535  0.97426  1.0000
  H   H3302     1.0  0.97101  0.51988  0.83521  1.0000
  C   C1869     1.0  0.85774  0.66508  0.94818  1.0000
  C   C1870     1.0  0.84598  0.72577  0.97748  1.0000
  C   C1871     1.0  0.82971  0.73976  0.97053  1.0000
  C   C1872     1.0  0.68704  0.53522  0.96605  1.0000
  S   S425      1.0  0.84385  0.59509  0.77004  1.0000
  C   C1873     1.0  0.84425  0.63668  0.94259  1.0000
  C   C1874     1.0  0.62832  0.64720  0.77049  1.0000
  C   C1875     1.0  0.68504  0.91877  0.96776  1.0000
  H   H3303     1.0  0.85719  0.71669  0.95656  1.0000
  H   H3304     1.0  0.83047  0.69099  0.96456  1.0000
  H   H3305     1.0  0.83963  0.65318  0.96901  1.0000
  H   H3306     1.0  0.87252  0.65545  0.96770  1.0000
  H   H3307     1.0  0.90854  0.69625  0.96783  1.0000
  H   H3308     1.0  0.89648  0.71261  0.95511  1.0000
  H   H3309     1.0  0.68679  0.72434  0.76753  1.0000
  H   H3310     1.0  0.90247  0.74951  0.97164  1.0000
  C   C1876     1.0  0.66983  0.96709  0.99912  1.0000
  H   H3311     1.0  0.73027  0.97512  0.94537  1.0000
  H   H3312     1.0  0.87777  0.67335  0.94365  1.0000
  H   H3313     1.0  0.84654  0.67654  0.94393  1.0000
  N   N101      1.0  0.67242  0.63796  0.99362  1.0000
  C   C1877     1.0  0.79172  0.58791  0.76871  1.0000
  C   C1878     1.0  0.75772  0.57307  0.82093  1.0000
  C   C1879     1.0  0.96786  0.61308  0.97704  1.0000
  H   H3314     1.0  0.86467  0.74109  0.98138  1.0000
  C   C1880     1.0  0.75635  0.55302  0.78084  1.0000
  H   H3315     1.0  0.77143  0.60140  0.86525  1.0000
  N   N102      1.0  0.65497  0.66887  0.76804  1.0000
  H   H3316     1.0  0.84696  0.67773  0.99100  1.0000
  C   C1881     1.0  0.60621  0.00060  0.77008  1.0000
  H   H3317     1.0  0.94398  0.57070  0.97609  1.0000
  H   H3318     1.0  0.84413  0.63654  0.93067  1.0000
  H   H3319     1.0  0.85487  0.62430  0.94641  1.0000
  H   H3320     1.0  0.82362  0.62783  0.94624  1.0000
  H   H3321     1.0  0.61287  0.65550  0.77082  1.0000
  H   H3322     1.0  0.74203  0.57339  0.81342  1.0000
  H   H3323     1.0  0.76846  0.52641  0.79321  1.0000
  C   C1882     1.0  0.88183  0.61854  0.82133  1.0000
  Fe  Fe212     1.0  0.66545  0.57987  0.75957  1.0000
  N   N103      1.0  0.85354  0.61510  0.81846  1.0000
  H   H3324     1.0  0.65312  0.98842  0.93172  1.0000
  H   H3325     1.0  0.94050  0.75025  0.95725  1.0000
  H   H3326     1.0  0.74571  0.96872  0.97657  1.0000
  H   H3327     1.0  0.56635  0.51566  0.83257  1.0000
  H   H3328     1.0  0.65696  0.71759  0.99475  1.0000
  S   S426      1.0  0.00004  0.71644  0.97113  1.0000
  H   H3329     1.0  0.62537  0.56955  0.96029  1.0000
  C   C1883     1.0  0.90366  0.64566  0.81750  1.0000
  H   H3330     1.0  0.62965  0.51934  0.82116  1.0000
  H   H3331     1.0  0.64201  0.69449  0.98032  1.0000
  H   H3332     1.0  0.72962  0.54725  0.83524  1.0000
  H   H3333     1.0  0.88477  0.61432  0.83279  1.0000
  C   C1884     1.0  0.83817  0.58651  0.81433  1.0000
  H   H3334     1.0  0.63757  0.61457  0.96949  1.0000
  C   C1885     1.0  0.94442  0.52371  0.85131  1.0000
  Fe  Fe213     1.0  0.63101  0.52435  0.76887  1.0000
  H   H3335     1.0  0.94534  0.58806  0.95954  1.0000
  C   C1886     1.0  0.75071  0.58340  0.88451  1.0000
  C   C1887     1.0  0.73830  0.64457  0.97577  1.0000
  H   H3336     1.0  0.57691  0.52426  0.85574  1.0000
  H   H3337     1.0  0.73959  0.58196  0.83930  1.0000
  N   N104      1.0  0.75932  0.55908  0.86223  1.0000
  C   C1888     1.0  0.82386  0.63062  0.80192  1.0000
  H   H3338     1.0  0.81062  0.61056  0.79833  1.0000
  H   H3339     1.0  0.56745  0.53761  0.79480  1.0000
  H   H3340     1.0  0.90479  0.64801  0.80565  1.0000
  C   C1889     1.0  0.74630  0.96671  0.96478  1.0000
  C   C1890     1.0  0.77488  0.54354  0.78631  1.0000
  C   C1891     1.0  0.88473  0.67510  0.99432  1.0000
  H   H3341     1.0  0.82577  0.56664  0.83504  1.0000
  N   N105      1.0  0.70029  0.96895  0.96134  1.0000
  H   H3342     1.0  0.78724  0.97218  0.96651  1.0000
  H   H3343     1.0  0.91268  0.73337  0.98606  1.0000
  H   H3344     1.0  0.65997  0.68192  0.79019  1.0000
  H   H3345     1.0  0.68088  0.65604  0.78091  1.0000
  C   C1892     1.0  0.62536  0.63071  0.78440  1.0000
  C   C1893     1.0  0.69887  0.97320  0.97727  1.0000
  C   C1894     1.0  0.69166  0.98837  0.93722  1.0000
  H   H3346     1.0  0.69388  0.93639  0.94658  1.0000
  H   H3347     1.0  0.70296  0.75392  0.78846  1.0000
  H   H3348     1.0  0.80719  0.59603  0.87397  1.0000
  C   C1895     1.0  0.67129  0.96947  0.98280  1.0000
  H   H3349     1.0  0.71247  0.99358  0.98033  1.0000
  C   C1896     1.0  0.83813  0.65368  0.85004  1.0000
  C   C1897     1.0  0.67475  0.89132  0.96078  1.0000
  C   C1898     1.0  0.76774  0.56484  0.84680  1.0000
  C   C1899     1.0  0.53109  0.99529  0.75099  1.0000
  H   H3350     1.0  0.81568  0.54875  0.78728  1.0000
  H   H3351     1.0  0.99704  0.90445  0.99622  1.0000
  H   H3352     1.0  0.70606  0.96022  0.98364  1.0000
  H   H3353     1.0  0.73728  0.58431  0.86296  1.0000
  H   H3354     1.0  0.95026  0.76723  0.97421  1.0000
  C   C1900     1.0  0.93060  0.64777  0.82294  1.0000
  H   H3355     1.0  0.66657  0.97815  0.95559  1.0000
  H   H3356     1.0  0.66481  0.93635  0.95415  1.0000
  H   H3357     1.0  0.67177  0.91816  0.97671  1.0000
  H   H3358     1.0  0.93083  0.64628  0.83482  1.0000
  H   H3359     1.0  0.81668  0.58021  0.85935  1.0000
  C   C1901     1.0  0.72809  0.51746  0.87606  1.0000
  H   H3360     1.0  0.65582  0.95158  0.97801  1.0000
  H   H3361     1.0  0.81028  0.72516  0.96682  1.0000
  C   C1902     1.0  0.68450  0.71529  0.77830  1.0000
  S   S427      1.0  0.77905  0.77346  0.99256  1.0000
  H   H3362     1.0  0.59593  0.59800  0.79540  1.0000
  H   H3363     1.0  0.63765  0.60250  0.99638  1.0000
  C   C1903     1.0  0.75158  0.61042  0.88925  1.0000
  H   H3364     1.0  0.65476  0.88637  0.95615  1.0000
  C   C1904     1.0  0.97325  0.58306  0.88177  1.0000
  H   H3365     1.0  0.66726  0.63601  0.76557  1.0000
  C   C1905     1.0  0.77495  0.98073  0.96045  1.0000
  C   C1906     1.0  0.65601  0.60932  0.99002  1.0000
  H   H3366     1.0  0.77403  0.59285  0.82076  1.0000
  Fe  Fe214     1.0  0.74156  0.73790  0.98728  1.0000
  H   H3367     1.0  0.80487  0.64748  0.78657  1.0000
  H   H3368     1.0  0.90188  0.80885  0.99532  1.0000
  H   H3369     1.0  0.82895  0.55239  0.87741  1.0000
  C   C1907     1.0  0.78096  0.55415  0.87024  1.0000
  H   H3370     1.0  0.59930  0.53862  0.83076  1.0000
  H   H3371     1.0  0.73559  0.61471  0.88386  1.0000
  H   H3372     1.0  0.66777  0.74240  0.78676  1.0000
  H   H3373     1.0  0.80485  0.53309  0.81586  1.0000
  H   H3374     1.0  0.89995  0.66246  0.82213  1.0000
  C   C1908     1.0  0.94902  0.50467  0.86241  1.0000
  C   C1909     1.0  0.94000  0.74754  0.96906  1.0000
  H   H3375     1.0  0.70804  0.66987  0.98696  1.0000
  H   H3376     1.0  0.98189  0.56056  0.75865  1.0000
  C   C1910     1.0  0.95018  0.51745  0.83607  1.0000
  H   H3377     1.0  0.78881  0.58340  0.93905  1.0000
  C   C1911     1.0  0.96801  0.50899  0.76771  1.0000
  C   C1912     1.0  0.63018  0.57369  0.97189  1.0000
  H   H3378     1.0  0.88675  0.60368  0.81517  1.0000
  H   H3379     1.0  0.59270  0.59600  0.77613  1.0000
  C   C1913     1.0  0.81017  0.57818  0.77402  1.0000
  H   H3380     1.0  0.73053  0.52954  0.88582  1.0000
  H   H3381     1.0  0.81725  0.58268  0.81207  1.0000
  H   H3382     1.0  0.97920  0.51116  0.88610  1.0000
  C   C1914     1.0  0.82504  0.64932  0.78954  1.0000
  H   H3383     1.0  0.62120  0.52505  0.84931  1.0000
  C   C1915     1.0  0.65593  0.65375  0.99014  1.0000
  N   N106      1.0  0.94080  0.50637  0.87769  1.0000
  H   H3384     1.0  0.72653  0.53259  0.91173  1.0000
  H   H3385     1.0  0.66619  0.59625  0.99321  1.0000
  C   C1916     1.0  0.97218  0.55486  0.88265  1.0000
  S   S428      1.0  0.72292  0.53626  0.78533  1.0000
  H   H3386     1.0  0.63992  0.56060  0.97579  1.0000
  H   H3387     1.0  0.00384  0.86243  0.97385  1.0000
  H   H3388     1.0  0.82015  0.61460  0.83045  1.0000
  H   H3389     1.0  0.73106  0.56872  0.88734  1.0000
  C   C1917     1.0  0.84175  0.62103  0.83184  1.0000
  C   C1918     1.0  0.95704  0.58656  0.96906  1.0000
  H   H3390     1.0  0.78482  0.58405  0.84603  1.0000
  H   H3391     1.0  0.86393  0.65306  0.80780  1.0000
  H   H3392     1.0  0.65203  0.65361  0.97844  1.0000
  C   C1919     1.0  0.68432  0.73621  0.78912  1.0000
  H   H3393     1.0  0.95078  0.73481  0.97199  1.0000
  H   H3394     1.0  0.74000  0.66965  0.75897  1.0000
  H   H3395     1.0  0.68571  0.50656  0.87564  1.0000
  H   H3396     1.0  0.94574  0.66721  0.81986  1.0000
  C   C1920     1.0  0.75489  0.58271  0.86812  1.0000
  H   H3397     1.0  0.84021  0.75190  0.96132  1.0000
  H   H3398     1.0  0.54795  0.52951  0.81081  1.0000
  H   H3399     1.0  0.82627  0.75305  0.97855  1.0000
  H   H3400     1.0  0.84451  0.60930  0.84098  1.0000
  H   H3401     1.0  0.63180  0.70348  0.75749  1.0000
  H   H3402     1.0  0.95080  0.61777  0.98006  1.0000
  H   H3403     1.0  0.93580  0.63196  0.81811  1.0000
  H   H3404     1.0  0.78334  0.53642  0.86567  1.0000
  Fe  Fe215     1.0  0.93247  0.58525  0.77073  1.0000
  H   H3405     1.0  0.87393  0.65573  0.84067  1.0000
  C   C1921     1.0  0.98454  0.61200  0.99044  1.0000
  H   H3406     1.0  0.68813  0.89044  0.95219  1.0000
  H   H3407     1.0  0.75087  0.58291  0.76780  1.0000
  S   S429      1.0  0.92314  0.50669  0.92210  1.0000
  C   C1922     1.0  0.60410  0.50574  0.84913  1.0000
  H   H3408     1.0  0.54759  0.97620  0.76642  1.0000
  C   C1923     1.0  0.82780  0.57165  0.88014  1.0000
  H   H3409     1.0  0.92411  0.52273  0.85139  1.0000
  H   H3410     1.0  0.59388  0.97915  0.76883  1.0000
  H   H3411     1.0  0.61254  0.53526  0.87430  1.0000
  H   H3412     1.0  0.99223  0.85644  0.99980  1.0000
  H   H3413     1.0  0.83930  0.64090  0.85906  1.0000
  C   C1924     1.0  0.70114  0.67024  0.76078  1.0000
  S   S430      1.0  0.97478  0.61035  0.76444  1.0000
  H   H3414     1.0  0.96161  0.58683  0.89047  1.0000
  H   H3415     1.0  0.96544  0.58639  0.87123  1.0000
  C   C1925     1.0  0.59750  0.60971  0.78549  1.0000
  C   C1926     1.0  0.75705  0.88514  0.99284  1.0000
  H   H3416     1.0  0.68552  0.69462  0.98851  1.0000
  H   H3417     1.0  0.83387  0.64414  0.77995  1.0000
  C   C1927     1.0  0.67548  0.65697  0.76941  1.0000
  H   H3418     1.0  0.61155  0.56912  0.97772  1.0000
  C   C1928     1.0  0.97272  0.68800  0.96524  1.0000
  H   H3419     1.0  0.62286  0.63301  0.76135  1.0000
  C   C1929     1.0  0.99206  0.54864  0.75370  1.0000
  C   C1930     1.0  0.58550  0.51822  0.82776  1.0000
  C   C1931     1.0  0.86765  0.68920  0.98781  1.0000
  H   H3420     1.0  0.71476  0.63808  0.76297  1.0000
  H   H3421     1.0  0.83493  0.71494  0.98692  1.0000
  C   C1932     1.0  0.66763  0.68344  0.99467  1.0000
  C   C1933     1.0  0.59513  0.51624  0.87451  1.0000
  H   H3422     1.0  0.94652  0.53127  0.82844  1.0000
  H   H3423     1.0  0.64103  0.99183  0.77288  1.0000
  H   H3424     1.0  0.63019  0.68677  0.99847  1.0000
  H   H3425     1.0  0.69989  0.53565  0.97540  1.0000
  H   H3426     1.0  0.97038  0.50878  0.86201  1.0000
  H   H3427     1.0  0.60069  0.52476  0.80565  1.0000
  H   H3428     1.0  0.72632  0.64071  0.99764  1.0000
  N   N107      1.0  0.99563  0.63703  0.99943  1.0000
  H   H3429     1.0  0.66677  0.98692  0.97985  1.0000
  S   S431      1.0  0.89819  0.57094  0.75535  1.0000
  H   H3430     1.0  0.99072  0.82851  0.97942  1.0000
  Fe  Fe216     1.0  0.00168  0.74274  0.99046  1.0000
  C   C1934     1.0  0.69684  0.64851  0.98473  1.0000
  H   H3431     1.0  0.53768  0.99938  0.78502  1.0000
  H   H3432     1.0  0.73420  0.52061  0.85359  1.0000
  C   C1935     1.0  0.94353  0.53394  0.88190  1.0000
  H   H3433     1.0  0.99388  0.59742  0.88296  1.0000
  H   H3434     1.0  0.75330  0.63629  0.97822  1.0000
  H   H3435     1.0  0.62581  0.99458  0.78947  1.0000
  H   H3436     1.0  0.66450  0.50888  0.94942  1.0000
  N   N108      1.0  0.97348  0.51989  0.75262  1.0000
  H   H3437     1.0  0.57957  0.55696  0.81091  1.0000
  H   H3438     1.0  0.63634  0.64444  0.99523  1.0000
  H   H3439     1.0  0.87352  0.70844  0.99351  1.0000
  C   C1936     1.0  0.72192  0.65964  0.76524  1.0000
  H   H3440     1.0  0.73805  0.00058  0.95850  1.0000
  H   H3441     1.0  0.82182  0.57129  0.89149  1.0000
  C   C1937     1.0  0.71665  0.63518  0.98693  1.0000
  C   C1938     1.0  0.55472  0.99467  0.75994  1.0000
  C   C1939     1.0  0.58346  0.50853  0.85940  1.0000
  H   H3442     1.0  0.70707  0.61336  0.98599  1.0000
  H   H3443     1.0  0.74154  0.50681  0.87694  1.0000
  H   H3444     1.0  0.65027  0.50565  0.84088  1.0000
  H   H3445     1.0  0.97327  0.58113  0.96528  1.0000
  H   H3446     1.0  0.97982  0.62820  0.96933  1.0000
  H   H3447     1.0  0.81370  0.52073  0.76323  1.0000
  S   S432      1.0  0.76236  0.93712  0.99638  1.0000
  C   C1940     1.0  0.65477  0.67911  0.75301  1.0000
  H   H3448     1.0  0.74804  0.66654  0.97583  1.0000
  H   H3449     1.0  0.96890  0.52491  0.77543  1.0000
  H   H3450     1.0  0.97208  0.59507  0.99715  1.0000
  H   H3451     1.0  0.52627  0.51553  0.76857  1.0000
  C   C1941     1.0  0.67419  0.00121  0.93042  1.0000
  C   C1942     1.0  0.75598  0.86010  0.99736  1.0000
  H   H3452     1.0  0.96831  0.65566  0.99476  1.0000
  H   H3453     1.0  0.67083  0.51005  0.81726  1.0000
  C   C1943     1.0  0.63090  0.00293  0.77855  1.0000
  H   H3454     1.0  0.58287  0.00236  0.78764  1.0000
  H   H3455     1.0  0.78213  0.00217  0.96302  1.0000
  C   C1944     1.0  0.67805  0.50855  0.95823  1.0000
  H   H3456     1.0  0.83097  0.50387  0.75471  1.0000
