data_image0
_chemical_formula_structural       HSHC2HC3H2FeC2HCH4CFeHSHSHFeSHS2H2C2H4FeH3C2H3C2H2CH2CH2CHCHCH4CH2CHCH2CSCHSH5CNC2H3CNH2CHCNCHCH3C3HC2HCH3SH2CSHCHCSH4CH2FeH2C3H5SHCH4CHCH2CSH4SHC2HC2H3C3H4CH2FeH2FeCH2CH3CH2CH2CFeH3NCHC2HCSH3CH3C3HCSHC2HFeHC2FeHS2FeH7CH3C2HC2H2FeS2FeS2FeS2FeSFeS3FeS2HCSFeS2H2SH5CSC4H3C4H3C6H4SC2HC3HCHCH2C5H6C2H3FeCH3CHFeCH4SCH2C2H2NS2H2C2HC3HNH2CH5CNC9SC2H8CH10C2SH6CHC4H12CH2CH4NH3CH4C3HCHSH2CHFeCHNH3CH2CH4CFeCHC4HC2H3C2H3CH6CSCH4CH9C2H2CSH2FeHFeSHC2HC2HCHSH4SHFeH2C2H3C2FeS2FeS2FeSFeCS2FeS2H6C6H4CHCH3CH2CH3CFeSHFeSCFeSFeS3C5H3C6H3CHSCH2N2HCH3C4H6CH3CH2CH4CHCH7CHCHCHCHCH3NC12H32CHC2H4CHCHC3H2CH5SHC2H3CH2CH4C2H2C3HCHCH2CH3SH4NCH3CH3CH3C2H2CH3C2H3SCH2FeHSH3SH3CH4CHNH2CH4C3HCH2CH2CH3CH4CH2CH6CH5CHCH4CSCH2CH3SFeS2C6H4CSC4H2CH3CH2CHC3HC2H2C2HFeS2FeS2FeSFeS2C6H3C2H2CHC3H3SCH2CH2C5H3CHFeH2CH4CH2FeC2FeH2CHNC12H28NC9H18C2HC2SCH2SC2H3C2HSH6C2H9FeCH3SH2CH2SHNCH2NHC2H2C2H6C2HC3H2CHNCH2C2H4SHCHCH3CH3C2SFeH2CH2CH4FeC2H3SH2CH5CHCSH3C5H2CHCHSCSHSCSHCH2CH4CNC2H4FeHCHCH3CH6SH3CH3C3H3C2H5SH3CNC3H2C3HCH6CH6CHFeH2CFeSH12SNCNSHCH2CH2C2H2CH2CH2CH3C2HFe2H2CS2H8C2H2C2SH2CH2CH5CSH2CH5FeS2FeS2FeS2FeSFeS3H3FeCH4C3HC4H3C3HC2H3CHC5H2C6H4C2HC2H2CHCH3C2H5NHCHC7HCH4CH11C2NC9HCSH8SH10CH5C2H2C2HC2HCH2CH2NCH10CH2CH5SCH3C6H11SH2CH2CH2CHCH4CFeHCHC4HCH2C3H2CH3SH3FeNHC2SHNCH5FeHC4HSC2HCSC2HCSHCH3CHCH2CHFeHCH2FeCNHCH2FeH4CSH4CH6CHSCH2C2H4CHFeHSH3CH2CH6C2H3CH3CHNHC2HCH6CH3CH2NH2C2SC2HC3H2CH3CHSHFeH3CHCH5C2HCNHSFeS2FeS2FeSFeS3CHNH3FeS2FeSHFeS2FeSFeS3CH4C4HCH4C2HCHC6H4C6H5CH4CHCH5CH5NHCH5C2H2CHCH5C2H9C2H3C2H3C3HCH3NHC2H4C2H2CHNCH2CH4CHSCHCHCH2NSHCH6C2H2CHCH5C2HCH2CSH6C2H3CHC2HCH2CH2C3HSH2CH5CHCHC3H2C2H4CNCH6C2H4C2HCHC2H4CHCHC4H4CH2FeHCH2CFeSHC3HC2FeS2CFeSFeS2FeS2FeSFeS3FeS2C7H4CHSCH4CNH3CH3C4H4FeH5C3HCH3C4SHC6H3C3HCHCHC2H2CH2CH6CH3C2H4CHFeH4C2H4C4H2CHCFeH4S2H2CHSH5CHSCHCH4CHNHCH8CHC2HCH2CH2CN2C6HC4SH6SH11SCH3CH4SHCNH3CNC10H14C2H7CH4C2H6CH2CH2SHSH2CHCH3CSC2FeCH9SCHFeHC2H5CHFeH3FeHSFeHSCHCH2SFeHSH3CH2C3SHCHC2H2C2H7FeCHCH3CH2CHCHSC2H3SHC3HSHC2H3C2H3CH3CH2CFeHC2HCHCSHCH2SHSH2C4FeNH2CH2CH2NCH3CH6C2HNC8HC3H18CH3S2C3H2CHCHCHCHC4H4C3H2CSC2H2NH15CH2CH3SCH2FeHCHCH4
_chemical_formula_sum              "H1536 S192 C864 Fe96 N48"
_cell_length_a       53.737
_cell_length_b       53.7369
_cell_length_c       44.0274
_cell_angle_alpha    90.126
_cell_angle_beta     89.9213
_cell_angle_gamma    119.473

_space_group_name_H-M_alt    "P 1"
_space_group_IT_number       1

loop_
  _space_group_symop_operation_xyz
  'x, y, z'

loop_
  _atom_site_type_symbol
  _atom_site_label
  _atom_site_symmetry_multiplicity
  _atom_site_fract_x
  _atom_site_fract_y
  _atom_site_fract_z
  _atom_site_occupancy
  H   H1        1.0  0.21630  0.19392  0.14725  1.0000
  S   S1        1.0  0.25434  0.30545  0.46200  1.0000
  H   H2        1.0  0.16843  0.99264  0.43348  1.0000
  C   C1        1.0  0.30618  0.26819  0.09672  1.0000
  C   C2        1.0  0.21673  0.13130  0.01843  1.0000
  H   H3        1.0  0.16111  0.13617  0.44706  1.0000
  C   C3        1.0  0.01563  0.28987  0.39984  1.0000
  C   C4        1.0  0.00980  0.29379  0.36963  1.0000
  C   C5        1.0  0.31934  0.20731  0.17183  1.0000
  H   H4        1.0  0.29367  0.29287  0.42790  1.0000
  H   H5        1.0  0.36407  0.31028  0.04877  1.0000
  Fe  Fe1       1.0  0.26616  0.00248  0.03848  1.0000
  C   C6        1.0  0.25813  0.18395  0.34045  1.0000
  C   C7        1.0  0.18286  0.30108  0.49971  1.0000
  H   H6        1.0  0.30798  0.31276  0.22030  1.0000
  C   C8        1.0  0.31215  0.99996  0.10263  1.0000
  H   H7        1.0  0.21104  0.21443  0.11782  1.0000
  H   H8        1.0  0.12865  0.26704  0.48441  1.0000
  H   H9        1.0  0.08062  0.28256  0.38051  1.0000
  H   H10       1.0  0.34256  0.21763  0.16664  1.0000
  C   C9        1.0  0.34155  0.29426  0.05400  1.0000
  Fe  Fe2       1.0  0.25520  0.27420  0.02836  1.0000
  H   H11       1.0  0.19777  0.25430  0.42204  1.0000
  S   S2        1.0  0.22069  0.23316  0.04836  1.0000
  H   H12       1.0  0.37066  0.01748  0.14664  1.0000
  S   S3        1.0  0.28144  0.31582  0.05505  1.0000
  H   H13       1.0  0.01970  0.22032  0.15196  1.0000
  Fe  Fe3       1.0  0.24719  0.26750  0.49185  1.0000
  S   S4        1.0  0.21669  0.22376  0.47434  1.0000
  H   H14       1.0  0.13093  0.05794  0.49939  1.0000
  S   S5        1.0  0.02037  0.28045  0.50319  1.0000
  S   S6        1.0  0.25648  0.17763  0.48111  1.0000
  H   H15       1.0  0.15148  0.14498  0.41104  1.0000
  H   H16       1.0  0.22423  0.21183  0.33954  1.0000
  C   C10       1.0  0.02760  0.31937  0.35395  1.0000
  C   C11       1.0  0.20625  0.18946  0.39607  1.0000
  H   H17       1.0  0.17755  0.99539  0.09854  1.0000
  H   H18       1.0  0.05847  0.20794  0.50153  1.0000
  H   H19       1.0  0.35535  0.12506  0.50088  1.0000
  H   H20       1.0  0.30016  0.24896  0.08235  1.0000
  Fe  Fe4       1.0  0.02650  0.25180  0.01212  1.0000
  H   H21       1.0  0.16700  0.28889  0.42398  1.0000
  H   H22       1.0  0.24766  0.18751  0.32047  1.0000
  H   H23       1.0  0.32080  0.24588  0.18654  1.0000
  C   C12       1.0  0.24335  0.09639  0.48755  1.0000
  C   C13       1.0  0.25423  0.12537  0.47979  1.0000
  H   H24       1.0  0.33044  0.25779  0.42142  1.0000
  H   H25       1.0  0.25313  0.08455  0.47838  1.0000
  H   H26       1.0  0.27247  0.13567  0.46477  1.0000
  C   C14       1.0  0.01308  0.32168  0.16964  1.0000
  C   C15       1.0  0.25667  0.13093  0.04311  1.0000
  H   H27       1.0  0.20903  0.18078  0.10871  1.0000
  H   H28       1.0  0.16387  0.24454  0.40383  1.0000
  C   C16       1.0  0.25712  0.21558  0.40832  1.0000
  H   H29       1.0  0.05685  0.26898  0.08684  1.0000
  H   H30       1.0  0.45390  0.00184  0.21618  1.0000
  C   C17       1.0  0.00061  0.31318  0.10653  1.0000
  H   H31       1.0  0.31123  0.30432  0.13603  1.0000
  H   H32       1.0  0.33783  0.25517  0.13520  1.0000
  C   C18       1.0  0.26840  0.24369  0.13423  1.0000
  H   H33       1.0  0.20508  0.14226  0.01262  1.0000
  C   C19       1.0  0.17613  0.28787  0.44617  1.0000
  H   H34       1.0  0.26247  0.23812  0.15836  1.0000
  C   C20       1.0  0.25215  0.21552  0.11590  1.0000
  H   H35       1.0  0.29619  0.26755  0.19369  1.0000
  H   H36       1.0  0.13959  0.99486  0.06696  1.0000
  H   H37       1.0  0.06053  0.32312  0.14369  1.0000
  H   H38       1.0  0.28574  0.21753  0.17542  1.0000
  C   C21       1.0  0.29992  0.28633  0.18013  1.0000
  H   H39       1.0  0.20380  0.20628  0.40825  1.0000
  H   H40       1.0  0.19973  0.29900  0.44265  1.0000
  C   C22       1.0  0.11872  0.28867  0.44878  1.0000
  H   H41       1.0  0.26489  0.27973  0.33836  1.0000
  C   C23       1.0  0.22018  0.20032  0.12298  1.0000
  H   H42       1.0  0.33667  0.29584  0.15151  1.0000
  H   H43       1.0  0.16450  0.17086  0.44174  1.0000
  C   C24       1.0  0.19741  0.16474  0.41932  1.0000
  S   S7        1.0  0.27203  0.03571  0.49285  1.0000
  C   C25       1.0  0.30874  0.22894  0.16949  1.0000
  H   H44       1.0  0.31586  0.19859  0.19527  1.0000
  S   S8        1.0  0.99149  0.23449  0.04716  1.0000
  H   H45       1.0  0.21129  0.17213  0.43967  1.0000
  H   H46       1.0  0.21745  0.15992  0.36121  1.0000
  H   H47       1.0  0.30742  0.18922  0.15584  1.0000
  H   H48       1.0  0.25914  0.25751  0.12799  1.0000
  H   H49       1.0  0.26011  0.20050  0.12127  1.0000
  C   C26       1.0  0.02419  0.23558  0.13303  1.0000
  N   N1        1.0  0.16898  0.30308  0.47065  1.0000
  C   C27       1.0  0.09375  0.24885  0.01682  1.0000
  C   C28       1.0  0.16163  0.29927  0.09518  1.0000
  H   H50       1.0  0.27625  0.14181  0.05608  1.0000
  H   H51       1.0  0.30787  0.22473  0.12040  1.0000
  H   H52       1.0  0.16674  0.22009  0.42968  1.0000
  C   C29       1.0  0.31423  0.24224  0.13738  1.0000
  N   N2        1.0  0.30042  0.26008  0.12994  1.0000
  H   H53       1.0  0.25453  0.21992  0.09123  1.0000
  H   H54       1.0  0.21047  0.23897  0.37359  1.0000
  C   C30       1.0  0.23873  0.17733  0.36893  1.0000
  H   H55       1.0  0.27891  0.28534  0.17717  1.0000
  C   C31       1.0  0.06220  0.28132  0.10853  1.0000
  N   N3        1.0  0.23596  0.20174  0.38278  1.0000
  C   C32       1.0  0.25405  0.30448  0.11126  1.0000
  H   H56       1.0  0.10131  0.31565  0.05917  1.0000
  C   C33       1.0  0.31329  0.28737  0.14850  1.0000
  H   H57       1.0  0.24590  0.16722  0.38642  1.0000
  H   H58       1.0  0.32756  0.30213  0.04454  1.0000
  H   H59       1.0  0.10325  0.02927  0.47763  1.0000
  C   C34       1.0  0.24220  0.14573  0.03488  1.0000
  C   C35       1.0  0.11203  0.29314  0.10330  1.0000
  C   C36       1.0  0.34028  0.01486  0.11334  1.0000
  H   H60       1.0  0.29250  0.27707  0.08871  1.0000
  C   C37       1.0  0.14373  0.31430  0.09496  1.0000
  C   C38       1.0  0.22079  0.08784  0.01773  1.0000
  H   H61       1.0  0.13244  0.30036  0.49456  1.0000
  C   C39       1.0  0.08429  0.28977  0.35650  1.0000
  H   H62       1.0  0.12339  0.31071  0.44342  1.0000
  H   H63       1.0  0.31762  0.31013  0.37790  1.0000
  H   H64       1.0  0.30645  0.22527  0.44109  1.0000
  S   S9        1.0  0.07321  0.26600  0.02246  1.0000
  H   H65       1.0  0.19003  0.18155  0.37751  1.0000
  H   H66       1.0  0.27459  0.15522  0.35170  1.0000
  C   C40       1.0  0.11608  0.31035  0.35121  1.0000
  S   S10       1.0  0.30421  0.01420  0.06981  1.0000
  H   H67       1.0  0.14274  0.24319  0.45485  1.0000
  C   C41       1.0  0.30781  0.24360  0.42805  1.0000
  H   H68       1.0  0.17296  0.27862  0.50758  1.0000
  C   C42       1.0  0.24176  0.14112  0.49138  1.0000
  S   S11       1.0  0.14427  0.19766  0.50904  1.0000
  H   H69       1.0  0.25545  0.19904  0.42447  1.0000
  H   H70       1.0  0.30101  0.25574  0.44313  1.0000
  H   H71       1.0  0.08871  0.18611  0.48901  1.0000
  H   H72       1.0  0.05770  0.27065  0.15725  1.0000
  C   C43       1.0  0.16673  0.15359  0.43032  1.0000
  H   H73       1.0  0.00912  0.24404  0.13485  1.0000
  H   H74       1.0  0.19872  0.14643  0.40940  1.0000
  Fe  Fe5       1.0  0.25425  0.99332  0.46842  1.0000
  H   H75       1.0  0.06886  0.24984  0.13447  1.0000
  H   H76       1.0  0.23352  0.29647  0.15513  1.0000
  C   C44       1.0  0.11433  0.03498  0.49995  1.0000
  C   C45       1.0  0.12850  0.01686  0.50620  1.0000
  C   C46       1.0  0.00027  0.29412  0.15677  1.0000
  H   H77       1.0  0.04487  0.30878  0.43713  1.0000
  H   H78       1.0  0.07156  0.30053  0.35186  1.0000
  H   H79       1.0  0.08181  0.28024  0.47688  1.0000
  H   H80       1.0  0.04652  0.28901  0.11028  1.0000
  H   H81       1.0  0.22899  0.26049  0.32318  1.0000
  S   S12       1.0  0.99791  0.21188  0.48771  1.0000
  H   H82       1.0  0.35283  0.28369  0.09664  1.0000
  C   C47       1.0  0.12195  0.32078  0.31770  1.0000
  H   H83       1.0  0.12785  0.29874  0.35667  1.0000
  H   H84       1.0  0.10040  0.31000  0.15559  1.0000
  H   H85       1.0  0.35573  0.03414  0.10189  1.0000
  H   H86       1.0  0.34365  0.31165  0.09824  1.0000
  C   C48       1.0  0.16624  0.25583  0.45182  1.0000
  H   H87       1.0  0.08034  0.24873  0.46029  1.0000
  C   C49       1.0  0.17418  0.24300  0.42504  1.0000
  H   H88       1.0  0.11718  0.30132  0.30423  1.0000
  H   H89       1.0  0.27631  0.16389  0.31197  1.0000
  C   C50       1.0  0.05511  0.25986  0.13502  1.0000
  S   S13       1.0  0.25663  0.18211  0.04552  1.0000
  H   H90       1.0  0.13667  0.01131  0.02264  1.0000
  H   H91       1.0  0.02041  0.22382  0.11120  1.0000
  H   H92       1.0  0.25196  0.22991  0.42191  1.0000
  H   H93       1.0  0.07402  0.27261  0.43713  1.0000
  S   S14       1.0  0.22286  0.99594  0.05120  1.0000
  H   H94       1.0  0.07658  0.27068  0.34159  1.0000
  C   C51       1.0  0.28906  0.23292  0.39961  1.0000
  C   C52       1.0  0.28969  0.30738  0.41463  1.0000
  H   H95       1.0  0.00170  0.31597  0.45376  1.0000
  C   C53       1.0  0.23920  0.22309  0.35866  1.0000
  C   C54       1.0  0.21967  0.08275  0.50683  1.0000
  H   H96       1.0  0.17683  0.25304  0.47209  1.0000
  H   H97       1.0  0.23701  0.28544  0.10092  1.0000
  H   H98       1.0  0.11261  0.28226  0.12453  1.0000
  C   C55       1.0  0.13717  0.28924  0.47602  1.0000
  C   C56       1.0  0.24604  0.10212  0.03458  1.0000
  C   C57       1.0  0.23354  0.24750  0.36888  1.0000
  H   H99       1.0  0.14426  0.02129  0.48780  1.0000
  H   H100      1.0  0.25737  0.09097  0.04106  1.0000
  H   H101      1.0  0.02258  0.32218  0.33085  1.0000
  H   H102      1.0  0.10354  0.27632  0.08526  1.0000
  C   C58       1.0  0.08684  0.27152  0.45631  1.0000
  H   H103      1.0  0.24582  0.25825  0.38958  1.0000
  H   H104      1.0  0.33653  0.27377  0.04281  1.0000
  Fe  Fe6       1.0  0.24280  0.21218  0.02443  1.0000
  H   H105      1.0  0.15254  0.28071  0.07943  1.0000
  H   H106      1.0  0.24243  0.13915  0.32879  1.0000
  Fe  Fe7       1.0  0.99170  0.24781  0.46935  1.0000
  C   C59       1.0  0.14101  0.25259  0.01523  1.0000
  H   H107      1.0  0.26095  0.23334  0.34860  1.0000
  H   H108      1.0  0.37191  0.07990  0.01399  1.0000
  C   C60       1.0  0.25210  0.31087  0.14199  1.0000
  H   H109      1.0  0.23784  0.28738  0.35210  1.0000
  H   H110      1.0  0.27926  0.20323  0.34324  1.0000
  H   H111      1.0  0.29333  0.25182  0.38571  1.0000
  C   C61       1.0  0.26309  0.15896  0.33285  1.0000
  H   H112      1.0  0.12245  0.27880  0.42842  1.0000
  H   H113      1.0  0.29588  0.21939  0.38723  1.0000
  C   C62       1.0  0.33757  0.29038  0.08836  1.0000
  H   H114      1.0  0.05321  0.30722  0.06072  1.0000
  H   H115      1.0  0.32006  0.09522  0.49522  1.0000
  C   C63       1.0  0.24182  0.27005  0.34403  1.0000
  Fe  Fe8       1.0  0.24206  0.20797  0.50057  1.0000
  H   H116      1.0  0.16394  0.26522  0.01796  1.0000
  H   H117      1.0  0.16251  0.29173  0.11842  1.0000
  H   H118      1.0  0.09953  0.02161  0.04361  1.0000
  N   N4        1.0  0.09256  0.30586  0.10709  1.0000
  C   C64       1.0  0.03992  0.31163  0.41404  1.0000
  H   H119      1.0  0.17325  0.32293  0.32598  1.0000
  C   C65       1.0  0.31896  0.31310  0.19877  1.0000
  C   C66       1.0  0.27787  0.32291  0.09390  1.0000
  H   H120      1.0  0.13326  0.28714  0.02713  1.0000
  C   C67       1.0  0.09624  0.20341  0.50529  1.0000
  S   S15       1.0  0.99151  0.25782  0.41897  1.0000
  H   H121      1.0  0.35047  0.02870  0.02603  1.0000
  H   H122      1.0  0.20585  0.30795  0.49556  1.0000
  H   H123      1.0  0.99471  0.27588  0.17125  1.0000
  C   C68       1.0  0.09633  0.32447  0.07975  1.0000
  H   H124      1.0  0.18383  0.31440  0.08781  1.0000
  H   H125      1.0  0.33953  0.31401  0.20439  1.0000
  H   H126      1.0  0.16052  0.32236  0.27502  1.0000
  C   C69       1.0  0.30335  0.31736  0.38634  1.0000
  C   C70       1.0  0.34878  0.00540  0.13886  1.0000
  C   C71       1.0  0.99429  0.28990  0.12538  1.0000
  H   H127      1.0  0.99118  0.27704  0.35835  1.0000
  C   C72       1.0  0.27139  0.31672  0.42601  1.0000
  S   S16       1.0  0.99129  0.30867  0.06735  1.0000
  H   H128      1.0  0.14133  0.31045  0.22272  1.0000
  C   C73       1.0  0.12354  0.26491  0.02053  1.0000
  C   C74       1.0  0.10106  0.32331  0.13597  1.0000
  H   H129      1.0  0.14538  0.32324  0.07187  1.0000
  Fe  Fe9       1.0  0.22744  0.02011  0.50965  1.0000
  H   H130      1.0  0.11371  0.32293  0.25910  1.0000
  C   C75       1.0  0.11551  0.00180  0.01151  1.0000
  C   C76       1.0  0.10255  0.02086  0.01872  1.0000
  Fe  Fe10      1.0  0.22721  0.02353  0.01087  1.0000
  H   H131      1.0  0.11724  0.04297  0.01077  1.0000
  S   S17       1.0  0.01993  0.32560  0.20939  1.0000
  S   S18       1.0  0.02266  0.29061  0.00183  1.0000
  Fe  Fe11      1.0  0.27663  0.01263  0.53336  1.0000
  H   H132      1.0  0.31959  0.17166  0.81034  1.0000
  H   H133      1.0  0.35384  0.10628  0.64066  1.0000
  H   H134      1.0  0.06157  0.27693  0.90288  1.0000
  H   H135      1.0  0.27409  0.31761  0.69903  1.0000
  H   H136      1.0  0.15899  0.31026  0.53478  1.0000
  H   H137      1.0  0.09934  0.29718  0.96072  1.0000
  H   H138      1.0  0.07571  0.23494  0.82081  1.0000
  C   C77       1.0  0.30396  0.29971  0.62156  1.0000
  H   H139      1.0  0.22290  0.02377  0.61676  1.0000
  H   H140      1.0  0.33620  0.06030  0.99915  1.0000
  H   H141      1.0  0.33381  0.99256  0.91902  1.0000
  C   C78       1.0  0.29442  0.23074  0.74644  1.0000
  C   C79       1.0  0.30301  0.02888  0.65297  1.0000
  H   H142      1.0  0.42134  0.19784  0.81776  1.0000
  C   C80       1.0  0.33572  0.18394  0.82810  1.0000
  C   C81       1.0  0.04969  0.19909  0.93139  1.0000
  H   H143      1.0  0.15258  0.99317  0.54077  1.0000
  H   H144      1.0  0.26128  0.25115  0.80512  1.0000
  Fe  Fe12      1.0  0.25263  0.24687  0.96549  1.0000
  S   S19       1.0  0.26500  0.24261  0.91654  1.0000
  S   S20       1.0  0.21755  0.20435  0.98183  1.0000
  Fe  Fe13      1.0  0.39258  0.07241  0.80092  1.0000
  S   S21       1.0  0.43946  0.09824  0.78932  1.0000
  S   S22       1.0  0.38198  0.07309  0.85126  1.0000
  Fe  Fe14      1.0  0.37552  0.06048  0.73356  1.0000
  S   S23       1.0  0.42098  0.08548  0.71724  1.0000
  S   S24       1.0  0.33445  0.03869  0.70524  1.0000
  Fe  Fe15      1.0  0.43197  0.06426  0.75522  1.0000
  S   S25       1.0  0.46265  0.04685  0.74499  1.0000
  Fe  Fe16      1.0  0.42578  0.11780  0.75259  1.0000
  S   S26       1.0  0.45319  0.16562  0.74600  1.0000
  S   S27       1.0  0.38566  0.03648  0.76927  1.0000
  S   S28       1.0  0.37968  0.09468  0.76640  1.0000
  Fe  Fe17      1.0  0.40277  0.28274  0.75470  1.0000
  S   S29       1.0  0.38598  0.23504  0.75009  1.0000
  S   S30       1.0  0.36513  0.28969  0.76119  1.0000
  H   H145      1.0  0.18640  0.09159  0.99715  1.0000
  C   C82       1.0  0.32567  0.10908  0.60726  1.0000
  S   S31       1.0  0.31761  0.03566  0.56138  1.0000
  Fe  Fe18      1.0  0.24736  0.24415  0.55605  1.0000
  S   S32       1.0  0.21516  0.19898  0.54218  1.0000
  S   S33       1.0  0.26203  0.24475  0.60511  1.0000
  H   H146      1.0  0.33307  0.14106  0.87298  1.0000
  H   H147      1.0  0.08986  0.22709  0.88289  1.0000
  S   S34       1.0  0.14986  0.20800  0.99736  1.0000
  H   H148      1.0  0.25075  0.10167  0.60481  1.0000
  H   H149      1.0  0.27154  0.13304  0.54219  1.0000
  H   H150      1.0  0.29947  0.18181  0.98492  1.0000
  H   H151      1.0  0.35798  0.22840  0.84354  1.0000
  H   H152      1.0  0.29233  0.11863  0.99464  1.0000
  C   C83       1.0  0.10765  0.25535  0.93256  1.0000
  S   S35       1.0  0.23136  0.27087  0.98460  1.0000
  C   C84       1.0  0.08088  0.24189  0.88362  1.0000
  C   C85       1.0  0.32493  0.28014  0.66887  1.0000
  C   C86       1.0  0.30253  0.26065  0.65006  1.0000
  C   C87       1.0  0.29201  0.27027  0.62619  1.0000
  H   H153      1.0  0.12268  0.26493  0.56395  1.0000
  H   H154      1.0  0.33297  0.27239  0.68689  1.0000
  H   H155      1.0  0.29327  0.23794  0.65401  1.0000
  C   C88       1.0  0.33059  0.03957  0.66523  1.0000
  C   C89       1.0  0.35391  0.04969  0.64540  1.0000
  C   C90       1.0  0.34955  0.04866  0.61371  1.0000
  C   C91       1.0  0.32192  0.03747  0.60147  1.0000
  H   H156      1.0  0.48597  0.00310  0.83524  1.0000
  H   H157      1.0  0.37525  0.05800  0.65446  1.0000
  H   H158      1.0  0.36772  0.05629  0.59858  1.0000
  C   C92       1.0  0.43496  0.18538  0.74604  1.0000
  C   C93       1.0  0.44991  0.21492  0.75185  1.0000
  C   C94       1.0  0.43539  0.23076  0.75275  1.0000
  C   C95       1.0  0.40590  0.21705  0.74760  1.0000
  C   C96       1.0  0.39116  0.18764  0.74131  1.0000
  C   C97       1.0  0.40559  0.17187  0.74054  1.0000
  H   H159      1.0  0.47269  0.22552  0.75598  1.0000
  H   H160      1.0  0.44691  0.25343  0.75763  1.0000
  H   H161      1.0  0.36839  0.17696  0.73706  1.0000
  H   H162      1.0  0.39399  0.14927  0.73542  1.0000
  S   S36       1.0  0.23294  0.99931  0.55139  1.0000
  C   C98       1.0  0.29628  0.26660  0.89618  1.0000
  C   C99       1.0  0.31614  0.29323  0.90797  1.0000
  H   H163      1.0  0.29816  0.12561  0.62293  1.0000
  C   C100      1.0  0.32521  0.27750  0.84981  1.0000
  C   C101      1.0  0.30097  0.25881  0.86702  1.0000
  C   C102      1.0  0.20614  0.10255  0.00985  1.0000
  H   H164      1.0  0.28562  0.23835  0.85760  1.0000
  C   C103      1.0  0.36283  0.18102  0.82303  1.0000
  H   H165      1.0  0.32597  0.11153  0.65674  1.0000
  C   C104      1.0  0.25556  0.06498  0.60009  1.0000
  H   H166      1.0  0.28491  0.02128  0.66818  1.0000
  H   H167      1.0  0.30125  0.23055  0.77021  1.0000
  C   C105      1.0  0.29790  0.01573  0.90249  1.0000
  C   C106      1.0  0.32655  0.02721  0.85588  1.0000
  C   C107      1.0  0.34910  0.05081  0.87008  1.0000
  C   C108      1.0  0.34576  0.05694  0.90042  1.0000
  C   C109      1.0  0.32013  0.03986  0.91638  1.0000
  H   H168      1.0  0.36322  0.07493  0.91168  1.0000
  H   H169      1.0  0.31776  0.04504  0.93955  1.0000
  H   H170      1.0  0.06075  0.27838  0.95968  1.0000
  H   H171      1.0  0.39193  0.14676  0.88671  1.0000
  H   H172      1.0  0.31568  0.12943  0.82226  1.0000
  H   H173      1.0  0.20836  0.13933  0.51987  1.0000
  C   C110      1.0  0.27344  0.29489  0.79187  1.0000
  C   C111      1.0  0.35629  0.15095  0.86770  1.0000
  H   H174      1.0  0.24198  0.26587  0.74084  1.0000
  H   H175      1.0  0.98962  0.20175  0.87261  1.0000
  H   H176      1.0  0.32880  0.02218  0.83258  1.0000
  Fe  Fe19      1.0  0.19219  0.21838  0.51741  1.0000
  C   C112      1.0  0.34024  0.01276  0.97858  1.0000
  H   H177      1.0  0.31078  0.15148  0.95150  1.0000
  H   H178      1.0  0.30635  0.15722  0.55576  1.0000
  H   H179      1.0  0.26629  0.17852  0.54967  1.0000
  C   C113      1.0  0.12311  0.21339  0.51906  1.0000
  H   H180      1.0  0.05653  0.23599  0.95680  1.0000
  Fe  Fe20      1.0  0.25244  0.99476  0.97071  1.0000
  C   C114      1.0  0.25123  0.26487  0.80345  1.0000
  H   H181      1.0  0.18852  0.29357  0.56180  1.0000
  H   H182      1.0  0.31784  0.13668  0.51626  1.0000
  H   H183      1.0  0.08312  0.27578  0.85402  1.0000
  H   H184      1.0  0.09938  0.29711  0.90314  1.0000
  S   S37       1.0  0.06872  0.25560  0.54183  1.0000
  C   C115      1.0  0.35823  0.06368  0.99692  1.0000
  H   H185      1.0  0.24669  0.30050  0.74458  1.0000
  H   H186      1.0  0.44313  0.16604  0.81071  1.0000
  C   C116      1.0  0.24087  0.26662  0.83536  1.0000
  C   C117      1.0  0.48144  0.10144  0.66767  1.0000
  H   H187      1.0  0.32856  0.27131  0.82745  1.0000
  H   H188      1.0  0.02002  0.18462  0.96978  1.0000
  N   N5        1.0  0.08188  0.25243  0.91578  1.0000
  S   S38       1.0  0.42896  0.31363  0.79170  1.0000
  S   S39       1.0  0.22170  0.26264  0.53461  1.0000
  H   H189      1.0  0.31352  0.24010  0.73144  1.0000
  H   H190      1.0  0.38107  0.04070  0.00161  1.0000
  C   C118      1.0  0.30121  0.00966  0.87212  1.0000
  C   C119      1.0  0.08860  0.23816  0.53333  1.0000
  H   H191      1.0  0.99388  0.21263  0.65606  1.0000
  C   C120      1.0  0.25819  0.28873  0.73830  1.0000
  C   C121      1.0  0.29636  0.10229  0.54963  1.0000
  C   C122      1.0  0.16119  0.28101  0.94127  1.0000
  H   H192      1.0  0.34149  0.09555  0.52713  1.0000
  N   N6        1.0  0.28762  0.11483  0.57553  1.0000
  H   H193      1.0  0.30911  0.27927  0.77540  1.0000
  H   H194      1.0  0.36625  0.17257  0.87837  1.0000
  C   C123      1.0  0.11528  0.24783  0.54743  1.0000
  H   H195      1.0  0.22073  0.32451  0.54841  1.0000
  H   H196      1.0  0.34107  0.22607  0.96460  1.0000
  H   H197      1.0  0.26963  0.08914  0.96989  1.0000
  H   H198      1.0  0.25917  0.27715  0.85136  1.0000
  H   H199      1.0  0.21143  0.03746  0.58567  1.0000
  C   C124      1.0  0.22431  0.04340  0.60687  1.0000
  N   N7        1.0  0.26361  0.15782  0.93166  1.0000
  C   C125      1.0  0.26399  0.13497  0.95121  1.0000
  C   C126      1.0  0.23728  0.15977  0.93961  1.0000
  C   C127      1.0  0.26345  0.14999  0.89874  1.0000
  C   C128      1.0  0.28960  0.18660  0.93723  1.0000
  C   C129      1.0  0.13241  0.23546  0.54041  1.0000
  C   C130      1.0  0.29065  0.13109  0.94799  1.0000
  C   C131      1.0  0.26127  0.17049  0.87542  1.0000
  C   C132      1.0  0.20823  0.13417  0.92953  1.0000
  C   C133      1.0  0.18324  0.13843  0.93914  1.0000
  S   S40       1.0  0.42180  0.31530  0.71732  1.0000
  C   C134      1.0  0.19788  0.31616  0.55439  1.0000
  C   C135      1.0  0.25569  0.15781  0.84343  1.0000
  H   H200      1.0  0.24519  0.11373  0.94617  1.0000
  H   H201      1.0  0.26151  0.13877  0.97558  1.0000
  H   H202      1.0  0.23595  0.16182  0.96460  1.0000
  H   H203      1.0  0.23869  0.17969  0.93033  1.0000
  H   H204      1.0  0.24608  0.12772  0.89439  1.0000
  H   H205      1.0  0.28351  0.14980  0.89299  1.0000
  H   H206      1.0  0.30916  0.18736  0.92776  1.0000
  H   H207      1.0  0.28758  0.20351  0.92472  1.0000
  C   C136      1.0  0.09741  0.25111  0.82858  1.0000
  H   H208      1.0  0.10681  0.26055  0.95679  1.0000
  H   H209      1.0  0.29116  0.12259  0.92515  1.0000
  H   H210      1.0  0.22626  0.24476  0.84398  1.0000
  H   H211      1.0  0.28164  0.19113  0.87489  1.0000
  H   H212      1.0  0.24381  0.17509  0.88095  1.0000
  H   H213      1.0  0.20708  0.13171  0.90448  1.0000
  H   H214      1.0  0.20483  0.11392  0.93984  1.0000
  H   H215      1.0  0.16283  0.12009  0.93120  1.0000
  H   H216      1.0  0.18229  0.13967  0.96425  1.0000
  H   H217      1.0  0.18536  0.15833  0.92906  1.0000
  C   C137      1.0  0.02079  0.17867  0.94576  1.0000
  C   C138      1.0  0.29000  0.10978  0.97136  1.0000
  S   S41       1.0  0.20506  0.04627  0.51722  1.0000
  H   H218      1.0  0.05853  0.20756  0.00561  1.0000
  H   H219      1.0  0.14094  0.26937  0.89783  1.0000
  H   H220      1.0  0.06631  0.19702  0.94424  1.0000
  H   H221      1.0  0.25617  0.17368  0.82696  1.0000
  H   H222      1.0  0.27220  0.15215  0.83677  1.0000
  H   H223      1.0  0.23430  0.13834  0.84229  1.0000
  C   C139      1.0  0.32178  0.22626  0.97338  1.0000
  H   H224      1.0  0.21519  0.05240  0.62339  1.0000
  C   C140      1.0  0.38783  0.15338  0.82400  1.0000
  C   C141      1.0  0.33582  0.12916  0.81736  1.0000
  C   C142      1.0  0.32925  0.09845  0.82537  1.0000
  C   C143      1.0  0.30591  0.07633  0.80482  1.0000
  H   H225      1.0  0.25878  0.23641  0.75775  1.0000
  H   H226      1.0  0.38862  0.15204  0.79881  1.0000
  H   H227      1.0  0.38818  0.13401  0.83204  1.0000
  H   H228      1.0  0.33908  0.13200  0.79227  1.0000
  H   H229      1.0  0.36801  0.18430  0.79836  1.0000
  H   H230      1.0  0.34822  0.09577  0.82258  1.0000
  H   H231      1.0  0.30145  0.05456  0.81141  1.0000
  H   H232      1.0  0.28584  0.07734  0.80707  1.0000
  H   H233      1.0  0.31297  0.07987  0.78071  1.0000
  H   H234      1.0  0.43777  0.15739  0.85065  1.0000
  H   H235      1.0  0.03622  0.23049  0.92306  1.0000
  H   H236      1.0  0.33374  0.11285  0.91822  1.0000
  C   C144      1.0  0.41618  0.17998  0.83382  1.0000
  H   H237      1.0  0.26725  0.06969  0.62197  1.0000
  H   H238      1.0  0.36250  0.11347  0.87499  1.0000
  C   C145      1.0  0.33640  0.30955  0.66469  1.0000
  H   H239      1.0  0.32142  0.09319  0.84911  1.0000
  H   H240      1.0  0.22915  0.27883  0.83505  1.0000
  H   H241      1.0  0.35121  0.02143  0.95658  1.0000
  H   H242      1.0  0.06108  0.31792  0.93085  1.0000
  N   N8        1.0  0.36080  0.15330  0.83365  1.0000
  H   H243      1.0  0.29177  0.30181  0.80777  1.0000
  H   H244      1.0  0.99455  0.23746  0.62825  1.0000
  H   H245      1.0  0.26380  0.05461  0.58441  1.0000
  C   C146      1.0  0.08090  0.28008  0.91553  1.0000
  H   H246      1.0  0.32607  0.17583  0.85071  1.0000
  H   H247      1.0  0.11076  0.24073  0.83140  1.0000
  H   H248      1.0  0.38082  0.19958  0.83459  1.0000
  H   H249      1.0  0.01737  0.15653  0.94538  1.0000
  C   C147      1.0  0.36826  0.13425  0.88561  1.0000
  C   C148      1.0  0.28505  0.13969  0.56301  1.0000
  C   C149      1.0  0.34494  0.30431  0.86153  1.0000
  H   H250      1.0  0.98990  0.28730  0.85302  1.0000
  C   C150      1.0  0.08145  0.22024  0.00798  1.0000
  H   H251      1.0  0.36805  0.11922  0.93141  1.0000
  S   S42       1.0  0.27229  0.03361  0.00056  1.0000
  H   H252      1.0  0.29579  0.30742  0.60362  1.0000
  H   H253      1.0  0.31163  0.08568  0.60745  1.0000
  C   C151      1.0  0.34142  0.11762  0.63765  1.0000
  H   H254      1.0  0.35101  0.22390  0.80317  1.0000
  Fe  Fe21      1.0  0.19809  0.22864  0.00376  1.0000
  C   C152      1.0  0.34230  0.21499  0.82590  1.0000
  H   H255      1.0  0.46907  0.07773  0.66641  1.0000
  N   N9        1.0  0.28326  0.29701  0.75932  1.0000
  H   H256      1.0  0.27738  0.01968  0.61223  1.0000
  H   H257      1.0  0.34187  0.11394  0.58922  1.0000
  H   H258      1.0  0.41457  0.18731  0.85693  1.0000
  C   C153      1.0  0.26592  0.29461  0.70404  1.0000
  H   H259      1.0  0.32561  0.14815  0.59776  1.0000
  H   H260      1.0  0.35648  0.14100  0.63845  1.0000
  C   C154      1.0  0.25833  0.09276  0.58651  1.0000
  H   H261      1.0  0.26669  0.19067  0.58787  1.0000
  H   H262      1.0  0.32240  0.21613  0.82934  1.0000
  H   H263      1.0  0.24636  0.28277  0.65946  1.0000
  H   H264      1.0  0.24257  0.08675  0.56762  1.0000
  C   C155      1.0  0.27663  0.18177  0.57226  1.0000
  Fe  Fe22      1.0  0.02470  0.24419  0.52334  1.0000
  C   C156      1.0  0.09569  0.26477  0.85843  1.0000
  H   H265      1.0  0.28017  0.20832  0.73909  1.0000
  C   C157      1.0  0.08038  0.29292  0.94695  1.0000
  C   C158      1.0  0.35698  0.12847  0.91820  1.0000
  C   C159      1.0  0.07904  0.21573  0.51237  1.0000
  C   C160      1.0  0.29770  0.27928  0.75433  1.0000
  H   H266      1.0  0.15972  0.29065  0.96307  1.0000
  C   C161      1.0  0.27852  0.24770  0.74411  1.0000
  C   C162      1.0  0.30896  0.12543  0.60138  1.0000
  H   H267      1.0  0.32543  0.23294  0.99760  1.0000
  H   H268      1.0  0.24906  0.13917  0.58746  1.0000
  H   H269      1.0  0.27201  0.24680  0.72004  1.0000
  C   C163      1.0  0.29866  0.02786  0.62130  1.0000
  C   C164      1.0  0.44109  0.17384  0.83343  1.0000
  H   H270      1.0  0.28270  0.15763  0.60751  1.0000
  H   H271      1.0  0.36087  0.14855  0.92956  1.0000
  H   H272      1.0  0.31460  0.28914  0.73656  1.0000
  C   C165      1.0  0.27246  0.15345  0.58480  1.0000
  H   H273      1.0  0.29980  0.08458  0.55738  1.0000
  H   H274      1.0  0.15272  0.24283  0.55165  1.0000
  H   H275      1.0  0.16003  0.26013  0.94596  1.0000
  H   H276      1.0  0.31280  0.29956  0.93029  1.0000
  H   H277      1.0  0.23223  0.25396  0.68639  1.0000
  H   H278      1.0  0.29971  0.19765  0.57014  1.0000
  C   C166      1.0  0.29548  0.19657  0.97082  1.0000
  S   S43       1.0  0.27529  0.25256  0.51474  1.0000
  C   C167      1.0  0.13724  0.27723  0.91977  1.0000
  H   H279      1.0  0.23219  0.25450  0.78857  1.0000
  H   H280      1.0  0.10747  0.23458  0.93307  1.0000
  H   H281      1.0  0.46621  0.10976  0.66603  1.0000
  H   H282      1.0  0.27868  0.09203  0.53277  1.0000
  C   C168      1.0  0.32341  0.12395  0.53192  1.0000
  H   H283      1.0  0.11762  0.28125  0.86472  1.0000
  H   H284      1.0  0.37669  0.99599  0.96306  1.0000
  H   H285      1.0  0.04927  0.19149  0.90788  1.0000
  H   H286      1.0  0.27713  0.19786  0.98058  1.0000
  H   H287      1.0  0.28284  0.28953  0.69762  1.0000
  H   H288      1.0  0.46134  0.19371  0.83865  1.0000
  H   H289      1.0  0.31911  0.01195  0.97692  1.0000
  H   H290      1.0  0.18230  0.29547  0.93086  1.0000
  H   H291      1.0  0.13919  0.29856  0.91657  1.0000
  C   C169      1.0  0.24007  0.27720  0.68362  1.0000
  C   C170      1.0  0.08040  0.32122  0.94343  1.0000
  H   H292      1.0  0.05828  0.22905  0.87580  1.0000
  H   H293      1.0  0.30796  0.10553  0.96731  1.0000
  C   C171      1.0  0.05549  0.23046  0.93229  1.0000
  S   S44       1.0  0.99682  0.22756  0.97393  1.0000
  H   H294      1.0  0.10730  0.26782  0.81079  1.0000
  H   H295      1.0  0.34034  0.13901  0.54754  1.0000
  Fe  Fe23      1.0  0.39213  0.32244  0.79558  1.0000
  H   H296      1.0  0.31848  0.24216  0.96044  1.0000
  Fe  Fe24      1.0  0.99022  0.26514  0.96639  1.0000
  S   S45       1.0  0.27901  0.25359  0.00738  1.0000
  H   H297      1.0  0.22259  0.28189  0.68896  1.0000
  C   C172      1.0  0.34022  0.31200  0.89066  1.0000
  C   C173      1.0  0.35846  0.03575  0.00266  1.0000
  H   H298      1.0  0.36656  0.07203  0.97387  1.0000
  C   C174      1.0  0.18138  0.31846  0.52729  1.0000
  C   C175      1.0  0.12878  0.22411  0.00585  1.0000
  H   H299      1.0  0.00311  0.17897  0.93301  1.0000
  C   C176      1.0  0.09894  0.20799  0.00235  1.0000
  H   H300      1.0  0.08930  0.18585  0.99537  1.0000
  S   S46       1.0  0.99437  0.27907  0.91677  1.0000
  H   H301      1.0  0.37780  0.99804  0.00309  1.0000
  H   H302      1.0  0.18880  0.08814  0.53321  1.0000
  H   H303      1.0  0.26475  0.30969  0.79569  1.0000
  H   H304      1.0  0.14010  0.02447  0.52805  1.0000
  S   S47       1.0  0.20669  0.05181  0.00582  1.0000
  H   H305      1.0  0.48215  0.10041  0.71623  1.0000
  Fe  Fe25      1.0  0.38581  0.32418  0.72636  1.0000
  H   H306      1.0  0.34471  0.99569  0.56878  1.0000
  H   H307      1.0  0.99230  0.28048  0.60507  1.0000
  C   C177      1.0  0.32574  0.31921  0.64101  1.0000
  C   C178      1.0  0.20713  0.09845  0.51831  1.0000
  H   H308      1.0  0.09873  0.03194  0.51813  1.0000
  H   H309      1.0  0.08166  0.01286  0.00705  1.0000
  H   H310      1.0  0.11932  0.00292  0.98665  1.0000
  C   C179      1.0  0.33575  0.10891  0.51267  1.0000
  C   C180      1.0  0.21818  0.12751  0.51078  1.0000
  Fe  Fe26      1.0  0.11106  0.40981  0.24654  1.0000
  S   S48       1.0  0.08262  0.36539  0.26355  1.0000
  S   S49       1.0  0.15285  0.42027  0.22328  1.0000
  Fe  Fe27      1.0  0.06577  0.42831  0.25719  1.0000
  S   S50       1.0  0.03368  0.38437  0.27505  1.0000
  S   S51       1.0  0.05403  0.46332  0.24567  1.0000
  Fe  Fe28      1.0  0.07078  0.38610  0.30086  1.0000
  S   S52       1.0  0.07345  0.37479  0.35043  1.0000
  Fe  Fe29      1.0  0.04785  0.36654  0.23620  1.0000
  C   C181      1.0  0.15233  0.37346  0.31291  1.0000
  S   S53       1.0  0.10205  0.43123  0.28565  1.0000
  S   S54       1.0  0.07706  0.40969  0.21675  1.0000
  Fe  Fe30      1.0  0.07736  0.62881  0.26659  1.0000
  S   S55       1.0  0.04252  0.64025  0.27563  1.0000
  S   S56       1.0  0.08155  0.59027  0.28384  1.0000
  H   H311      1.0  0.17516  0.42778  0.34058  1.0000
  H   H312      1.0  0.20792  0.38913  0.33032  1.0000
  H   H313      1.0  0.39909  0.59681  0.17655  1.0000
  H   H314      1.0  0.16970  0.34361  0.47518  1.0000
  H   H315      1.0  0.20014  0.33937  0.41748  1.0000
  H   H316      1.0  0.14697  0.41727  0.36829  1.0000
  C   C182      1.0  0.06173  0.49844  0.25725  1.0000
  C   C183      1.0  0.04831  0.51168  0.24192  1.0000
  C   C184      1.0  0.05426  0.53972  0.24940  1.0000
  C   C185      1.0  0.07367  0.55503  0.27256  1.0000
  C   C186      1.0  0.08695  0.54171  0.28804  1.0000
  C   C187      1.0  0.08119  0.51375  0.28039  1.0000
  H   H317      1.0  0.03313  0.50013  0.22406  1.0000
  H   H318      1.0  0.04358  0.54937  0.23746  1.0000
  H   H319      1.0  0.10190  0.55316  0.30611  1.0000
  H   H320      1.0  0.09173  0.50404  0.29248  1.0000
  C   C188      1.0  0.18278  0.42361  0.24346  1.0000
  H   H321      1.0  0.19331  0.40176  0.20899  1.0000
  C   C189      1.0  0.05145  0.34142  0.36839  1.0000
  H   H322      1.0  0.19410  0.37959  0.40055  1.0000
  H   H323      1.0  0.25318  0.34394  0.41745  1.0000
  H   H324      1.0  0.07608  0.35419  0.40979  1.0000
  C   C190      1.0  0.29963  0.34778  0.10772  1.0000
  H   H325      1.0  0.01384  0.36603  0.35469  1.0000
  H   H326      1.0  0.02976  0.36636  0.16022  1.0000
  C   C191      1.0  0.07030  0.32779  0.07005  1.0000
  H   H327      1.0  0.35426  0.56324  0.22564  1.0000
  H   H328      1.0  0.30993  0.48152  0.22428  1.0000
  H   H329      1.0  0.27721  0.36134  0.36741  1.0000
  C   C192      1.0  0.02156  0.35956  0.47059  1.0000
  Fe  Fe31      1.0  0.29688  0.37664  0.23023  1.0000
  S   S57       1.0  0.31094  0.42379  0.22999  1.0000
  H   H330      1.0  0.24837  0.38110  0.33972  1.0000
  Fe  Fe32      1.0  0.31393  0.37809  0.29765  1.0000
  S   S58       1.0  0.32963  0.42530  0.30223  1.0000
  C   C193      1.0  0.14712  0.38173  0.34496  1.0000
  Fe  Fe33      1.0  0.28987  0.41592  0.27582  1.0000
  S   S59       1.0  0.26345  0.43576  0.29247  1.0000
  Fe  Fe34      1.0  0.35016  0.43058  0.25628  1.0000
  S   S60       1.0  0.39567  0.46562  0.24180  1.0000
  S   S61       1.0  0.27297  0.36860  0.27466  1.0000
  S   S62       1.0  0.33725  0.38356  0.25321  1.0000
  C   C194      1.0  0.23244  0.43064  0.27320  1.0000
  C   C195      1.0  0.21621  0.44217  0.28566  1.0000
  C   C196      1.0  0.19130  0.43844  0.27102  1.0000
  C   C197      1.0  0.19940  0.41268  0.23065  1.0000
  C   C198      1.0  0.22387  0.41574  0.24569  1.0000
  H   H331      1.0  0.22286  0.45393  0.30681  1.0000
  H   H332      1.0  0.17895  0.44738  0.28081  1.0000
  H   H333      1.0  0.23637  0.40700  0.23573  1.0000
  C   C199      1.0  0.42237  0.50133  0.25193  1.0000
  C   C200      1.0  0.44582  0.51661  0.23231  1.0000
  C   C201      1.0  0.46711  0.54509  0.23872  1.0000
  C   C202      1.0  0.46548  0.55883  0.26510  1.0000
  C   C203      1.0  0.44203  0.54358  0.28473  1.0000
  C   C204      1.0  0.42072  0.51510  0.27830  1.0000
  H   H334      1.0  0.44744  0.50637  0.21179  1.0000
  H   H335      1.0  0.05938  0.37569  0.49897  1.0000
  H   H336      1.0  0.40318  0.50372  0.29390  1.0000
  C   C205      1.0  0.34441  0.50162  0.31330  1.0000
  H   H337      1.0  0.08685  0.34451  0.02501  1.0000
  S   S63       1.0  0.08892  0.65061  0.22072  1.0000
  C   C206      1.0  0.26882  0.49802  0.22555  1.0000
  H   H338      1.0  0.08883  0.35602  0.12805  1.0000
  H   H339      1.0  0.16138  0.38027  0.36209  1.0000
  N   N10       1.0  0.35033  0.52124  0.22712  1.0000
  N   N11       1.0  0.15148  0.34512  0.31007  1.0000
  H   H340      1.0  0.40626  0.55921  0.20129  1.0000
  C   C207      1.0  0.99239  0.36401  0.35731  1.0000
  H   H341      1.0  0.01828  0.35890  0.10503  1.0000
  H   H342      1.0  0.10530  0.32638  0.31088  1.0000
  H   H343      1.0  0.99498  0.38518  0.36360  1.0000
  C   C208      1.0  0.28056  0.34617  0.38033  1.0000
  C   C209      1.0  0.36438  0.50531  0.21401  1.0000
  C   C210      1.0  0.36322  0.50210  0.17895  1.0000
  C   C211      1.0  0.37899  0.48643  0.16851  1.0000
  H   H344      1.0  0.38706  0.51532  0.22132  1.0000
  H   H345      1.0  0.35425  0.48328  0.22327  1.0000
  H   H346      1.0  0.37331  0.52318  0.16751  1.0000
  H   H347      1.0  0.34078  0.48945  0.17102  1.0000
  H   H348      1.0  0.33517  0.48107  0.32583  1.0000
  H   H349      1.0  0.35385  0.48402  0.27403  1.0000
  C   C212      1.0  0.01351  0.34077  0.11936  1.0000
  H   H350      1.0  0.40179  0.49836  0.17555  1.0000
  H   H351      1.0  0.36894  0.46460  0.17842  1.0000
  H   H352      1.0  0.37804  0.48443  0.14338  1.0000
  C   C213      1.0  0.99444  0.33084  0.46245  1.0000
  H   H353      1.0  0.00124  0.37218  0.41617  1.0000
  H   H354      1.0  0.08038  0.56837  0.42369  1.0000
  C   C214      1.0  0.26697  0.33624  0.40872  1.0000
  H   H355      1.0  0.11673  0.63659  0.42172  1.0000
  H   H356      1.0  0.99568  0.61693  0.41470  1.0000
  H   H357      1.0  0.03451  0.37025  0.45016  1.0000
  H   H358      1.0  0.47055  0.50406  0.32036  1.0000
  C   C215      1.0  0.07846  0.35034  0.04528  1.0000
  H   H359      1.0  0.99914  0.65209  0.03155  1.0000
  C   C216      1.0  0.40587  0.59877  0.20068  1.0000
  H   H360      1.0  0.17484  0.37796  0.43468  1.0000
  H   H361      1.0  0.10090  0.58384  0.19425  1.0000
  H   H362      1.0  0.22551  0.34294  0.33800  1.0000
  H   H363      1.0  0.07958  0.36347  0.18020  1.0000
  H   H364      1.0  0.12752  0.33133  0.20505  1.0000
  H   H365      1.0  0.12361  0.34071  0.13475  1.0000
  H   H366      1.0  0.35582  0.54961  0.18960  1.0000
  C   C217      1.0  0.18339  0.34252  0.42879  1.0000
  H   H367      1.0  0.17851  0.36010  0.26995  1.0000
  C   C218      1.0  0.15793  0.34164  0.27737  1.0000
  H   H368      1.0  0.02229  0.57842  0.32455  1.0000
  C   C219      1.0  0.34227  0.49585  0.27913  1.0000
  H   H369      1.0  0.09479  0.37165  0.05380  1.0000
  C   C220      1.0  0.47037  0.46418  0.32402  1.0000
  H   H370      1.0  0.44043  0.55381  0.30526  1.0000
  C   C221      1.0  0.09608  0.62508  0.40931  1.0000
  H   H371      1.0  0.32335  0.33270  0.18609  1.0000
  H   H372      1.0  0.08413  0.33442  0.19345  1.0000
  H   H373      1.0  0.31812  0.36225  0.09450  1.0000
  N   N12       1.0  0.11966  0.50652  0.18184  1.0000
  C   C222      1.0  0.10184  0.47491  0.17534  1.0000
  C   C223      1.0  0.13120  0.51132  0.21395  1.0000
  C   C224      1.0  0.10023  0.51938  0.17920  1.0000
  C   C225      1.0  0.14350  0.52137  0.15907  1.0000
  C   C226      1.0  0.16541  0.51067  0.15682  1.0000
  C   C227      1.0  0.08784  0.46654  0.14346  1.0000
  C   C228      1.0  0.11190  0.55001  0.19249  1.0000
  C   C229      1.0  0.13977  0.48969  0.22683  1.0000
  C   C230      1.0  0.15623  0.50038  0.25664  1.0000
  C   C231      1.0  0.18528  0.52397  0.12959  1.0000
  C   C232      1.0  0.07015  0.43404  0.14010  1.0000
  C   C233      1.0  0.09401  0.56339  0.18195  1.0000
  H   H374      1.0  0.08437  0.46495  0.19243  1.0000
  H   H375      1.0  0.11439  0.46374  0.17807  1.0000
  H   H376      1.0  0.14970  0.53332  0.21641  1.0000
  H   H377      1.0  0.11475  0.51008  0.23024  1.0000
  H   H378      1.0  0.07947  0.50555  0.19088  1.0000
  H   H379      1.0  0.09469  0.52019  0.15501  1.0000
  H   H380      1.0  0.13461  0.52044  0.13602  1.0000
  H   H381      1.0  0.15620  0.54456  0.16427  1.0000
  H   H382      1.0  0.15490  0.48715  0.15414  1.0000
  H   H383      1.0  0.17908  0.51725  0.17742  1.0000
  H   H384      1.0  0.07316  0.47521  0.13960  1.0000
  H   H385      1.0  0.10437  0.47449  0.12539  1.0000
  H   H386      1.0  0.13431  0.56460  0.18572  1.0000
  H   H387      1.0  0.11108  0.54924  0.21771  1.0000
  H   H388      1.0  0.12015  0.46917  0.23166  1.0000
  H   H389      1.0  0.15294  0.48505  0.21102  1.0000
  H   H390      1.0  0.16160  0.48424  0.26545  1.0000
  H   H391      1.0  0.17645  0.52074  0.25303  1.0000
  H   H392      1.0  0.14299  0.50369  0.27388  1.0000
  H   H393      1.0  0.20125  0.51653  0.12899  1.0000
  H   H394      1.0  0.17293  0.51743  0.10805  1.0000
  H   H395      1.0  0.19689  0.54767  0.13134  1.0000
  H   H396      1.0  0.06042  0.42847  0.11711  1.0000
  H   H397      1.0  0.08378  0.42399  0.14313  1.0000
  H   H398      1.0  0.05262  0.42505  0.15716  1.0000
  H   H399      1.0  0.11209  0.64499  0.35328  1.0000
  H   H400      1.0  0.09686  0.56786  0.15720  1.0000
  H   H401      1.0  0.48487  0.49478  0.28804  1.0000
  H   H402      1.0  0.25513  0.50391  0.23929  1.0000
  H   H403      1.0  0.07099  0.54893  0.18675  1.0000
  H   H404      1.0  0.33216  0.51253  0.31968  1.0000
  H   H405      1.0  0.06096  0.33380  0.08914  1.0000
  C   C234      1.0  0.29968  0.51447  0.23688  1.0000
  H   H406      1.0  0.20408  0.34679  0.47108  1.0000
  C   C235      1.0  0.36278  0.55078  0.21361  1.0000
  C   C236      1.0  0.18152  0.33445  0.46292  1.0000
  H   H407      1.0  0.40412  0.57261  0.23807  1.0000
  H   H408      1.0  0.36708  0.51503  0.32028  1.0000
  H   H409      1.0  0.29927  0.51039  0.26163  1.0000
  H   H410      1.0  0.13591  0.37408  0.29809  1.0000
  C   C237      1.0  0.02000  0.34507  0.15066  1.0000
  H   H411      1.0  0.31529  0.50614  0.19516  1.0000
  C   C238      1.0  0.06051  0.63165  0.37850  1.0000
  H   H412      1.0  0.13639  0.36027  0.25091  1.0000
  C   C239      1.0  0.04085  0.35480  0.49249  1.0000
  C   C240      1.0  0.20540  0.36793  0.32430  1.0000
  C   C241      1.0  0.39592  0.56928  0.21446  1.0000
  H   H413      1.0  0.05919  0.35156  0.03843  1.0000
  H   H414      1.0  0.37876  0.53503  0.26591  1.0000
  C   C242      1.0  0.08371  0.33829  0.14417  1.0000
  H   H415      1.0  0.21234  0.38800  0.43650  1.0000
  H   H416      1.0  0.30744  0.53757  0.23347  1.0000
  H   H417      1.0  0.00256  0.60022  0.44668  1.0000
  H   H418      1.0  0.06151  0.59312  0.36208  1.0000
  H   H419      1.0  0.13863  0.41509  0.32849  1.0000
  S   S64       1.0  0.31653  0.34834  0.33329  1.0000
  H   H420      1.0  0.04302  0.62102  0.39526  1.0000
  C   C243      1.0  0.19166  0.37394  0.42501  1.0000
  C   C244      1.0  0.05582  0.60914  0.35380  1.0000
  H   H421      1.0  0.06886  0.61979  0.33343  1.0000
  H   H422      1.0  0.06560  0.56809  0.46052  1.0000
  H   H423      1.0  0.42958  0.61149  0.20157  1.0000
  C   C245      1.0  0.13583  0.33945  0.25327  1.0000
  H   H424      1.0  0.26751  0.50309  0.20137  1.0000
  H   H425      1.0  0.39702  0.61043  0.21365  1.0000
  C   C246      1.0  0.35548  0.52420  0.26094  1.0000
  H   H426      1.0  0.26032  0.47464  0.22782  1.0000
  H   H427      1.0  0.00883  0.34425  0.40828  1.0000
  H   H428      1.0  0.01760  0.60818  0.33556  1.0000
  H   H429      1.0  0.31469  0.37325  0.14883  1.0000
  C   C247      1.0  0.02460  0.59302  0.34361  1.0000
  C   C248      1.0  0.09109  0.35142  0.17595  1.0000
  H   H430      1.0  0.17300  0.39077  0.30439  1.0000
  H   H431      1.0  0.31945  0.48172  0.27367  1.0000
  C   C249      1.0  0.15238  0.41238  0.34549  1.0000
  C   C250      1.0  0.29775  0.35411  0.13854  1.0000
  C   C251      1.0  0.31880  0.50479  0.21987  1.0000
  H   H432      1.0  0.34789  0.53833  0.27095  1.0000
  C   C252      1.0  0.29888  0.33680  0.36897  1.0000
  H   H433      1.0  0.46819  0.46304  0.34915  1.0000
  C   C253      1.0  0.05764  0.33730  0.39842  1.0000
  H   H434      1.0  0.22146  0.36348  0.36839  1.0000
  H   H435      1.0  0.05658  0.64803  0.36747  1.0000
  C   C254      1.0  0.08131  0.58199  0.44317  1.0000
  H   H436      1.0  0.01057  0.58008  0.36256  1.0000
  H   H437      1.0  0.48310  0.45403  0.31670  1.0000
  H   H438      1.0  0.05209  0.59345  0.42340  1.0000
  S   S65       1.0  0.27026  0.34194  0.19501  1.0000
  H   H439      1.0  0.16306  0.32942  0.41654  1.0000
  H   H440      1.0  0.12453  0.36762  0.35164  1.0000
  H   H441      1.0  0.99918  0.64331  0.46149  1.0000
  H   H442      1.0  0.44865  0.45193  0.31394  1.0000
  N   N13       1.0  0.08943  0.64611  0.39375  1.0000
  C   C255      1.0  0.48442  0.49518  0.31325  1.0000
  H   H443      1.0  0.11438  0.36647  0.17819  1.0000
  H   H444      1.0  0.09954  0.61179  0.39217  1.0000
  H   H445      1.0  0.10301  0.59205  0.45340  1.0000
  C   C256      1.0  0.07403  0.60481  0.43281  1.0000
  H   H446      1.0  0.07452  0.61705  0.45330  1.0000
  H   H447      1.0  0.16476  0.34803  0.21494  1.0000
  H   H448      1.0  0.05336  0.64164  0.44414  1.0000
  C   C257      1.0  0.14288  0.33183  0.22214  1.0000
  H   H449      1.0  0.01568  0.37440  0.48190  1.0000
  H   H450      1.0  0.11509  0.34619  0.08305  1.0000
  H   H451      1.0  0.04911  0.34170  0.48149  1.0000
  C   C258      1.0  0.17404  0.34387  0.32949  1.0000
  C   C259      1.0  0.27389  0.33568  0.15588  1.0000
  H   H452      1.0  0.48474  0.55643  0.22318  1.0000
  H   H453      1.0  0.16983  0.34468  0.35400  1.0000
  C   C260      1.0  0.22628  0.36342  0.34391  1.0000
  H   H454      1.0  0.12288  0.32815  0.36760  1.0000
  H   H455      1.0  0.21236  0.36866  0.30048  1.0000
  H   H456      1.0  0.15375  0.33234  0.11120  1.0000
  C   C261      1.0  0.99090  0.34867  0.41230  1.0000
  C   C262      1.0  0.30463  0.32809  0.75322  1.0000
  H   H457      1.0  0.42294  0.41086  0.66893  1.0000
  H   H458      1.0  0.19074  0.34148  0.52187  1.0000
  H   H459      1.0  0.01145  0.62010  0.95595  1.0000
  S   S66       1.0  0.36312  0.33494  0.68919  1.0000
  C   C263      1.0  0.45693  0.43039  0.70071  1.0000
  H   H460      1.0  0.00044  0.64261  0.55911  1.0000
  H   H461      1.0  0.35529  0.33269  0.89991  1.0000
  Fe  Fe35      1.0  0.44551  0.34740  0.75476  1.0000
  H   H462      1.0  0.00712  0.40319  0.82599  1.0000
  S   S67       1.0  0.41057  0.35821  0.76129  1.0000
  H   H463      1.0  0.41740  0.39664  0.61000  1.0000
  H   H464      1.0  0.36131  0.37073  0.74128  1.0000
  H   H465      1.0  0.41793  0.35217  0.65446  1.0000
  S   S68       1.0  0.37530  0.32928  0.84058  1.0000
  H   H466      1.0  0.37065  0.38207  0.78015  1.0000
  H   H467      1.0  0.32406  0.34536  0.79799  1.0000
  H   H468      1.0  0.99031  0.65126  0.94725  1.0000
  C   C264      1.0  0.00713  0.65146  0.53589  1.0000
  H   H469      1.0  0.39195  0.37677  0.63936  1.0000
  H   H470      1.0  0.45392  0.45395  0.73929  1.0000
  H   H471      1.0  0.48243  0.42301  0.77759  1.0000
  H   H472      1.0  0.99420  0.35182  0.82341  1.0000
  C   C265      1.0  0.43948  0.43519  0.72514  1.0000
  H   H473      1.0  0.37253  0.35532  0.59022  1.0000
  N   N14       1.0  0.45262  0.39600  0.65683  1.0000
  H   H474      1.0  0.02848  0.37403  0.84087  1.0000
  H   H475      1.0  0.43967  0.36403  0.62131  1.0000
  C   C266      1.0  0.43762  0.40470  0.68011  1.0000
  H   H476      1.0  0.40348  0.35184  0.58156  1.0000
  H   H477      1.0  0.42310  0.43936  0.71465  1.0000
  H   H478      1.0  0.34283  0.38603  0.76183  1.0000
  H   H479      1.0  0.46755  0.45027  0.68705  1.0000
  C   C267      1.0  0.38971  0.35212  0.60025  1.0000
  C   C268      1.0  0.99213  0.65842  0.97117  1.0000
  C   C269      1.0  0.40721  0.37621  0.62273  1.0000
  H   H480      1.0  0.42388  0.38612  0.69497  1.0000
  C   C270      1.0  0.42978  0.37100  0.63920  1.0000
  H   H481      1.0  0.03108  0.65847  0.98790  1.0000
  H   H482      1.0  0.45928  0.43321  0.63147  1.0000
  C   C271      1.0  0.35264  0.37211  0.76375  1.0000
  H   H483      1.0  0.42876  0.41631  0.74023  1.0000
  H   H484      1.0  0.01007  0.40237  0.86668  1.0000
  C   C272      1.0  0.00509  0.36523  0.84360  1.0000
  H   H485      1.0  0.99445  0.61198  0.00797  1.0000
  H   H486      1.0  0.33427  0.34191  0.63772  1.0000
  H   H487      1.0  0.29384  0.34128  0.75387  1.0000
  C   C273      1.0  0.99838  0.38964  0.84651  1.0000
  H   H488      1.0  0.00138  0.57382  0.97951  1.0000
  H   H489      1.0  0.19669  0.32885  0.57371  1.0000
  H   H490      1.0  0.09987  0.33711  0.93123  1.0000
  H   H491      1.0  0.46561  0.34835  0.64756  1.0000
  C   C274      1.0  0.33070  0.34237  0.77500  1.0000
  H   H492      1.0  0.02899  0.34392  0.51349  1.0000
  H   H493      1.0  0.31367  0.33064  0.72990  1.0000
  C   C275      1.0  0.47042  0.38556  0.67317  1.0000
  H   H494      1.0  0.01553  0.63925  0.52337  1.0000
  H   H495      1.0  0.34141  0.32930  0.77703  1.0000
  H   H496      1.0  0.47327  0.42712  0.71242  1.0000
  H   H497      1.0  0.08013  0.32996  0.96624  1.0000
  H   H498      1.0  0.99813  0.35173  0.86434  1.0000
  H   H499      1.0  0.99667  0.57142  0.93886  1.0000
  C   C276      1.0  0.47000  0.42022  0.63507  1.0000
  H   H500      1.0  0.47071  0.41174  0.61215  1.0000
  H   H501      1.0  0.45752  0.37014  0.69124  1.0000
  H   H502      1.0  0.99276  0.47826  0.80737  1.0000
  H   H503      1.0  0.99201  0.43729  0.83271  1.0000
  H   H504      1.0  0.48838  0.40309  0.68568  1.0000
  C   C277      1.0  0.48272  0.37045  0.65292  1.0000
  H   H505      1.0  0.99032  0.42621  0.88421  1.0000
  C   C278      1.0  0.98897  0.60346  0.96015  1.0000
  H   H506      1.0  0.37955  0.33108  0.61194  1.0000
  H   H507      1.0  0.20217  0.92429  0.28076  1.0000
  H   H508      1.0  0.48334  0.95708  0.11684  1.0000
  H   H509      1.0  0.33469  0.83628  0.29537  1.0000
  C   C279      1.0  0.12046  0.95040  0.05166  1.0000
  S   S69       1.0  0.02628  0.71031  0.06383  1.0000
  C   C280      1.0  0.09071  0.84708  0.02277  1.0000
  H   H510      1.0  0.34990  0.89619  0.44103  1.0000
  H   H511      1.0  0.38534  0.92938  0.31323  1.0000
  C   C281      1.0  0.15906  0.97470  0.09140  1.0000
  H   H512      1.0  0.15962  0.91532  0.48726  1.0000
  H   H513      1.0  0.45247  0.90402  0.38216  1.0000
  H   H514      1.0  0.16667  0.95905  0.08789  1.0000
  S   S70       1.0  0.23391  0.85223  0.25429  1.0000
  Fe  Fe36      1.0  0.11955  0.69059  0.24617  1.0000
  S   S71       1.0  0.08823  0.70601  0.25361  1.0000
  S   S72       1.0  0.16601  0.71787  0.23223  1.0000
  C   C282      1.0  0.21570  0.81487  0.24831  1.0000
  C   C283      1.0  0.18592  0.79955  0.25242  1.0000
  C   C284      1.0  0.17053  0.76977  0.24816  1.0000
  C   C285      1.0  0.18474  0.75512  0.23903  1.0000
  C   C286      1.0  0.21447  0.77048  0.23451  1.0000
  C   C287      1.0  0.22998  0.80024  0.23936  1.0000
  H   H515      1.0  0.17463  0.81076  0.25874  1.0000
  H   H516      1.0  0.14765  0.75821  0.25158  1.0000
  H   H517      1.0  0.22557  0.75927  0.22733  1.0000
  H   H518      1.0  0.25287  0.81184  0.23595  1.0000
  C   C288      1.0  0.05203  0.70187  0.36834  1.0000
  S   S73       1.0  0.26255  0.97138  0.50748  1.0000
  C   C289      1.0  0.42817  0.93995  0.13718  1.0000
  C   C290      1.0  0.01326  0.69743  0.41486  1.0000
  C   C291      1.0  0.04118  0.72044  0.41455  1.0000
  C   C292      1.0  0.06044  0.72250  0.39155  1.0000
  H   H519      1.0  0.04805  0.73653  0.43219  1.0000
  H   H520      1.0  0.08206  0.74027  0.39179  1.0000
  C   C293      1.0  0.03505  0.87849  0.02951  1.0000
  H   H521      1.0  0.12685  0.93356  0.05201  1.0000
  H   H522      1.0  0.30793  0.98312  0.01979  1.0000
  H   H523      1.0  0.35462  0.86567  0.43433  1.0000
  C   C294      1.0  0.46928  0.88656  0.34955  1.0000
  H   H524      1.0  0.39778  0.97886  0.32447  1.0000
  H   H525      1.0  0.11090  0.88184  0.46794  1.0000
  C   C295      1.0  0.02644  0.70049  0.10244  1.0000
  H   H526      1.0  0.27609  0.91086  0.05515  1.0000
  C   C296      1.0  0.02630  0.68171  0.16287  1.0000
  C   C297      1.0  0.45193  0.90133  0.35718  1.0000
  C   C298      1.0  0.04274  0.68749  0.11038  1.0000
  H   H527      1.0  0.14251  0.96711  0.40748  1.0000
  C   C299      1.0  0.37244  0.89855  0.39929  1.0000
  C   C300      1.0  0.29237  0.97503  0.11805  1.0000
  H   H528      1.0  0.27051  0.96335  0.11017  1.0000
  H   H529      1.0  0.32266  0.94711  0.40731  1.0000
  C   C301      1.0  0.01009  0.69484  0.15494  1.0000
  C   C302      1.0  0.38824  0.96403  0.11941  1.0000
  H   H530      1.0  0.16362  0.98750  0.04475  1.0000
  Fe  Fe37      1.0  0.32730  0.93727  0.22387  1.0000
  S   S74       1.0  0.31431  0.89129  0.21483  1.0000
  S   S75       1.0  0.34336  0.97024  0.18566  1.0000
  Fe  Fe38      1.0  0.32456  0.92888  0.29361  1.0000
  S   S76       1.0  0.31186  0.88252  0.28845  1.0000
  S   S77       1.0  0.33043  0.94278  0.34334  1.0000
  Fe  Fe39      1.0  0.34572  0.89676  0.25206  1.0000
  S   S78       1.0  0.37548  0.87751  0.24651  1.0000
  Fe  Fe40      1.0  0.28206  0.88157  0.25225  1.0000
  S   S79       1.0  0.36029  0.94319  0.25938  1.0000
  S   S80       1.0  0.29328  0.92755  0.25903  1.0000
  C   C303      1.0  0.47161  0.90983  0.26523  1.0000
  C   C304      1.0  0.45421  0.88312  0.25182  1.0000
  C   C305      1.0  0.42501  0.87373  0.24604  1.0000
  C   C306      1.0  0.41276  0.89093  0.25327  1.0000
  C   C307      1.0  0.43026  0.91781  0.26618  1.0000
  C   C308      1.0  0.45937  0.92709  0.27226  1.0000
  H   H531      1.0  0.46314  0.86946  0.24639  1.0000
  H   H532      1.0  0.41178  0.85283  0.23611  1.0000
  H   H533      1.0  0.42128  0.93131  0.27192  1.0000
  C   C309      1.0  0.31032  0.95550  0.36360  1.0000
  C   C310      1.0  0.29477  0.96637  0.34870  1.0000
  H   H534      1.0  0.42974  0.93095  0.32578  1.0000
  H   H535      1.0  0.99709  0.69745  0.17207  1.0000
  C   C311      1.0  0.31050  0.95525  0.39556  1.0000
  H   H536      1.0  0.34896  0.85049  0.18575  1.0000
  C   C312      1.0  0.27966  0.97656  0.39754  1.0000
  C   C313      1.0  0.30103  0.96537  0.14395  1.0000
  C   C314      1.0  0.42243  0.95682  0.21010  1.0000
  H   H537      1.0  0.46903  0.88279  0.32470  1.0000
  H   H538      1.0  0.04230  0.86307  0.02302  1.0000
  H   H539      1.0  0.28583  0.94619  0.15571  1.0000
  S   S81       1.0  0.07806  0.70492  0.34127  1.0000
  C   C315      1.0  0.10600  0.98454  0.50765  1.0000
  H   H540      1.0  0.23906  0.92268  0.43169  1.0000
  H   H541      1.0  0.28475  0.85299  0.38549  1.0000
  C   C316      1.0  0.37382  0.87793  0.33428  1.0000
  H   H542      1.0  0.05721  0.88285  0.48093  1.0000
  H   H543      1.0  0.05222  0.92131  0.04700  1.0000
  C   C317      1.0  0.36501  0.88930  0.43238  1.0000
  C   C318      1.0  0.25277  0.86472  0.37318  1.0000
  C   C319      1.0  0.02396  0.67900  0.36839  1.0000
  C   C320      1.0  0.14640  0.97885  0.06201  1.0000
  C   C321      1.0  0.21556  0.90909  0.42938  1.0000
  H   H544      1.0  0.38417  0.85380  0.18621  1.0000
  H   H545      1.0  0.19337  0.83889  0.37651  1.0000
  H   H546      1.0  0.18480  0.87109  0.40657  1.0000
  C   C322      1.0  0.20836  0.88534  0.40609  1.0000
  H   H547      1.0  0.31516  0.83778  0.32826  1.0000
  Fe  Fe41      1.0  0.05654  0.66489  0.23107  1.0000
  H   H548      1.0  0.18492  0.70883  0.36156  1.0000
  H   H549      1.0  0.46052  0.86576  0.36155  1.0000
  C   C323      1.0  0.41134  0.95978  0.17857  1.0000
  H   H550      1.0  0.37539  0.91938  0.11660  1.0000
  H   H551      1.0  0.38454  0.89931  0.44674  1.0000
  H   H552      1.0  0.35212  0.88847  0.38637  1.0000
  H   H553      1.0  0.05516  0.68417  0.09311  1.0000
  C   C324      1.0  0.11765  0.87786  0.48967  1.0000
  H   H554      1.0  0.38182  0.92212  0.39879  1.0000
  H   H555      1.0  0.27799  0.94517  0.05787  1.0000
  Fe  Fe42      1.0  0.00322  0.73027  0.03818  1.0000
  C   C325      1.0  0.38053  0.93524  0.13515  1.0000
  C   C326      1.0  0.41492  0.92615  0.34526  1.0000
  Fe  Fe43      1.0  0.99480  0.72559  0.48147  1.0000
  H   H556      1.0  0.36286  0.94557  0.07839  1.0000
  H   H557      1.0  0.42214  0.98130  0.35389  1.0000
  C   C327      1.0  0.14522  0.89700  0.50066  1.0000
  H   H558      1.0  0.23541  0.84332  0.37988  1.0000
  N   N15       1.0  0.10997  0.77517  0.15949  1.0000
  C   C328      1.0  0.10171  0.77635  0.19208  1.0000
  C   C329      1.0  0.13955  0.79987  0.15284  1.0000
  C   C330      1.0  0.08881  0.77821  0.13935  1.0000
  C   C331      1.0  0.10826  0.74700  0.15205  1.0000
  C   C332      1.0  0.12764  0.73894  0.17062  1.0000
  C   C333      1.0  0.07186  0.75226  0.20237  1.0000
  C   C334      1.0  0.09493  0.78048  0.10462  1.0000
  C   C335      1.0  0.16179  0.81031  0.17909  1.0000
  C   C336      1.0  0.19174  0.83158  0.16776  1.0000
  C   C337      1.0  0.12050  0.70828  0.16356  1.0000
  C   C338      1.0  0.06564  0.75694  0.23516  1.0000
  C   C339      1.0  0.07420  0.78710  0.08738  1.0000
  H   H559      1.0  0.10269  0.79726  0.19646  1.0000
  H   H560      1.0  0.11712  0.77549  0.20819  1.0000
  H   H561      1.0  0.14906  0.79468  0.13296  1.0000
  H   H562      1.0  0.13828  0.81921  0.14607  1.0000
  H   H563      1.0  0.08716  0.79731  0.14635  1.0000
  H   H564      1.0  0.06701  0.75948  0.14182  1.0000
  H   H565      1.0  0.08587  0.72944  0.15416  1.0000
  H   H566      1.0  0.11403  0.74649  0.12791  1.0000
  H   H567      1.0  0.12504  0.74041  0.19541  1.0000
  H   H568      1.0  0.15035  0.75302  0.16429  1.0000
  H   H569      1.0  0.05435  0.75135  0.18832  1.0000
  H   H570      1.0  0.07090  0.73119  0.20123  1.0000
  H   H571      1.0  0.09198  0.75989  0.09559  1.0000
  H   H572      1.0  0.11691  0.79756  0.09913  1.0000
  H   H573      1.0  0.15593  0.82134  0.19675  1.0000
  H   H574      1.0  0.16304  0.79252  0.19017  1.0000
  H   H575      1.0  0.19190  0.85037  0.15709  1.0000
  H   H576      1.0  0.20687  0.83920  0.18722  1.0000
  H   H577      1.0  0.19927  0.82121  0.15107  1.0000
  H   H578      1.0  0.13594  0.70343  0.17511  1.0000
  H   H579      1.0  0.09874  0.69309  0.17195  1.0000
  H   H580      1.0  0.12164  0.70514  0.13876  1.0000
  H   H581      1.0  0.08271  0.75871  0.25069  1.0000
  H   H582      1.0  0.06395  0.77667  0.23698  1.0000
  H   H583      1.0  0.04504  0.73847  0.24255  1.0000
  H   H584      1.0  0.07796  0.78711  0.06255  1.0000
  H   H585      1.0  0.05172  0.77059  0.09211  1.0000
  H   H586      1.0  0.07738  0.80845  0.09391  1.0000
  N   N16       1.0  0.21623  0.87719  0.34885  1.0000
  C   C340      1.0  0.19133  0.84760  0.35445  1.0000
  C   C341      1.0  0.21799  0.89767  0.37362  1.0000
  C   C342      1.0  0.21063  0.88747  0.31903  1.0000
  C   C343      1.0  0.24418  0.87706  0.34598  1.0000
  C   C344      1.0  0.18621  0.82465  0.33004  1.0000
  C   C345      1.0  0.23173  0.91898  0.31043  1.0000
  C   C346      1.0  0.27878  0.86149  0.36551  1.0000
  C   C347      1.0  0.16237  0.79510  0.33957  1.0000
  C   C348      1.0  0.22386  0.92660  0.27983  1.0000
  H   H587      1.0  0.17120  0.84871  0.35637  1.0000
  H   H588      1.0  0.24012  0.91615  0.37515  1.0000
  H   H589      1.0  0.20423  0.90719  0.36793  1.0000
  H   H590      1.0  0.18867  0.88476  0.31890  1.0000
  H   H591      1.0  0.21140  0.87440  0.29983  1.0000
  H   H592      1.0  0.24446  0.86569  0.32489  1.0000
  H   H593      1.0  0.26222  0.89917  0.34301  1.0000
  H   H594      1.0  0.17949  0.82987  0.30829  1.0000
  H   H595      1.0  0.20571  0.82298  0.32603  1.0000
  H   H596      1.0  0.25373  0.92250  0.30829  1.0000
  H   H597      1.0  0.23168  0.93409  0.32759  1.0000
  H   H598      1.0  0.27387  0.84640  0.34622  1.0000
  H   H599      1.0  0.29732  0.88249  0.35943  1.0000
  H   H600      1.0  0.15888  0.77931  0.32140  1.0000
  H   H601      1.0  0.14200  0.79532  0.34316  1.0000
  H   H602      1.0  0.23949  0.94912  0.27407  1.0000
  H   H603      1.0  0.22454  0.91259  0.26159  1.0000
  H   H604      1.0  0.06906  0.90154  0.06087  1.0000
  C   C349      1.0  0.00479  0.67672  0.39166  1.0000
  C   C350      1.0  0.38931  0.90714  0.17255  1.0000
  H   H605      1.0  0.37930  0.88235  0.30981  1.0000
  C   C351      1.0  0.07024  0.68538  0.45752  1.0000
  C   C352      1.0  0.09145  0.66881  0.41569  1.0000
  S   S82       1.0  0.00630  0.77331  0.04579  1.0000
  C   C353      1.0  0.37857  0.88014  0.15222  1.0000
  H   H606      1.0  0.36014  0.92840  0.14783  1.0000
  H   H607      1.0  0.39257  0.96255  0.18397  1.0000
  S   S83       1.0  0.06395  0.83084  0.49168  1.0000
  C   C354      1.0  0.32943  0.98069  0.15446  1.0000
  C   C355      1.0  0.36709  0.85303  0.17138  1.0000
  H   H608      1.0  0.33766  0.98099  0.03333  1.0000
  H   H609      1.0  0.37082  0.90475  0.18629  1.0000
  H   H610      1.0  0.40411  0.90613  0.18937  1.0000
  C   C356      1.0  0.39425  0.89019  0.38667  1.0000
  C   C357      1.0  0.41238  0.97091  0.33192  1.0000
  H   H611      1.0  0.35795  0.88507  0.33846  1.0000
  S   S84       1.0  0.25966  0.98965  0.41742  1.0000
  H   H612      1.0  0.26779  0.98542  0.35382  1.0000
  H   H613      1.0  0.14478  0.69649  0.39652  1.0000
  H   H614      1.0  0.44455  0.91846  0.16785  1.0000
  H   H615      1.0  0.29502  0.96735  0.32416  1.0000
  H   H616      1.0  0.36082  0.87755  0.13734  1.0000
  H   H617      1.0  0.39611  0.88125  0.13797  1.0000
  C   C358      1.0  0.06389  0.66279  0.43310  1.0000
  C   C359      1.0  0.43485  0.98482  0.22798  1.0000
  H   H618      1.0  0.40436  0.94027  0.22344  1.0000
  H   H619      1.0  0.08177  0.70721  0.44765  1.0000
  H   H620      1.0  0.04830  0.66347  0.41714  1.0000
  H   H621      1.0  0.29559  0.96544  0.43704  1.0000
  H   H622      1.0  0.30844  0.94143  0.06843  1.0000
  H   H623      1.0  0.01710  0.66297  0.35069  1.0000
  H   H624      1.0  0.42867  0.93932  0.36440  1.0000
  H   H625      1.0  0.37811  0.93338  0.35207  1.0000
  H   H626      1.0  0.35933  0.83404  0.15633  1.0000
  Fe  Fe44      1.0  0.07626  0.68101  0.29720  1.0000
  C   C360      1.0  0.33025  0.83082  0.31984  1.0000
  H   H627      1.0  0.21848  0.87280  0.41367  1.0000
  H   H628      1.0  0.16821  0.78804  0.36077  1.0000
  H   H629      1.0  0.25873  0.87957  0.39280  1.0000
  S   S85       1.0  0.11013  0.66843  0.29090  1.0000
  H   H630      1.0  0.37132  0.83588  0.32990  1.0000
  H   H631      1.0  0.46311  0.92285  0.34664  1.0000
  C   C361      1.0  0.35796  0.84497  0.33821  1.0000
  H   H632      1.0  0.41250  0.86149  0.35387  1.0000
  H   H633      1.0  0.20630  0.92273  0.42255  1.0000
  S   S86       1.0  0.99154  0.76536  0.47373  1.0000
  H   H634      1.0  0.43895  0.95033  0.20867  1.0000
  N   N17       1.0  0.40290  0.93550  0.15618  1.0000
  C   C362      1.0  0.27954  0.97682  0.36559  1.0000
  H   H635      1.0  0.10447  0.94481  0.07012  1.0000
  H   H636      1.0  0.42938  0.97699  0.31451  1.0000
  N   N18       1.0  0.10751  0.95032  0.02122  1.0000
  H   H637      1.0  0.15590  0.70975  0.34211  1.0000
  C   C363      1.0  0.04653  0.89302  0.49340  1.0000
  C   C364      1.0  0.06033  0.90664  0.04043  1.0000
  H   H638      1.0  0.20667  0.89961  0.45193  1.0000
  H   H639      1.0  0.31988  0.80722  0.32212  1.0000
  C   C365      1.0  0.13837  0.96753  0.48674  1.0000
  C   C366      1.0  0.39539  0.93846  0.33552  1.0000
  H   H640      1.0  0.16005  0.95560  0.43427  1.0000
  H   H641      1.0  0.42227  0.88215  0.31998  1.0000
  H   H642      1.0  0.46458  0.95713  0.16839  1.0000
  H   H643      1.0  0.12011  0.86762  0.05984  1.0000
  H   H644      1.0  0.04984  0.68227  0.46724  1.0000
  H   H645      1.0  0.47253  0.94779  0.28264  1.0000
  C   C367      1.0  0.01023  0.70431  0.12498  1.0000
  C   C368      1.0  0.13748  0.89034  0.01794  1.0000
  H   H646      1.0  0.35224  0.83887  0.36230  1.0000
  C   C369      1.0  0.45254  0.93800  0.15383  1.0000
  C   C370      1.0  0.29522  0.96567  0.41248  1.0000
  C   C371      1.0  0.29038  0.93421  0.05227  1.0000
  H   H647      1.0  0.41413  0.90294  0.40000  1.0000
  H   H648      1.0  0.11065  0.94066  0.45010  1.0000
  C   C372      1.0  0.15105  0.97012  0.43096  1.0000
  H   H649      1.0  0.40840  0.97251  0.10634  1.0000
  N   N19       1.0  0.40052  0.89464  0.35310  1.0000
  C   C373      1.0  0.30119  0.94067  0.01954  1.0000
  H   H650      1.0  0.08669  0.97068  0.04436  1.0000
  H   H651      1.0  0.05435  0.66709  0.14571  1.0000
  C   C374      1.0  0.12708  0.96332  0.45380  1.0000
  C   C375      1.0  0.42079  0.88361  0.34516  1.0000
  H   H652      1.0  0.38704  0.86763  0.39303  1.0000
  H   H653      1.0  0.01906  0.86882  0.04803  1.0000
  H   H654      1.0  0.07070  0.93331  0.47100  1.0000
  H   H655      1.0  0.07466  0.83040  0.03680  1.0000
  S   S87       1.0  0.16875  0.91726  0.03608  1.0000
  H   H656      1.0  0.43851  0.96146  0.12655  1.0000
  C   C376      1.0  0.06600  0.92544  0.49464  1.0000
  H   H657      1.0  0.42096  0.92472  0.11774  1.0000
  C   C377      1.0  0.04252  0.67795  0.14029  1.0000
  H   H658      1.0  0.16224  0.67996  0.33645  1.0000
  H   H659      1.0  0.44148  0.98173  0.25091  1.0000
  H   H660      1.0  0.11805  0.97742  0.44853  1.0000
  C   C378      1.0  0.11649  0.86825  0.03576  1.0000
  H   H661      1.0  0.09782  0.68922  0.40331  1.0000
  H   H662      1.0  0.14574  0.95168  0.48978  1.0000
  H   H663      1.0  0.09303  0.97973  0.48669  1.0000
  C   C379      1.0  0.14293  0.67994  0.38016  1.0000
  C   C380      1.0  0.16263  0.69552  0.35339  1.0000
  S   S88       1.0  0.02379  0.66849  0.20052  1.0000
  Fe  Fe45      1.0  0.02880  0.78630  0.50642  1.0000
  H   H664      1.0  0.05380  0.93481  0.50555  1.0000
  H   H665      1.0  0.02640  0.88775  0.48131  1.0000
  C   C381      1.0  0.09878  0.85349  0.50640  1.0000
  H   H666      1.0  0.14292  0.96697  0.10990  1.0000
  H   H667      1.0  0.08333  0.68366  0.47602  1.0000
  C   C382      1.0  0.11163  0.66085  0.36926  1.0000
  H   H668      1.0  0.31174  0.92798  0.01419  1.0000
  H   H669      1.0  0.10129  0.91853  0.50676  1.0000
  H   H670      1.0  0.10592  0.67456  0.35538  1.0000
  H   H671      1.0  0.15111  0.66681  0.39109  1.0000
  Fe  Fe46      1.0  0.20574  0.95904  0.01809  1.0000
  C   C383      1.0  0.36479  0.96023  0.09718  1.0000
  C   C384      1.0  0.47397  0.93760  0.13124  1.0000
  H   H672      1.0  0.15812  0.98873  0.48842  1.0000
  H   H673      1.0  0.34393  0.95143  0.10913  1.0000
  H   H674      1.0  0.42750  0.98040  0.16829  1.0000
  S   S89       1.0  0.20887  0.97932  0.48249  1.0000
  H   H675      1.0  0.46349  0.91831  0.11654  1.0000
  H   H676      1.0  0.99742  0.71408  0.11926  1.0000
  C   C385      1.0  0.32144  0.97322  0.01480  1.0000
  H   H677      1.0  0.39058  0.98037  0.13636  1.0000
  H   H678      1.0  0.10862  0.67393  0.43272  1.0000
  H   H679      1.0  0.36994  0.98125  0.08735  1.0000
  H   H680      1.0  0.99007  0.66515  0.49894  1.0000
  H   H681      1.0  0.41862  0.99178  0.23070  1.0000
  C   C386      1.0  0.09523  0.97033  0.02139  1.0000
  H   H682      1.0  0.09254  0.90549  0.01219  1.0000
  C   C387      1.0  0.08363  0.92013  0.01548  1.0000
  S   S90       1.0  0.00568  0.72065  0.59808  1.0000
  H   H683      1.0  0.35818  0.94754  0.01005  1.0000
  H   H684      1.0  0.31231  0.92766  0.69087  1.0000
  H   H685      1.0  0.00224  0.77073  0.86512  1.0000
  C   C388      1.0  0.15710  0.95809  0.58351  1.0000
  C   C389      1.0  0.36454  0.98471  0.98383  1.0000
  C   C390      1.0  0.09346  0.93354  0.51329  1.0000
  C   C391      1.0  0.14206  0.96634  0.94031  1.0000
  C   C392      1.0  0.32889  0.97091  0.92628  1.0000
  H   H686      1.0  0.29603  0.96475  0.95899  1.0000
  H   H687      1.0  0.34588  0.95975  0.68458  1.0000
  C   C393      1.0  0.15420  0.89219  0.52876  1.0000
  H   H688      1.0  0.08579  0.92772  0.53716  1.0000
  C   C394      1.0  0.24969  0.91083  0.59614  1.0000
  H   H689      1.0  0.20480  0.97078  0.62592  1.0000
  S   S91       1.0  0.01790  0.73949  0.98924  1.0000
  C   C395      1.0  0.04340  0.69114  0.95381  1.0000
  S   S92       1.0  0.99988  0.77616  0.54690  1.0000
  H   H690      1.0  0.30413  0.97969  0.60439  1.0000
  S   S93       1.0  0.18847  0.91630  0.54386  1.0000
  C   C396      1.0  0.33079  0.97748  0.55370  1.0000
  S   S94       1.0  0.20746  0.98612  0.97862  1.0000
  H   H691      1.0  0.11961  0.97172  0.56002  1.0000
  C   C397      1.0  0.32754  0.94149  0.67313  1.0000
  H   H692      1.0  0.39380  0.93923  0.98391  1.0000
  H   H693      1.0  0.31657  0.95572  0.88005  1.0000
  C   C398      1.0  0.13544  0.86774  0.54545  1.0000
  H   H694      1.0  0.09360  0.82983  0.54749  1.0000
  H   H695      1.0  0.14214  0.86375  0.56719  1.0000
  H   H696      1.0  0.31930  0.98435  0.53783  1.0000
  H   H697      1.0  0.27131  0.96896  0.64383  1.0000
  C   C399      1.0  0.14523  0.95133  0.55123  1.0000
  N   N20       1.0  0.33572  0.98305  0.98406  1.0000
  C   C400      1.0  0.03179  0.68195  0.53971  1.0000
  C   C401      1.0  0.22573  0.88619  0.61479  1.0000
  H   H698      1.0  0.10284  0.87061  0.94985  1.0000
  H   H699      1.0  0.29510  0.91500  0.62271  1.0000
  H   H700      1.0  0.20782  0.95029  0.65656  1.0000
  H   H701      1.0  0.19450  0.87016  0.57798  1.0000
  Fe  Fe47      1.0  0.01869  0.78134  0.99651  1.0000
  H   H702      1.0  0.16574  0.94375  0.58956  1.0000
  C   C402      1.0  0.02423  0.67380  0.98020  1.0000
  H   H703      1.0  0.34975  0.93988  0.97016  1.0000
  C   C403      1.0  0.31647  0.96408  0.95900  1.0000
  H   H704      1.0  0.10655  0.92892  0.95861  1.0000
  H   H705      1.0  0.21633  0.85318  0.58062  1.0000
  H   H706      1.0  0.15596  0.95645  0.94103  1.0000
  C   C404      1.0  0.13355  0.97140  0.54141  1.0000
  H   H707      1.0  0.18806  0.84473  0.60769  1.0000
  H   H708      1.0  0.29648  0.93438  0.55622  1.0000
  H   H709      1.0  0.34457  0.97162  0.54010  1.0000
  H   H710      1.0  0.28415  0.99105  0.86114  1.0000
  H   H711      1.0  0.27774  0.96476  0.57598  1.0000
  H   H712      1.0  0.31013  0.94136  0.96288  1.0000
  S   S95       1.0  0.05271  0.82275  0.97469  1.0000
  H   H713      1.0  0.02474  0.69493  0.55301  1.0000
  H   H714      1.0  0.17461  0.98059  0.58516  1.0000
  H   H715      1.0  0.14857  0.90754  0.97274  1.0000
  C   C405      1.0  0.20498  0.86215  0.59391  1.0000
  H   H716      1.0  0.02801  0.68882  0.99928  1.0000
  H   H717      1.0  0.04963  0.68171  0.55215  1.0000
  H   H718      1.0  0.02451  0.88212  0.00966  1.0000
  C   C406      1.0  0.10660  0.86986  0.97387  1.0000
  C   C407      1.0  0.10789  0.84845  0.53434  1.0000
  C   C408      1.0  0.12971  0.95745  0.99671  1.0000
  H   H719      1.0  0.28723  0.95055  0.90396  1.0000
  H   H720      1.0  0.23953  0.91724  0.57796  1.0000
  H   H721      1.0  0.28206  0.93295  0.00475  1.0000
  C   C409      1.0  0.08556  0.84786  0.99175  1.0000
  C   C410      1.0  0.30960  0.95182  0.57241  1.0000
  H   H722      1.0  0.14066  0.94467  0.99987  1.0000
  H   H723      1.0  0.32958  0.96730  0.63530  1.0000
  H   H724      1.0  0.21605  0.93449  0.60639  1.0000
  H   H725      1.0  0.06606  0.70239  0.96131  1.0000
  H   H726      1.0  0.09103  0.98158  0.52663  1.0000
  S   S96       1.0  0.26647  0.99157  0.92252  1.0000
  H   H727      1.0  0.40144  0.96768  0.95751  1.0000
  H   H728      1.0  0.24414  0.97003  0.59836  1.0000
  H   H729      1.0  0.23497  0.87695  0.63073  1.0000
  C   C411      1.0  0.13254  0.89086  0.98681  1.0000
  N   N21       1.0  0.27066  0.93658  0.61413  1.0000
  C   C412      1.0  0.25552  0.94835  0.63333  1.0000
  C   C413      1.0  0.28728  0.92791  0.63507  1.0000
  C   C414      1.0  0.29025  0.95938  0.59216  1.0000
  H   H730      1.0  0.33572  0.92915  0.66034  1.0000
  H   H731      1.0  0.12854  0.92847  0.55070  1.0000
  C   C415      1.0  0.23356  0.95420  0.61662  1.0000
  C   C416      1.0  0.11807  0.95222  0.96366  1.0000
  C   C417      1.0  0.31311  0.95281  0.65166  1.0000
  H   H732      1.0  0.03777  0.70742  0.94612  1.0000
  C   C418      1.0  0.30755  0.94985  0.90333  1.0000
  H   H733      1.0  0.13278  0.96313  0.91717  1.0000
  H   H734      1.0  0.47202  0.98079  0.80199  1.0000
  H   H735      1.0  0.24443  0.93399  0.65287  1.0000
  H   H736      1.0  0.27301  0.91342  0.65312  1.0000
  H   H737      1.0  0.00324  0.67283  0.86741  1.0000
  H   H738      1.0  0.16295  0.95428  0.53604  1.0000
  C   C419      1.0  0.36445  0.95598  0.98666  1.0000
  H   H739      1.0  0.04121  0.67693  0.93443  1.0000
  H   H740      1.0  0.30298  0.92773  0.90821  1.0000
  H   H741      1.0  0.21305  0.89356  0.62808  1.0000
  H   H742      1.0  0.34868  0.96937  0.92457  1.0000
  H   H743      1.0  0.13997  0.95448  0.59997  1.0000
  H   H744      1.0  0.26102  0.90125  0.58383  1.0000
  C   C420      1.0  0.39428  0.95999  0.98103  1.0000
  H   H745      1.0  0.10296  0.96044  0.96034  1.0000
  Fe  Fe48      1.0  0.21806  0.95976  0.52274  1.0000
  H   H746      1.0  0.32228  0.94504  0.58646  1.0000
  H   H747      1.0  0.00540  0.70363  0.65993  1.0000
  C   C421      1.0  0.21988  0.96611  0.63850  1.0000
  Fe  Fe49      1.0  0.00105  0.73497  0.55042  1.0000
  S   S97       1.0  0.24905  0.96424  0.00763  1.0000
  H   H748      1.0  0.40989  0.97557  0.99744  1.0000
  H   H749      1.0  0.30629  0.96571  0.66546  1.0000
  H   H750      1.0  0.99557  0.69537  0.91329  1.0000
  H   H751      1.0  0.23638  0.98626  0.64914  1.0000
  H   H752      1.0  0.07221  0.91907  0.99402  1.0000
  H   H753      1.0  0.99230  0.73989  0.88895  1.0000
  H   H754      1.0  0.07638  0.96228  0.00600  1.0000
  H   H755      1.0  0.14725  0.97989  0.99847  1.0000
  H   H756      1.0  0.04108  0.88384  0.51664  1.0000
  H   H757      1.0  0.03980  0.69224  0.51731  1.0000
  H   H758      1.0  0.15510  0.98969  0.94466  1.0000
  H   H759      1.0  0.99152  0.73626  0.84825  1.0000
  S   S98       1.0  0.03321  0.74691  0.51215  1.0000
  N   N22       1.0  0.11761  0.96421  0.51156  1.0000
  C   C422      1.0  0.66963  0.00764  0.27749  1.0000
  N   N23       1.0  0.67994  0.99910  0.24949  1.0000
  S   S99       1.0  0.72118  0.01087  0.01458  1.0000
  H   H760      1.0  0.77942  0.03297  0.26398  1.0000
  C   C423      1.0  0.68463  0.00868  0.30783  1.0000
  H   H761      1.0  0.64987  0.04805  0.18186  1.0000
  H   H762      1.0  0.65097  0.03263  0.23411  1.0000
  C   C424      1.0  0.88940  0.13105  0.48696  1.0000
  H   H763      1.0  0.86145  0.10890  0.44922  1.0000
  H   H764      1.0  0.71541  0.02168  0.21826  1.0000
  C   C425      1.0  0.76375  0.03860  0.25429  1.0000
  C   C426      1.0  0.86509  0.10819  0.47329  1.0000
  H   H765      1.0  0.71624  0.04187  0.25038  1.0000
  H   H766      1.0  0.68535  0.04616  0.21588  1.0000
  C   C427      1.0  0.64910  0.02731  0.18596  1.0000
  H   H767      1.0  0.62636  0.01012  0.18593  1.0000
  H   H768      1.0  0.94478  0.28189  0.47681  1.0000
  C   C428      1.0  0.66999  0.01456  0.33451  1.0000
  H   H769      1.0  0.89751  0.25384  0.42864  1.0000
  H   H770      1.0  0.64710  0.99792  0.33579  1.0000
  C   C429      1.0  0.84532  0.08462  0.49049  1.0000
  H   H771      1.0  0.98363  0.32160  0.48445  1.0000
  H   H772      1.0  0.83798  0.14379  0.47753  1.0000
  H   H773      1.0  0.91919  0.29285  0.46691  1.0000
  C   C430      1.0  0.95194  0.30242  0.43176  1.0000
  C   C431      1.0  0.73353  0.01327  0.25758  1.0000
  H   H774      1.0  0.92386  0.24323  0.43756  1.0000
  Fe  Fe50      1.0  0.98691  0.27293  0.03574  1.0000
  Fe  Fe51      1.0  0.77371  0.01937  0.49168  1.0000
  H   H775      1.0  0.68046  0.01418  0.35612  1.0000
  H   H776      1.0  0.96279  0.29119  0.42176  1.0000
  C   C432      1.0  0.71107  0.01995  0.24317  1.0000
  S   S100      1.0  0.81449  0.05695  0.47219  1.0000
  S   S101      1.0  0.73778  0.02816  0.50233  1.0000
  H   H777      1.0  0.89829  0.24026  0.46587  1.0000
  H   H778      1.0  0.84941  0.18094  0.48441  1.0000
  H   H779      1.0  0.67242  0.02943  0.27488  1.0000
  H   H780      1.0  0.90417  0.14912  0.47344  1.0000
  H   H781      1.0  0.70450  0.06280  0.02030  1.0000
  H   H782      1.0  0.76577  0.05752  0.26674  1.0000
  H   H783      1.0  0.93739  0.30187  0.41367  1.0000
  H   H784      1.0  0.98388  0.26855  0.11593  1.0000
  C   C433      1.0  0.93227  0.28372  0.45788  1.0000
  C   C434      1.0  0.66306  0.02817  0.21648  1.0000
  H   H785      1.0  0.67158  0.03587  0.33214  1.0000
  H   H786      1.0  0.70709  0.02635  0.30739  1.0000
  C   C435      1.0  0.91173  0.25344  0.44669  1.0000
  C   C436      1.0  0.87324  0.14709  0.01539  1.0000
  S   S102      1.0  0.95181  0.23479  0.49704  1.0000
  H   H787      1.0  0.76908  0.04417  0.22996  1.0000
  H   H788      1.0  0.66885  0.99323  0.20161  1.0000
  C   C437      1.0  0.84440  0.16043  0.49545  1.0000
  H   H789      1.0  0.97129  0.32059  0.37304  1.0000
  H   H790      1.0  0.72958  0.00800  0.28199  1.0000
  C   C438      1.0  0.66215  0.99936  0.22302  1.0000
  H   H791      1.0  0.66049  0.02334  0.16710  1.0000
  H   H792      1.0  0.73316  0.99472  0.24604  1.0000
  H   H793      1.0  0.88070  0.16865  0.02346  1.0000
  H   H794      1.0  0.80156  0.14983  0.50577  1.0000
  H   H795      1.0  0.82933  0.13203  0.02844  1.0000
  C   C439      1.0  0.84407  0.12625  0.01813  1.0000
  S   S103      1.0  0.79660  0.07287  0.01181  1.0000
  H   H796      1.0  0.64622  0.99295  0.28055  1.0000
  H   H797      1.0  0.86401  0.16319  0.50686  1.0000
  C   C440      1.0  0.74706  0.04429  0.74681  1.0000
  H   H798      1.0  0.83590  0.06562  0.53486  1.0000
  H   H799      1.0  0.86681  0.22002  0.54765  1.0000
  H   H800      1.0  0.89941  0.24524  0.96899  1.0000
  H   H801      1.0  0.82583  0.16070  0.98430  1.0000
  H   H802      1.0  0.81181  0.18776  0.60157  1.0000
  Fe  Fe52      1.0  0.86577  0.29915  0.73813  1.0000
  S   S104      1.0  0.82062  0.27390  0.71987  1.0000
  S   S105      1.0  0.89300  0.28075  0.75383  1.0000
  Fe  Fe53      1.0  0.66595  0.05408  0.77648  1.0000
  S   S106      1.0  0.66410  0.09082  0.79806  1.0000
  S   S107      1.0  0.67598  0.02180  0.79924  1.0000
  Fe  Fe54      1.0  0.66272  0.07466  0.71248  1.0000
  S   S108      1.0  0.66179  0.11391  0.72980  1.0000
  S   S109      1.0  0.65840  0.06340  0.66207  1.0000
  Fe  Fe55      1.0  0.69588  0.11799  0.76245  1.0000
  S   S110      1.0  0.73599  0.15510  0.78234  1.0000
  Fe  Fe56      1.0  0.62982  0.08388  0.76394  1.0000
  S   S111      1.0  0.59302  0.09010  0.78233  1.0000
  S   S112      1.0  0.69926  0.08138  0.74226  1.0000
  S   S113      1.0  0.62892  0.04431  0.74510  1.0000
  H   H803      1.0  0.80963  0.06368  0.93253  1.0000
  H   H804      1.0  0.49649  0.15030  0.75522  1.0000
  H   H805      1.0  0.68717  0.06817  0.54599  1.0000
  Fe  Fe57      1.0  0.73100  0.00155  0.54410  1.0000
  C   C441      1.0  0.94759  0.28756  0.91024  1.0000
  H   H806      1.0  0.77909  0.18882  0.59637  1.0000
  H   H807      1.0  0.54261  0.18134  0.78735  1.0000
  H   H808      1.0  0.57553  0.00889  0.78721  1.0000
  H   H809      1.0  0.51260  0.10160  0.69788  1.0000
  C   C442      1.0  0.72042  0.10933  0.85126  1.0000
  C   C443      1.0  0.67933  0.05131  0.64245  1.0000
  C   C444      1.0  0.67038  0.03840  0.61374  1.0000
  H   H810      1.0  0.94504  0.28510  0.93462  1.0000
  C   C445      1.0  0.71057  0.02953  0.61093  1.0000
  C   C446      1.0  0.71995  0.04318  0.63923  1.0000
  C   C447      1.0  0.70443  0.05398  0.65494  1.0000
  C   C448      1.0  0.97887  0.21205  0.88462  1.0000
  H   H811      1.0  0.56007  0.19376  0.70429  1.0000
  H   H812      1.0  0.73929  0.04526  0.64915  1.0000
  H   H813      1.0  0.71183  0.06438  0.67671  1.0000
  C   C449      1.0  0.55716  0.07855  0.77069  1.0000
  C   C450      1.0  0.54041  0.08682  0.78811  1.0000
  C   C451      1.0  0.51166  0.07766  0.78041  1.0000
  H   H814      1.0  0.68819  0.07488  0.99249  1.0000
  C   C452      1.0  0.51589  0.05162  0.73783  1.0000
  C   C453      1.0  0.54466  0.06079  0.74551  1.0000
  H   H815      1.0  0.54968  0.10023  0.80788  1.0000
  H   H816      1.0  0.65702  0.02614  0.90824  1.0000
  H   H817      1.0  0.55710  0.05403  0.73199  1.0000
  C   C454      1.0  0.95866  0.30065  0.65786  1.0000
  H   H818      1.0  0.79407  0.16299  0.97782  1.0000
  C   C455      1.0  0.68307  0.00637  0.90107  1.0000
  C   C456      1.0  0.96419  0.29698  0.59412  1.0000
  C   C457      1.0  0.94714  0.30777  0.60622  1.0000
  C   C458      1.0  0.94431  0.30955  0.63792  1.0000
  C   C459      1.0  0.78583  0.07644  0.90203  1.0000
  H   H819      1.0  0.52067  0.19850  0.75257  1.0000
  H   H820      1.0  0.72846  0.99862  0.67337  1.0000
  C   C460      1.0  0.79749  0.24047  0.73670  1.0000
  C   C461      1.0  0.77101  0.22210  0.72307  1.0000
  C   C462      1.0  0.75207  0.19554  0.73638  1.0000
  C   C463      1.0  0.75937  0.18745  0.76368  1.0000
  C   C464      1.0  0.78581  0.20591  0.77727  1.0000
  C   C465      1.0  0.80489  0.23220  0.76376  1.0000
  H   H821      1.0  0.76514  0.22840  0.70215  1.0000
  H   H822      1.0  0.73171  0.18154  0.72580  1.0000
  H   H823      1.0  0.79156  0.19985  0.79843  1.0000
  H   H824      1.0  0.82515  0.24622  0.77452  1.0000
  C   C466      1.0  0.77455  0.30514  0.71630  1.0000
  C   C467      1.0  0.96987  0.28565  0.89602  1.0000
  H   H825      1.0  0.50336  0.12180  0.75920  1.0000
  C   C468      1.0  0.95394  0.29429  0.84694  1.0000
  C   C469      1.0  0.54378  0.01838  0.82495  1.0000
  H   H826      1.0  0.98726  0.28336  0.66090  1.0000
  H   H827      1.0  0.81065  0.12169  0.94707  1.0000
  C   C470      1.0  0.88947  0.22636  0.54298  1.0000
  H   H828      1.0  0.62477  0.09980  0.84324  1.0000
  C   C471      1.0  0.68024  0.01815  0.83873  1.0000
  H   H829      1.0  0.70768  0.05820  0.93658  1.0000
  H   H830      1.0  0.84587  0.06907  0.98755  1.0000
  H   H831      1.0  0.50644  0.03777  0.71839  1.0000
  C   C472      1.0  0.85327  0.09072  0.99525  1.0000
  C   C473      1.0  0.73244  0.08342  0.55211  1.0000
  H   H832      1.0  0.74188  0.12295  0.84111  1.0000
  H   H833      1.0  0.75534  0.14053  0.57456  1.0000
  H   H834      1.0  0.81323  0.14380  0.58835  1.0000
  H   H835      1.0  0.92358  0.22910  0.85378  1.0000
  H   H836      1.0  0.70757  0.12009  0.84747  1.0000
  N   N24       1.0  0.53272  0.15502  0.72901  1.0000
  H   H837      1.0  0.78318  0.29869  0.69678  1.0000
  C   C474      1.0  0.55376  0.14414  0.73077  1.0000
  H   H838      1.0  0.55999  0.24028  0.70382  1.0000
  C   C475      1.0  0.51427  0.14543  0.75711  1.0000
  C   C476      1.0  0.53012  0.15769  0.78765  1.0000
  C   C477      1.0  0.69554  0.00452  0.84823  1.0000
  C   C478      1.0  0.88876  0.20521  0.92258  1.0000
  C   C479      1.0  0.57224  0.14869  0.70204  1.0000
  C   C480      1.0  0.59179  0.13576  0.70634  1.0000
  C   C481      1.0  0.87494  0.10666  0.53513  1.0000
  H   H839      1.0  0.76010  0.13313  0.93900  1.0000
  C   C482      1.0  0.76232  0.07102  0.92585  1.0000
  H   H840      1.0  0.56668  0.19650  0.74371  1.0000
  H   H841      1.0  0.56903  0.15466  0.74979  1.0000
  H   H842      1.0  0.54265  0.12100  0.73647  1.0000
  H   H843      1.0  0.57635  0.06503  0.86074  1.0000
  C   C483      1.0  0.59368  0.05990  0.86467  1.0000
  H   H844      1.0  0.54617  0.01861  0.89224  1.0000
  H   H845      1.0  0.54489  0.14931  0.79256  1.0000
  H   H846      1.0  0.88367  0.21965  0.99931  1.0000
  H   H847      1.0  0.49749  0.12566  0.81708  1.0000
  H   H848      1.0  0.55881  0.13838  0.68179  1.0000
  H   H849      1.0  0.58600  0.17181  0.69733  1.0000
  H   H850      1.0  0.57892  0.11226  0.70949  1.0000
  H   H851      1.0  0.60545  0.13995  0.68592  1.0000
  H   H852      1.0  0.60590  0.14525  0.72641  1.0000
  H   H853      1.0  0.94179  0.18311  0.65129  1.0000
  H   H854      1.0  0.59129  0.05023  0.88747  1.0000
  C   C484      1.0  0.70097  0.00879  0.72092  1.0000
  C   C485      1.0  0.88974  0.20185  0.95750  1.0000
  N   N25       1.0  0.90512  0.20019  0.61988  1.0000
  C   C486      1.0  0.88853  0.17103  0.63415  1.0000
  C   C487      1.0  0.90414  0.22193  0.64093  1.0000
  C   C488      1.0  0.89202  0.19963  0.58943  1.0000
  C   C489      1.0  0.93600  0.20823  0.61508  1.0000
  C   C490      1.0  0.89434  0.13054  0.51808  1.0000
  C   C491      1.0  0.88949  0.14626  0.61691  1.0000
  C   C492      1.0  0.90536  0.22862  0.57245  1.0000
  C   C493      1.0  0.87456  0.22008  0.64488  1.0000
  C   C494      1.0  0.87624  0.24244  0.66761  1.0000
  H   H855      1.0  0.78570  0.03612  0.90639  1.0000
  C   C495      1.0  0.87658  0.11907  0.63606  1.0000
  S   S114      1.0  0.92358  0.15945  0.53711  1.0000
  H   H856      1.0  0.86553  0.16466  0.63595  1.0000
  H   H857      1.0  0.89561  0.17151  0.65801  1.0000
  H   H858      1.0  0.91143  0.22021  0.66408  1.0000
  H   H859      1.0  0.91957  0.24403  0.63352  1.0000
  H   H860      1.0  0.86860  0.19116  0.59161  1.0000
  H   H861      1.0  0.89428  0.18455  0.57378  1.0000
  H   H862      1.0  0.93814  0.19571  0.59607  1.0000
  H   H863      1.0  0.94849  0.23079  0.60753  1.0000
  S   S115      1.0  0.92972  0.16523  0.99770  1.0000
  H   H864      1.0  0.73690  0.05597  0.75713  1.0000
  H   H865      1.0  0.87706  0.14141  0.59550  1.0000
  H   H866      1.0  0.91157  0.15136  0.61109  1.0000
  H   H867      1.0  0.92779  0.23541  0.56624  1.0000
  H   H868      1.0  0.90499  0.24562  0.58641  1.0000
  H   H869      1.0  0.86683  0.22404  0.62306  1.0000
  H   H870      1.0  0.85843  0.19883  0.65354  1.0000
  H   H871      1.0  0.88390  0.23960  0.69009  1.0000
  H   H872      1.0  0.89098  0.26435  0.65928  1.0000
  H   H873      1.0  0.85475  0.24031  0.67072  1.0000
  C   C496      1.0  0.68580  0.02739  0.59811  1.0000
  H   H874      1.0  0.87611  0.10135  0.62255  1.0000
  H   H875      1.0  0.88979  0.12232  0.65664  1.0000
  H   H876      1.0  0.85444  0.11288  0.64311  1.0000
  H   H877      1.0  0.89060  0.21063  0.52748  1.0000
  H   H878      1.0  0.73576  0.26403  0.71530  1.0000
  C   C497      1.0  0.74006  0.08985  0.89155  1.0000
  C   C498      1.0  0.78814  0.17449  0.60065  1.0000
  H   H879      1.0  0.49894  0.08369  0.79441  1.0000
  H   H880      1.0  0.93600  0.31474  0.59101  1.0000
  C   C499      1.0  0.78559  0.08427  0.56907  1.0000
  C   C500      1.0  0.79046  0.13114  0.58114  1.0000
  H   H881      1.0  0.70990  0.10429  0.53320  1.0000
  C   C501      1.0  0.97868  0.28830  0.61405  1.0000
  C   C502      1.0  0.81092  0.08827  0.58935  1.0000
  H   H882      1.0  0.73662  0.00172  0.73444  1.0000
  C   C503      1.0  0.54911  0.18720  0.72668  1.0000
  H   H883      1.0  0.49666  0.14951  0.70211  1.0000
  H   H884      1.0  0.55197  0.03451  0.80644  1.0000
  C   C504      1.0  0.80469  0.06010  0.60421  1.0000
  H   H885      1.0  0.60150  0.05165  0.81838  1.0000
  H   H886      1.0  0.56657  0.24351  0.74443  1.0000
  N   N26       1.0  0.75004  0.09093  0.92390  1.0000
  C   C505      1.0  0.97283  0.28888  0.86428  1.0000
  H   H887      1.0  0.78261  0.06859  0.55079  1.0000
  H   H888      1.0  0.76648  0.07358  0.58393  1.0000
  H   H889      1.0  0.77871  0.11876  0.60166  1.0000
  H   H890      1.0  0.98416  0.20110  0.61730  1.0000
  H   H891      1.0  0.81966  0.32301  0.80177  1.0000
  H   H892      1.0  0.71608  0.00449  0.76570  1.0000
  H   H893      1.0  0.72839  0.06111  0.55342  1.0000
  H   H894      1.0  0.73218  0.09089  0.57556  1.0000
  H   H895      1.0  0.81516  0.10403  0.60769  1.0000
  H   H896      1.0  0.83062  0.09558  0.57588  1.0000
  C   C506      1.0  0.80950  0.15755  0.96706  1.0000
  H   H897      1.0  0.76437  0.04648  0.76222  1.0000
  H   H898      1.0  0.75668  0.05415  0.72461  1.0000
  C   C507      1.0  0.74200  0.28706  0.71476  1.0000
  H   H899      1.0  0.78668  0.16378  0.55352  1.0000
  H   H900      1.0  0.71096  0.02161  0.70025  1.0000
  H   H901      1.0  0.78500  0.11286  0.97648  1.0000
  H   H902      1.0  0.74046  0.06663  0.98343  1.0000
  H   H903      1.0  0.78388  0.13327  0.91121  1.0000
  S   S116      1.0  0.96687  0.29467  0.55409  1.0000
  C   C508      1.0  0.70042  0.06337  0.99565  1.0000
  H   H904      1.0  0.78669  0.05295  0.62053  1.0000
  H   H905      1.0  0.79917  0.04322  0.58672  1.0000
  H   H906      1.0  0.82378  0.06287  0.61675  1.0000
  C   C509      1.0  0.88882  0.18825  0.87126  1.0000
  C   C510      1.0  0.89996  0.21792  0.85599  1.0000
  C   C511      1.0  0.88271  0.13465  0.89362  1.0000
  C   C512      1.0  0.87857  0.10831  0.91102  1.0000
  C   C513      1.0  0.88764  0.21499  0.82408  1.0000
  C   C514      1.0  0.80086  0.05931  0.90906  1.0000
  H   H907      1.0  0.89459  0.17561  0.85580  1.0000
  H   H908      1.0  0.93886  0.18685  0.86256  1.0000
  H   H909      1.0  0.65571  0.03755  0.85377  1.0000
  H   H910      1.0  0.86351  0.12829  0.87921  1.0000
  H   H911      1.0  0.90110  0.14111  0.87824  1.0000
  H   H912      1.0  0.87396  0.09063  0.89492  1.0000
  H   H913      1.0  0.89831  0.11330  0.92383  1.0000
  H   H914      1.0  0.86055  0.10111  0.92731  1.0000
  H   H915      1.0  0.89404  0.20236  0.80924  1.0000
  H   H916      1.0  0.86395  0.20458  0.82491  1.0000
  H   H917      1.0  0.89596  0.23659  0.81394  1.0000
  S   S117      1.0  0.90833  0.30476  0.84086  1.0000
  H   H918      1.0  0.81204  0.10823  0.51791  1.0000
  H   H919      1.0  0.98322  0.23170  0.87204  1.0000
  C   C515      1.0  0.54978  0.23484  0.72660  1.0000
  H   H920      1.0  0.78140  0.29940  0.73768  1.0000
  H   H921      1.0  0.77616  0.06958  0.87912  1.0000
  C   C516      1.0  0.69736  0.99907  0.87928  1.0000
  H   H922      1.0  0.72665  0.06724  0.88395  1.0000
  H   H923      1.0  0.71389  0.09349  0.94238  1.0000
  C   C517      1.0  0.98299  0.21476  0.63562  1.0000
  H   H924      1.0  0.86500  0.17710  0.87093  1.0000
  C   C518      1.0  0.85053  0.08389  0.52150  1.0000
  H   H925      1.0  0.62140  0.10201  0.88367  1.0000
  H   H926      1.0  0.87893  0.10566  0.55903  1.0000
  H   H927      1.0  0.94374  0.17150  0.89716  1.0000
  H   H928      1.0  0.86430  0.15135  0.92449  1.0000
  C   C519      1.0  0.95187  0.20551  0.64320  1.0000
  Fe  Fe58      1.0  0.76736  0.02445  0.00464  1.0000
  H   H929      1.0  0.89892  0.15854  0.93591  1.0000
  C   C520      1.0  0.94673  0.19141  0.88625  1.0000
  H   H930      1.0  0.73199  0.29163  0.73451  1.0000
  C   C521      1.0  0.76155  0.10235  0.53617  1.0000
  C   C522      1.0  0.53110  0.20250  0.72998  1.0000
  C   C523      1.0  0.82029  0.15203  0.51848  1.0000
  C   C524      1.0  0.62179  0.08825  0.86503  1.0000
  H   H931      1.0  0.77123  0.07159  0.94871  1.0000
  C   C525      1.0  0.92887  0.29324  0.89294  1.0000
  H   H932      1.0  0.73291  0.12687  0.89607  1.0000
  H   H933      1.0  0.94037  0.22685  0.89915  1.0000
  C   C526      1.0  0.49783  0.11045  0.69766  1.0000
  C   C527      1.0  0.88634  0.15871  0.91581  1.0000
  C   C528      1.0  0.79424  0.12649  0.95630  1.0000
  H   H934      1.0  0.91083  0.20534  0.96495  1.0000
  H   H935      1.0  0.52591  0.15316  0.68028  1.0000
  C   C529      1.0  0.72276  0.10542  0.88530  1.0000
  H   H936      1.0  0.70063  0.09258  0.89419  1.0000
  H   H937      1.0  0.70990  0.08831  0.83946  1.0000
  H   H938      1.0  0.93838  0.20455  0.92914  1.0000
  S   S118      1.0  0.95350  0.25024  0.99901  1.0000
  H   H939      1.0  0.87365  0.18004  0.96474  1.0000
  H   H940      1.0  0.86168  0.21934  0.96826  1.0000
  H   H941      1.0  0.52101  0.15902  0.83547  1.0000
  Fe  Fe59      1.0  0.96001  0.20162  0.51825  1.0000
  N   N27       1.0  0.89911  0.18873  0.90330  1.0000
  H   H942      1.0  0.80212  0.09941  0.90093  1.0000
  C   C530      1.0  0.66809  0.02034  0.89156  1.0000
  C   C531      1.0  0.93132  0.20400  0.90529  1.0000
  S   S119      1.0  0.95546  0.30172  0.69796  1.0000
  H   H943      1.0  0.86622  0.19890  0.91685  1.0000
  N   N28       1.0  0.78775  0.11112  0.55556  1.0000
  C   C532      1.0  0.51368  0.14339  0.70147  1.0000
  H   H944      1.0  0.89379  0.23166  0.86914  1.0000
  H   H945      1.0  0.90149  0.22852  0.91772  1.0000
  H   H946      1.0  0.74499  0.04840  0.92297  1.0000
  H   H947      1.0  0.81864  0.06512  0.89277  1.0000
  H   H948      1.0  0.69018  0.01953  0.73208  1.0000
  Fe  Fe60      1.0  0.98121  0.26516  0.53246  1.0000
  H   H949      1.0  0.49646  0.10947  0.64815  1.0000
  C   C533      1.0  0.89268  0.13989  0.00252  1.0000
  C   C534      1.0  0.72407  0.07989  0.94419  1.0000
  C   C535      1.0  0.49921  0.06010  0.75506  1.0000
  C   C536      1.0  0.88319  0.22284  0.97443  1.0000
  H   H950      1.0  0.67832  0.01693  0.57635  1.0000
  S   S120      1.0  0.68192  0.99742  0.94010  1.0000
  C   C537      1.0  0.59421  0.03955  0.84008  1.0000
  C   C538      1.0  0.72888  0.07844  0.97862  1.0000
  H   H951      1.0  0.95200  0.21929  0.66206  1.0000
  C   C539      1.0  0.66716  0.02672  0.86068  1.0000
  S   S121      1.0  0.72999  0.01458  0.59346  1.0000
  C   C540      1.0  0.88244  0.11157  0.99248  1.0000
  C   C541      1.0  0.77151  0.12154  0.93170  1.0000
  H   H952      1.0  0.53630  0.24512  0.72910  1.0000
  C   C542      1.0  0.97590  0.29010  0.64571  1.0000
  S   S122      1.0  0.75800  0.00270  0.95902  1.0000
  H   H953      1.0  0.75867  0.09946  0.87581  1.0000
  C   C543      1.0  0.70765  0.08263  0.53438  1.0000
  H   H954      1.0  0.89980  0.24748  0.53146  1.0000
  H   H955      1.0  0.78007  0.16391  0.62297  1.0000
  H   H956      1.0  0.64024  0.08465  0.86872  1.0000
  C   C544      1.0  0.83385  0.09791  0.00818  1.0000
  H   H957      1.0  0.83352  0.12983  0.54840  1.0000
  C   C545      1.0  0.50915  0.14922  0.81416  1.0000
  H   H958      1.0  0.65107  0.03640  0.60380  1.0000
  H   H959      1.0  0.61161  0.03536  0.84716  1.0000
  C   C546      1.0  0.72507  0.01267  0.74286  1.0000
  H   H960      1.0  0.82750  0.16985  0.53501  1.0000
  Fe  Fe61      1.0  0.90820  0.31437  0.79034  1.0000
  H   H961      1.0  0.76218  0.09022  0.51586  1.0000
  C   C547      1.0  0.77907  0.15224  0.57527  1.0000
  H   H962      1.0  0.53798  0.02865  0.84340  1.0000
  H   H963      1.0  0.89726  0.10563  0.98272  1.0000
  Fe  Fe62      1.0  0.92740  0.31494  0.72479  1.0000
  C   C548      1.0  0.81381  0.12421  0.53528  1.0000
  N   N29       1.0  0.56682  0.01181  0.83483  1.0000
  H   H964      1.0  0.68734  0.04100  0.98753  1.0000
  C   C549      1.0  0.57211  0.99665  0.80873  1.0000
  H   H965      1.0  0.65480  0.01660  0.70296  1.0000
  H   H966      1.0  0.51421  0.19515  0.71234  1.0000
  Fe  Fe63      1.0  0.96072  0.21280  0.00776  1.0000
  H   H967      1.0  0.76112  0.12118  0.52662  1.0000
  H   H968      1.0  0.73383  0.29134  0.69336  1.0000
  H   H969      1.0  0.82018  0.17221  0.94772  1.0000
  H   H970      1.0  0.95650  0.29679  0.82256  1.0000
  C   C550      1.0  0.93206  0.29685  0.86126  1.0000
  S   S123      1.0  0.76838  0.99455  0.53464  1.0000
  H   H971      1.0  0.57837  0.99630  0.87476  1.0000
  H   H972      1.0  0.98798  0.21809  0.90779  1.0000
  H   H973      1.0  0.61815  0.01173  0.80942  1.0000
  H   H974      1.0  0.93112  0.31787  0.64693  1.0000
  C   C551      1.0  0.53890  0.99608  0.88628  1.0000
  H   H975      1.0  0.60626  0.99954  0.68487  1.0000
  H   H976      1.0  0.74096  0.10034  0.98818  1.0000
  H   H977      1.0  0.62686  0.99596  0.65468  1.0000
  H   H978      1.0  0.49356  0.15684  0.81032  1.0000
  H   H979      1.0  0.49709  0.01825  0.79772  1.0000
  H   H980      1.0  0.91193  0.29505  0.90423  1.0000
  C   C552      1.0  0.49130  0.99915  0.81198  1.0000
  H   H981      1.0  0.70577  0.99781  0.83145  1.0000
  S   S124      1.0  0.98765  0.23162  0.55532  1.0000
  C   C553      1.0  0.64100  0.99314  0.70038  1.0000
  H   H982      1.0  0.70681  0.07440  0.51100  1.0000
  H   H983      1.0  0.67101  0.99243  0.66917  1.0000
  C   C554      1.0  0.55873  0.99295  0.86268  1.0000
  C   C555      1.0  0.51589  0.99255  0.81283  1.0000
  H   H984      1.0  0.61159  0.56697  0.35492  1.0000
  H   H985      1.0  0.94814  0.58563  0.48233  1.0000
  H   H986      1.0  0.56169  0.58642  0.47065  1.0000
  H   H987      1.0  0.76881  0.63416  0.01832  1.0000
  C   C556      1.0  0.96664  0.60701  0.48790  1.0000
  H   H988      1.0  0.53505  0.51574  0.26935  1.0000
  Fe  Fe64      1.0  0.53802  0.62974  0.26174  1.0000
  H   H989      1.0  0.56483  0.55129  0.26503  1.0000
  S   S125      1.0  0.57378  0.62249  0.24524  1.0000
  H   H990      1.0  0.96384  0.62736  0.44530  1.0000
  H   H991      1.0  0.53810  0.57364  0.28235  1.0000
  H   H992      1.0  0.97736  0.37079  0.46067  1.0000
  C   C557      1.0  0.51271  0.60104  0.35741  1.0000
  H   H993      1.0  0.98304  0.60262  0.49777  1.0000
  H   H994      1.0  0.57124  0.54784  0.31537  1.0000
  C   C558      1.0  0.58267  0.59068  0.46138  1.0000
  H   H995      1.0  0.58398  0.59716  0.43721  1.0000
  H   H996      1.0  0.74318  0.65185  0.15607  1.0000
  H   H997      1.0  0.69613  0.63017  0.47902  1.0000
  H   H998      1.0  0.90628  0.36512  0.44364  1.0000
  H   H999      1.0  0.54334  0.53196  0.21572  1.0000
  H   H1000     1.0  0.93815  0.38434  0.46627  1.0000
  C   C559      1.0  0.93738  0.35087  0.43740  1.0000
  C   C560      1.0  0.53088  0.59055  0.34092  1.0000
  H   H1001     1.0  0.50850  0.52406  0.22899  1.0000
  H   H1002     1.0  0.96705  0.58452  0.43036  1.0000
  H   H1003     1.0  0.93491  0.62292  0.04584  1.0000
  C   C561      1.0  0.59889  0.57365  0.36931  1.0000
  H   H1004     1.0  0.50498  0.54234  0.28025  1.0000
  H   H1005     1.0  0.64711  0.59406  0.49623  1.0000
  H   H1006     1.0  0.88376  0.62730  0.48213  1.0000
  C   C562      1.0  0.60714  0.61463  0.47920  1.0000
  H   H1007     1.0  0.59661  0.64862  0.36364  1.0000
  N   N30       1.0  0.97398  0.33265  0.44011  1.0000
  H   H1008     1.0  0.53618  0.60052  0.31823  1.0000
  C   C563      1.0  0.98658  0.60492  0.43611  1.0000
  C   C564      1.0  0.51482  0.55748  0.33818  1.0000
  H   H1009     1.0  0.96791  0.65776  0.08328  1.0000
  C   C565      1.0  0.97924  0.62284  0.45747  1.0000
  H   H1010     1.0  0.60624  0.59662  0.36509  1.0000
  H   H1011     1.0  0.51361  0.50923  0.35128  1.0000
  H   H1012     1.0  0.66341  0.64758  0.49857  1.0000
  H   H1013     1.0  0.69486  0.59890  0.49553  1.0000
  H   H1014     1.0  0.60294  0.57114  0.39353  1.0000
  H   H1015     1.0  0.49257  0.59466  0.34475  1.0000
  C   C566      1.0  0.89847  0.64428  0.49798  1.0000
  H   H1016     1.0  0.55538  0.56255  0.37776  1.0000
  H   H1017     1.0  0.91961  0.60747  0.48184  1.0000
  H   H1018     1.0  0.52472  0.62474  0.35893  1.0000
  C   C567      1.0  0.52760  0.55035  0.28678  1.0000
  H   H1019     1.0  0.98813  0.63898  0.08471  1.0000
  H   H1020     1.0  0.60524  0.63415  0.47643  1.0000
  N   N31       1.0  0.52970  0.54474  0.31997  1.0000
  H   H1021     1.0  0.49354  0.55125  0.32805  1.0000
  H   H1022     1.0  0.94475  0.64442  0.47817  1.0000
  C   C568      1.0  0.56084  0.55802  0.32840  1.0000
  C   C569      1.0  0.96075  0.34845  0.45547  1.0000
  S   S126      1.0  0.63086  0.64687  0.31302  1.0000
  C   C570      1.0  0.54114  0.53818  0.26420  1.0000
  C   C571      1.0  0.56701  0.55548  0.36234  1.0000
  H   H1023     1.0  0.56045  0.53292  0.36788  1.0000
  C   C572      1.0  0.95649  0.62517  0.04832  1.0000
  C   C573      1.0  0.96674  0.63667  0.08032  1.0000
  C   C574      1.0  0.53181  0.53887  0.23158  1.0000
  H   H1024     1.0  0.57267  0.58096  0.32150  1.0000
  H   H1025     1.0  0.62737  0.61851  0.46835  1.0000
  C   C575      1.0  0.92246  0.36292  0.45731  1.0000
  H   H1026     1.0  0.51007  0.54869  0.36165  1.0000
  H   H1027     1.0  0.55110  0.59851  0.35381  1.0000
  H   H1028     1.0  0.53669  0.56080  0.22522  1.0000
  C   C576      1.0  0.61848  0.65749  0.37125  1.0000
  H   H1029     1.0  0.95464  0.60373  0.04666  1.0000
  S   S127      1.0  0.49217  0.59458  0.27508  1.0000
  H   H1030     1.0  0.95186  0.33875  0.47803  1.0000
  Fe  Fe65      1.0  0.59990  0.65299  0.28281  1.0000
  H   H1031     1.0  0.92071  0.32988  0.42869  1.0000
  H   H1032     1.0  0.52816  0.50360  0.31784  1.0000
  H   H1033     1.0  0.95155  0.62169  0.09739  1.0000
  C   C577      1.0  0.69261  0.61798  0.50045  1.0000
  H   H1034     1.0  0.95389  0.34059  0.38294  1.0000
  C   C578      1.0  0.93470  0.62678  0.49506  1.0000
  H   H1035     1.0  0.77589  0.65508  0.07132  1.0000
  H   H1036     1.0  0.94728  0.36585  0.41813  1.0000
  H   H1037     1.0  0.58417  0.57080  0.46233  1.0000
  H   H1038     1.0  0.50751  0.59217  0.38077  1.0000
  H   H1039     1.0  0.98129  0.35752  0.33503  1.0000
  C   C579      1.0  0.97492  0.34168  0.38137  1.0000
  C   C580      1.0  0.97710  0.64574  0.02375  1.0000
  H   H1040     1.0  0.91137  0.34833  0.47663  1.0000
  C   C581      1.0  0.51512  0.51307  0.32633  1.0000
  N   N32       1.0  0.95729  0.62207  0.51037  1.0000
  H   H1041     1.0  0.98320  0.65891  0.39156  1.0000
  S   S128      1.0  0.56415  0.65886  0.30057  1.0000
  Fe  Fe66      1.0  0.93138  0.60480  0.78795  1.0000
  S   S129      1.0  0.88780  0.56961  0.80113  1.0000
  S   S130      1.0  0.96522  0.63395  0.82237  1.0000
  Fe  Fe67      1.0  0.91868  0.59375  0.71923  1.0000
  S   S131      1.0  0.87419  0.55749  0.72846  1.0000
  S   S132      1.0  0.92709  0.60356  0.66832  1.0000
  Fe  Fe68      1.0  0.87141  0.58634  0.76372  1.0000
  S   S133      1.0  0.84041  0.60388  0.76522  1.0000
  Fe  Fe69      1.0  0.89447  0.54333  0.76462  1.0000
  S   S134      1.0  0.88009  0.49581  0.77484  1.0000
  S   S135      1.0  0.91487  0.62309  0.75272  1.0000
  S   S136      1.0  0.93923  0.57794  0.75338  1.0000
  C   C582      1.0  0.78436  0.33758  0.71526  1.0000
  H   H1042     1.0  0.58517  0.60364  0.52215  1.0000
  N   N33       1.0  0.81612  0.35777  0.71829  1.0000
  H   H1043     1.0  0.88618  0.58986  0.96089  1.0000
  H   H1044     1.0  0.92608  0.62138  0.60744  1.0000
  H   H1045     1.0  0.82558  0.39597  0.69255  1.0000
  Fe  Fe70      1.0  0.91289  0.36138  0.74646  1.0000
  S   S137      1.0  0.92531  0.40860  0.73879  1.0000
  S   S138      1.0  0.94447  0.34781  0.76264  1.0000
  Fe  Fe71      1.0  0.66638  0.60622  0.77483  1.0000
  S   S139      1.0  0.64966  0.56127  0.79129  1.0000
  H   H1046     1.0  0.49830  0.35466  0.68963  1.0000
  Fe  Fe72      1.0  0.66212  0.58837  0.70760  1.0000
  S   S140      1.0  0.64538  0.54187  0.71981  1.0000
  S   S141      1.0  0.66927  0.59884  0.65679  1.0000
  Fe  Fe73      1.0  0.61713  0.54756  0.75346  1.0000
  S   S142      1.0  0.56951  0.51619  0.76301  1.0000
  Fe  Fe74      1.0  0.67903  0.55887  0.75634  1.0000
  S   S143      1.0  0.70457  0.53709  0.76948  1.0000
  S   S144      1.0  0.63177  0.59327  0.73925  1.0000
  S   S145      1.0  0.69771  0.60451  0.74189  1.0000
  C   C583      1.0  0.68499  0.63294  0.63902  1.0000
  H   H1047     1.0  0.95539  0.36436  0.82924  1.0000
  H   H1048     1.0  0.65339  0.60767  0.85368  1.0000
  H   H1049     1.0  0.69428  0.61736  0.59778  1.0000
  H   H1050     1.0  0.77217  0.34135  0.73327  1.0000
  C   C584      1.0  0.54787  0.47864  0.75665  1.0000
  C   C585      1.0  0.55723  0.46310  0.73910  1.0000
  C   C586      1.0  0.53993  0.43318  0.73590  1.0000
  C   C587      1.0  0.51284  0.41836  0.74977  1.0000
  H   H1051     1.0  0.92277  0.56096  0.58187  1.0000
  C   C588      1.0  0.52055  0.46390  0.77007  1.0000
  H   H1052     1.0  0.57800  0.47410  0.72832  1.0000
  H   H1053     1.0  0.54775  0.42140  0.72280  1.0000
  H   H1054     1.0  0.51294  0.47567  0.78352  1.0000
  H   H1055     1.0  0.62221  0.61568  0.62740  1.0000
  C   C589      1.0  0.94872  0.63670  0.64971  1.0000
  C   C590      1.0  0.83054  0.35228  0.69163  1.0000
  H   H1056     1.0  0.94602  0.62565  0.93301  1.0000
  C   C591      1.0  0.60183  0.61203  0.58349  1.0000
  H   H1057     1.0  0.55860  0.43489  0.84994  1.0000
  C   C592      1.0  0.89314  0.47202  0.76436  1.0000
  C   C593      1.0  0.88119  0.44491  0.77828  1.0000
  C   C594      1.0  0.89049  0.42520  0.77064  1.0000
  C   C595      1.0  0.91174  0.43211  0.74864  1.0000
  C   C596      1.0  0.92366  0.45917  0.73472  1.0000
  C   C597      1.0  0.91451  0.47898  0.74250  1.0000
  H   H1058     1.0  0.86480  0.43927  0.79535  1.0000
  H   H1059     1.0  0.88168  0.40498  0.78229  1.0000
  H   H1060     1.0  0.94031  0.46502  0.71790  1.0000
  H   H1061     1.0  0.92399  0.49965  0.73154  1.0000
  C   C598      1.0  0.80269  0.58388  0.76416  1.0000
  C   C599      1.0  0.78757  0.55555  0.77410  1.0000
  C   C600      1.0  0.75746  0.54130  0.77533  1.0000
  C   C601      1.0  0.74228  0.55510  0.76614  1.0000
  C   C602      1.0  0.75743  0.58315  0.75538  1.0000
  C   C603      1.0  0.78748  0.59759  0.75482  1.0000
  H   H1062     1.0  0.79909  0.54485  0.78150  1.0000
  H   H1063     1.0  0.74591  0.51955  0.78356  1.0000
  H   H1064     1.0  0.74603  0.59375  0.74756  1.0000
  H   H1065     1.0  0.79899  0.61945  0.74701  1.0000
  H   H1066     1.0  0.65631  0.44246  0.86666  1.0000
  C   C604      1.0  0.81498  0.35570  0.77716  1.0000
  H   H1067     1.0  0.91471  0.34878  0.88197  1.0000
  H   H1068     1.0  0.80231  0.64125  0.82931  1.0000
  H   H1069     1.0  0.97636  0.60357  0.94039  1.0000
  H   H1070     1.0  0.64038  0.44271  0.75066  1.0000
  C   C605      1.0  0.95759  0.43683  0.89242  1.0000
  H   H1071     1.0  0.79302  0.38721  0.75272  1.0000
  C   C606      1.0  0.90161  0.60567  0.94456  1.0000
  H   H1072     1.0  0.81550  0.34810  0.82548  1.0000
  H   H1073     1.0  0.50351  0.47976  0.62633  1.0000
  H   H1074     1.0  0.59109  0.40864  0.85871  1.0000
  H   H1075     1.0  0.82639  0.33102  0.74643  1.0000
  H   H1076     1.0  0.96108  0.47379  0.78858  1.0000
  C   C607      1.0  0.66859  0.62812  0.86333  1.0000
  H   H1077     1.0  0.91715  0.37213  0.82905  1.0000
  H   H1078     1.0  0.92122  0.58775  0.53375  1.0000
  H   H1079     1.0  0.90044  0.62570  0.94606  1.0000
  H   H1080     1.0  0.59150  0.48905  0.87090  1.0000
  H   H1081     1.0  0.96577  0.55693  0.96326  1.0000
  N   N34       1.0  0.95621  0.40018  0.85292  1.0000
  H   H1082     1.0  0.73414  0.64214  0.80882  1.0000
  C   C608      1.0  0.87401  0.63372  0.65766  1.0000
  H   H1083     1.0  0.66726  0.47949  0.74555  1.0000
  H   H1084     1.0  0.95417  0.59113  0.59785  1.0000
  H   H1085     1.0  0.62575  0.59425  0.56267  1.0000
  H   H1086     1.0  0.90056  0.61497  0.52925  1.0000
  H   H1087     1.0  0.63277  0.40558  0.87636  1.0000
  C   C609      1.0  0.85456  0.61068  0.68085  1.0000
  C   C610      1.0  0.84308  0.58065  0.66771  1.0000
  H   H1088     1.0  0.94414  0.61698  0.55743  1.0000
  H   H1089     1.0  0.98649  0.45321  0.93127  1.0000
  C   C611      1.0  0.78152  0.62265  0.83605  1.0000
  H   H1090     1.0  0.92675  0.60822  0.99891  1.0000
  C   C612      1.0  0.50315  0.43399  0.76671  1.0000
  H   H1091     1.0  0.89009  0.62790  0.64939  1.0000
  H   H1092     1.0  0.60672  0.65096  0.53990  1.0000
  H   H1093     1.0  0.98063  0.59653  0.54973  1.0000
  H   H1094     1.0  0.62465  0.50283  0.82375  1.0000
  H   H1095     1.0  0.95987  0.39821  0.90165  1.0000
  C   C613      1.0  0.56457  0.43673  0.82548  1.0000
  C   C614      1.0  0.91595  0.63408  0.51625  1.0000
  H   H1096     1.0  0.63120  0.46777  0.73342  1.0000
  H   H1097     1.0  0.81915  0.43807  0.70838  1.0000
  H   H1098     1.0  0.60222  0.63267  0.58691  1.0000
  H   H1099     1.0  0.76152  0.65006  0.74510  1.0000
  H   H1100     1.0  0.86622  0.61167  0.70194  1.0000
  H   H1101     1.0  0.83571  0.61307  0.68636  1.0000
  H   H1102     1.0  0.83045  0.57794  0.64681  1.0000
  H   H1103     1.0  0.86096  0.57654  0.66237  1.0000
  H   H1104     1.0  0.82898  0.56461  0.68470  1.0000
  C   C615      1.0  0.78761  0.60951  0.86432  1.0000
  C   C616      1.0  0.87439  0.36817  0.65824  1.0000
  H   H1105     1.0  0.91041  0.37691  0.89849  1.0000
  H   H1106     1.0  0.59413  0.49216  0.80055  1.0000
  H   H1107     1.0  0.86501  0.37391  0.63885  1.0000
  C   C617      1.0  0.63766  0.47260  0.78246  1.0000
  C   C618      1.0  0.94189  0.62487  0.98310  1.0000
  H   H1108     1.0  0.58467  0.53104  0.86724  1.0000
  H   H1109     1.0  0.49115  0.38196  0.63117  1.0000
  H   H1110     1.0  0.74548  0.61923  0.79255  1.0000
  C   C619      1.0  0.62754  0.61573  0.56410  1.0000
  C   C620      1.0  0.81195  0.42821  0.73114  1.0000
  C   C621      1.0  0.68685  0.65044  0.84419  1.0000
  H   H1111     1.0  0.92900  0.65090  0.53289  1.0000
  C   C622      1.0  0.62864  0.65543  0.53380  1.0000
  H   H1112     1.0  0.89802  0.38188  0.65745  1.0000
  H   H1113     1.0  0.71533  0.61522  0.85399  1.0000
  H   H1114     1.0  0.93791  0.64333  0.98523  1.0000
  N   N35       1.0  0.97246  0.63415  0.99165  1.0000
  H   H1115     1.0  0.79136  0.34282  0.77710  1.0000
  C   C623      1.0  0.60605  0.45208  0.79108  1.0000
  C   C624      1.0  0.92397  0.38466  0.85063  1.0000
  H   H1116     1.0  0.82159  0.37853  0.78106  1.0000
  H   H1117     1.0  0.50434  0.44841  0.66751  1.0000
  H   H1118     1.0  0.58133  0.59678  0.57252  1.0000
  H   H1119     1.0  0.86913  0.34550  0.65591  1.0000
  C   C625      1.0  0.60249  0.60044  0.61501  1.0000
  C   C626      1.0  0.96660  0.41456  0.88334  1.0000
  H   H1120     1.0  0.84907  0.35911  0.80673  1.0000
  H   H1121     1.0  0.95847  0.58923  0.99750  1.0000
  C   C627      1.0  0.95403  0.43790  0.81689  1.0000
  H   H1122     1.0  0.61944  0.53939  0.85331  1.0000
  N   N36       1.0  0.59631  0.45690  0.82162  1.0000
  C   C628      1.0  0.80015  0.39589  0.72963  1.0000
  H   H1123     1.0  0.64732  0.62881  0.57749  1.0000
  H   H1124     1.0  0.95030  0.56631  0.53369  1.0000
  C   C629      1.0  0.73140  0.60785  0.85230  1.0000
  H   H1125     1.0  0.52433  0.38950  0.67533  1.0000
  H   H1126     1.0  0.77654  0.34181  0.69349  1.0000
  H   H1127     1.0  0.60188  0.57951  0.61327  1.0000
  H   H1128     1.0  0.88558  0.64966  0.51366  1.0000
  C   C630      1.0  0.71720  0.57930  0.83440  1.0000
  H   H1129     1.0  0.60259  0.43007  0.78887  1.0000
  S   S146      1.0  0.89902  0.33099  0.70648  1.0000
  C   C631      1.0  0.50175  0.44095  0.64370  1.0000
  H   H1130     1.0  0.95844  0.36309  0.86922  1.0000
  C   C632      1.0  0.69179  0.55605  0.85183  1.0000
  H   H1131     1.0  0.59266  0.45387  0.77297  1.0000
  C   C633      1.0  0.95704  0.58489  0.54920  1.0000
  H   H1132     1.0  0.73448  0.60265  0.87587  1.0000
  H   H1133     1.0  0.91548  0.39968  0.84914  1.0000
  N   N37       1.0  0.63017  0.62815  0.53275  1.0000
  S   S147      1.0  0.49283  0.38034  0.74628  1.0000
  H   H1134     1.0  0.58374  0.59749  0.62846  1.0000
  C   C634      1.0  0.90746  0.36442  0.87738  1.0000
  H   H1135     1.0  0.93436  0.42315  0.80429  1.0000
  H   H1136     1.0  0.76810  0.59022  0.87231  1.0000
  H   H1137     1.0  0.56454  0.39561  0.81808  1.0000
  H   H1138     1.0  0.70898  0.58206  0.81234  1.0000
  H   H1139     1.0  0.73245  0.57140  0.83006  1.0000
  H   H1140     1.0  0.51225  0.36571  0.81128  1.0000
  C   C635      1.0  0.69503  0.63566  0.60898  1.0000
  C   C636      1.0  0.75241  0.63793  0.80784  1.0000
  H   H1141     1.0  0.66049  0.59635  0.53424  1.0000
  H   H1142     1.0  0.65243  0.47121  0.79906  1.0000
  C   C637      1.0  0.76963  0.65840  0.85826  1.0000
  H   H1143     1.0  0.56300  0.48305  0.84540  1.0000
  C   C638      1.0  0.93135  0.64485  0.86211  1.0000
  H   H1144     1.0  0.91340  0.63077  0.84798  1.0000
  H   H1145     1.0  0.83024  0.61902  0.84931  1.0000
  H   H1146     1.0  0.68141  0.53625  0.83786  1.0000
  H   H1147     1.0  0.69900  0.55115  0.87351  1.0000
  H   H1148     1.0  0.67580  0.56296  0.85669  1.0000
  C   C639      1.0  0.59613  0.52655  0.84891  1.0000
  C   C640      1.0  0.58657  0.49465  0.84837  1.0000
  H   H1149     1.0  0.51375  0.46105  0.59907  1.0000
  C   C641      1.0  0.55202  0.40611  0.81200  1.0000
  H   H1150     1.0  0.87473  0.36903  0.70684  1.0000
  H   H1151     1.0  0.81430  0.59138  0.87764  1.0000
  C   C642      1.0  0.80988  0.60044  0.85704  1.0000
  S   S148      1.0  0.87789  0.33027  0.77682  1.0000
  H   H1152     1.0  0.89536  0.59692  0.92120  1.0000
  H   H1153     1.0  0.55167  0.40705  0.78682  1.0000
  H   H1154     1.0  0.85997  0.63097  0.63795  1.0000
  H   H1155     1.0  0.93456  0.42895  0.88840  1.0000
  H   H1156     1.0  0.95492  0.55899  0.58802  1.0000
  H   H1157     1.0  0.93137  0.59062  0.94995  1.0000
  C   C643      1.0  0.96565  0.37800  0.84957  1.0000
  C   C644      1.0  0.61329  0.45409  0.84733  1.0000
  H   H1158     1.0  0.67610  0.64866  0.53565  1.0000
  H   H1159     1.0  0.82011  0.35295  0.67000  1.0000
  H   H1160     1.0  0.87122  0.33399  0.85025  1.0000
  C   C645      1.0  0.60138  0.48722  0.82223  1.0000
  H   H1161     1.0  0.80191  0.58384  0.83892  1.0000
  C   C646      1.0  0.87541  0.34760  0.87074  1.0000
  C   C647      1.0  0.94650  0.57332  0.58114  1.0000
  H   H1162     1.0  0.86671  0.36231  0.86711  1.0000
  C   C648      1.0  0.76316  0.65490  0.89291  1.0000
  H   H1163     1.0  0.84356  0.40295  0.72787  1.0000
  H   H1164     1.0  0.79633  0.62537  0.88289  1.0000
  C   C649      1.0  0.82271  0.38863  0.71663  1.0000
  H   H1165     1.0  0.53766  0.48134  0.62950  1.0000
  H   H1166     1.0  0.86889  0.39577  0.68927  1.0000
  C   C650      1.0  0.97810  0.60922  0.99073  1.0000
  C   C651      1.0  0.94410  0.60356  0.53810  1.0000
  C   C652      1.0  0.86318  0.37295  0.68835  1.0000
  H   H1167     1.0  0.77605  0.60704  0.81708  1.0000
  S   S149      1.0  0.68534  0.64689  0.80399  1.0000
  H   H1168     1.0  0.59108  0.53325  0.82697  1.0000
  H   H1169     1.0  0.78105  0.38682  0.71462  1.0000
  C   C653      1.0  0.66923  0.63260  0.89499  1.0000
  H   H1170     1.0  0.61747  0.41795  0.82884  1.0000
  H   H1171     1.0  0.83025  0.43825  0.74715  1.0000
  H   H1172     1.0  0.63607  0.47119  0.84584  1.0000
  H   H1173     1.0  0.79510  0.43286  0.73937  1.0000
  H   H1174     1.0  0.60574  0.45778  0.86949  1.0000
  C   C654      1.0  0.98168  0.65104  0.51912  1.0000
  H   H1175     1.0  0.64212  0.49505  0.78133  1.0000
  C   C655      1.0  0.61246  0.42505  0.85050  1.0000
  H   H1176     1.0  0.55216  0.44559  0.81388  1.0000
  C   C656      1.0  0.63424  0.42684  0.87398  1.0000
  C   C657      1.0  0.50665  0.36803  0.66891  1.0000
  C   C658      1.0  0.94350  0.63929  0.61888  1.0000
  H   H1177     1.0  0.85136  0.36760  0.74864  1.0000
  H   H1178     1.0  0.95046  0.42563  0.94048  1.0000
  C   C659      1.0  0.64440  0.46505  0.75112  1.0000
  C   C660      1.0  0.82804  0.35250  0.74704  1.0000
  H   H1179     1.0  0.65448  0.61542  0.90952  1.0000
  H   H1180     1.0  0.90565  0.65290  0.89402  1.0000
  H   H1181     1.0  0.62995  0.43334  0.89650  1.0000
  H   H1182     1.0  0.82812  0.33051  0.69296  1.0000
  C   C661      1.0  0.93195  0.61152  0.95117  1.0000
  N   N38       1.0  0.75892  0.63144  0.83928  1.0000
  C   C662      1.0  0.51485  0.46734  0.62330  1.0000
  H   H1183     1.0  0.51472  0.43019  0.64091  1.0000
  H   H1184     1.0  0.51530  0.35772  0.65351  1.0000
  H   H1185     1.0  0.77961  0.65796  0.98614  1.0000
  H   H1186     1.0  0.84916  0.64862  0.71751  1.0000
  H   H1187     1.0  0.94757  0.44679  0.83600  1.0000
  H   H1188     1.0  0.73984  0.64590  0.89682  1.0000
  C   C663      1.0  0.97283  0.46259  0.79569  1.0000
  C   C664      1.0  0.82553  0.34584  0.80435  1.0000
  H   H1189     1.0  0.97046  0.41019  0.80613  1.0000
  H   H1190     1.0  0.74943  0.65270  0.00866  1.0000
  H   H1191     1.0  0.97833  0.45444  0.77497  1.0000
  H   H1192     1.0  0.76978  0.64053  0.90371  1.0000
  C   C665      1.0  0.95881  0.65011  0.85452  1.0000
  C   C666      1.0  0.96945  0.42136  0.82715  1.0000
  H   H1193     1.0  0.95767  0.46131  0.93173  1.0000
  C   C667      1.0  0.96346  0.44465  0.92605  1.0000
  H   H1194     1.0  0.97039  0.45681  0.87933  1.0000
  C   C668      1.0  0.77092  0.65449  0.00960  1.0000
  C   C669      1.0  0.92706  0.65751  0.88822  1.0000
  H   H1195     1.0  0.86408  0.33342  0.89024  1.0000
  H   H1196     1.0  0.92012  0.65594  0.69040  1.0000
  H   H1197     1.0  0.89469  0.65576  0.71552  1.0000
  H   H1198     1.0  0.50766  0.39640  0.81654  1.0000
  C   C670      1.0  0.60592  0.60674  0.51336  1.0000
  H   H1199     1.0  0.60426  0.58530  0.51495  1.0000
  C   C671      1.0  0.68634  0.65686  0.65330  1.0000
  H   H1200     1.0  0.67861  0.65509  0.67634  1.0000
  C   C672      1.0  0.65874  0.63475  0.51975  1.0000
  C   C673      1.0  0.52126  0.38689  0.82262  1.0000
  C   C674      1.0  0.98811  0.57461  0.96061  1.0000
  C   C675      1.0  0.66282  0.60859  0.51317  1.0000
  H   H1201     1.0  0.70930  0.63149  0.51723  1.0000
  H   H1202     1.0  0.52050  0.38366  0.84758  1.0000
  H   H1203     1.0  0.97514  0.65856  0.68822  1.0000
  H   H1204     1.0  0.88955  0.65851  0.60123  1.0000
  C   C676      1.0  0.77934  0.67599  0.06266  1.0000
  H   H1205     1.0  0.54261  0.74149  0.18249  1.0000
  H   H1206     1.0  0.62101  0.72698  0.19854  1.0000
  Fe  Fe75      1.0  0.71662  0.97069  0.03529  1.0000
  H   H1207     1.0  0.62134  0.96292  0.41197  1.0000
  C   C677      1.0  0.91443  0.90976  0.45655  1.0000
  H   H1208     1.0  0.68962  0.74862  0.43873  1.0000
  H   H1209     1.0  0.64707  0.79220  0.19230  1.0000
  C   C678      1.0  0.68035  0.78923  0.33925  1.0000
  Fe  Fe76      1.0  0.72540  0.72994  0.04066  1.0000
  S   S150      1.0  0.71720  0.72290  0.09194  1.0000
  H   H1210     1.0  0.70408  0.89972  0.02465  1.0000
  C   C679      1.0  0.82444  0.80404  0.43624  1.0000
  C   C680      1.0  0.62557  0.66573  0.40183  1.0000
  C   C681      1.0  0.61886  0.91483  0.48719  1.0000
  H   H1211     1.0  0.71962  0.78143  0.42502  1.0000
  C   C682      1.0  0.88141  0.77118  0.04169  1.0000
  C   C683      1.0  0.67398  0.96875  0.25329  1.0000
  Fe  Fe77      1.0  0.70525  0.71288  0.47328  1.0000
  S   S151      1.0  0.74670  0.74494  0.45208  1.0000
  S   S152      1.0  0.66129  0.68649  0.45115  1.0000
  C   C684      1.0  0.61829  0.78082  0.08458  1.0000
  Fe  Fe78      1.0  0.74962  0.77491  0.48957  1.0000
  S   S153      1.0  0.92643  0.76088  0.04963  1.0000
  Fe  Fe79      1.0  0.58860  0.91965  0.21659  1.0000
  S   S154      1.0  0.54170  0.88723  0.21831  1.0000
  S   S155      1.0  0.60945  0.94776  0.17497  1.0000
  Fe  Fe80      1.0  0.59761  0.91142  0.28442  1.0000
  S   S156      1.0  0.55120  0.87832  0.29115  1.0000
  S   S157      1.0  0.63613  0.92390  0.31585  1.0000
  Fe  Fe81      1.0  0.55551  0.86079  0.24604  1.0000
  S   S158      1.0  0.53638  0.81347  0.23527  1.0000
  Fe  Fe82      1.0  0.54038  0.90703  0.26289  1.0000
  S   S159      1.0  0.50810  0.92213  0.27534  1.0000
  S   S160      1.0  0.60228  0.89175  0.24082  1.0000
  S   S161      1.0  0.58688  0.94152  0.25964  1.0000
  Fe  Fe83      1.0  0.57933  0.69524  0.26748  1.0000
  S   S162      1.0  0.59369  0.74117  0.28076  1.0000
  S   S163      1.0  0.61703  0.69125  0.25232  1.0000
  C   C685      1.0  0.75993  0.89326  0.48466  1.0000
  C   C686      1.0  0.55220  0.79351  0.24866  1.0000
  C   C687      1.0  0.57786  0.80644  0.26492  1.0000
  C   C688      1.0  0.59025  0.79006  0.27463  1.0000
  C   C689      1.0  0.57716  0.76069  0.26811  1.0000
  C   C690      1.0  0.55156  0.74774  0.25174  1.0000
  C   C691      1.0  0.53909  0.76412  0.24216  1.0000
  H   H1212     1.0  0.58810  0.82905  0.27005  1.0000
  H   H1213     1.0  0.61003  0.80023  0.28731  1.0000
  H   H1214     1.0  0.54123  0.72512  0.24673  1.0000
  H   H1215     1.0  0.51918  0.75400  0.22966  1.0000
  C   C692      1.0  0.74586  0.67369  0.15499  1.0000
  H   H1216     1.0  0.82152  0.66390  0.07495  1.0000
  S   S164      1.0  0.59873  0.66923  0.16542  1.0000
  C   C693      1.0  0.65385  0.67712  0.41222  1.0000
  H   H1217     1.0  0.69676  0.86362  0.01866  1.0000
  H   H1218     1.0  0.70162  0.96456  0.40254  1.0000
  H   H1219     1.0  0.72117  0.79927  0.07793  1.0000
  H   H1220     1.0  0.75747  0.70792  0.12364  1.0000
  C   C694      1.0  0.67251  0.94708  0.36442  1.0000
  N   N39       1.0  0.79720  0.69984  0.08461  1.0000
  H   H1221     1.0  0.58282  0.74862  0.10915  1.0000
  H   H1222     1.0  0.82383  0.83133  0.48439  1.0000
  H   H1223     1.0  0.88969  0.78456  0.06166  1.0000
  C   C695      1.0  0.85696  0.76871  0.02701  1.0000
  H   H1224     1.0  0.62968  0.84342  0.47495  1.0000
  H   H1225     1.0  0.78055  0.76774  0.09233  1.0000
  H   H1226     1.0  0.80982  0.76112  0.41847  1.0000
  C   C696      1.0  0.64563  0.94023  0.35232  1.0000
  C   C697      1.0  0.62723  0.94599  0.36967  1.0000
  C   C698      1.0  0.63572  0.95853  0.39873  1.0000
  C   C699      1.0  0.66254  0.96525  0.41089  1.0000
  H   H1227     1.0  0.76112  0.68729  0.17285  1.0000
  H   H1228     1.0  0.75083  0.92589  0.42958  1.0000
  H   H1229     1.0  0.60647  0.94078  0.36075  1.0000
  H   H1230     1.0  0.83878  0.78397  0.46909  1.0000
  Fe  Fe84      1.0  0.76813  0.72935  0.48510  1.0000
  H   H1231     1.0  0.72480  0.67216  0.15960  1.0000
  H   H1232     1.0  0.71313  0.72950  0.28084  1.0000
  H   H1233     1.0  0.55044  0.73980  0.14335  1.0000
  H   H1234     1.0  0.59561  0.83584  0.20392  1.0000
  H   H1235     1.0  0.49187  0.90033  0.35664  1.0000
  C   C700      1.0  0.68407  0.70856  0.11201  1.0000
  C   C701      1.0  0.68403  0.70630  0.14391  1.0000
  C   C702      1.0  0.65826  0.69460  0.16069  1.0000
  H   H1236     1.0  0.68692  0.94271  0.35122  1.0000
  C   C703      1.0  0.65797  0.69929  0.09713  1.0000
  H   H1237     1.0  0.63538  0.82565  0.19497  1.0000
  H   H1238     1.0  0.57798  0.72994  0.20006  1.0000
  H   H1239     1.0  0.49160  0.93703  0.14383  1.0000
  C   C704      1.0  0.79828  0.94048  0.05665  1.0000
  C   C705      1.0  0.67816  0.77233  0.40687  1.0000
  C   C706      1.0  0.61845  0.77067  0.14076  1.0000
  C   C707      1.0  0.58523  0.71613  0.37814  1.0000
  S   S165      1.0  0.74091  0.70474  0.01325  1.0000
  H   H1240     1.0  0.67481  0.78262  0.28951  1.0000
  C   C708      1.0  0.67270  0.94611  0.10505  1.0000
  C   C709      1.0  0.66333  0.96614  0.10282  1.0000
  C   C710      1.0  0.64391  0.96624  0.12436  1.0000
  C   C711      1.0  0.63349  0.94626  0.14821  1.0000
  C   C712      1.0  0.64273  0.92612  0.15033  1.0000
  C   C713      1.0  0.66234  0.92615  0.12896  1.0000
  H   H1241     1.0  0.66533  0.90805  0.47349  1.0000
  H   H1242     1.0  0.80995  0.78286  0.06553  1.0000
  H   H1243     1.0  0.63481  0.91062  0.16848  1.0000
  C   C714      1.0  0.82821  0.70751  0.08330  1.0000
  C   C715      1.0  0.84841  0.80455  0.45639  1.0000
  C   C716      1.0  0.68297  0.92955  0.23244  1.0000
  H   H1244     1.0  0.89418  0.79591  0.47262  1.0000
  C   C717      1.0  0.66175  0.75611  0.21812  1.0000
  H   H1245     1.0  0.91299  0.83215  0.45943  1.0000
  C   C718      1.0  0.63423  0.75100  0.35727  1.0000
  H   H1246     1.0  0.68664  0.96690  0.27211  1.0000
  C   C719      1.0  0.90493  0.88216  0.47439  1.0000
  C   C720      1.0  0.60029  0.77071  0.11354  1.0000
  H   H1247     1.0  0.93422  0.92727  0.46679  1.0000
  H   H1248     1.0  0.75750  0.67334  0.06084  1.0000
  C   C721      1.0  0.69156  0.72481  0.28850  1.0000
  H   H1249     1.0  0.72479  0.80656  0.03760  1.0000
  H   H1250     1.0  0.65595  0.76252  0.41561  1.0000
  C   C722      1.0  0.55036  0.73111  0.16605  1.0000
  H   H1251     1.0  0.68025  0.72774  0.26896  1.0000
  H   H1252     1.0  0.65304  0.75543  0.24119  1.0000
  H   H1253     1.0  0.62324  0.75184  0.33632  1.0000
  H   H1254     1.0  0.62984  0.82523  0.15442  1.0000
  H   H1255     1.0  0.68118  0.82975  0.27659  1.0000
  H   H1256     1.0  0.89867  0.72941  0.46981  1.0000
  C   C723      1.0  0.61502  0.72084  0.37072  1.0000
  H   H1257     1.0  0.64828  0.78874  0.30752  1.0000
  H   H1258     1.0  0.67114  0.98162  0.08460  1.0000
  H   H1259     1.0  0.70273  0.76462  0.37329  1.0000
  C   C724      1.0  0.62778  0.77088  0.19506  1.0000
  C   C725      1.0  0.78613  0.68995  0.11635  1.0000
  H   H1260     1.0  0.68581  0.79520  0.40207  1.0000
  H   H1261     1.0  0.66514  0.91389  0.24681  1.0000
  H   H1262     1.0  0.64831  0.74901  0.17183  1.0000
  H   H1263     1.0  0.70341  0.93708  0.24487  1.0000
  C   C726      1.0  0.58044  0.73650  0.17570  1.0000
  H   H1264     1.0  0.70384  0.79748  0.33877  1.0000
  Fe  Fe85      1.0  0.58805  0.66208  0.21627  1.0000
  H   H1265     1.0  0.65080  0.73706  0.30678  1.0000
  H   H1266     1.0  0.69682  0.68854  0.39941  1.0000
  H   H1267     1.0  0.62341  0.75327  0.13569  1.0000
  H   H1268     1.0  0.78099  0.89782  0.07375  1.0000
  C   C727      1.0  0.67119  0.79480  0.30766  1.0000
  C   C728      1.0  0.87786  0.85689  0.46002  1.0000
  H   H1269     1.0  0.77836  0.92289  0.09915  1.0000
  H   H1270     1.0  0.63360  0.76705  0.37279  1.0000
  H   H1271     1.0  0.65132  0.95479  0.26026  1.0000
  H   H1272     1.0  0.78555  0.87979  0.45899  1.0000
  C   C729      1.0  0.90482  0.81865  0.48003  1.0000
  C   C730      1.0  0.76847  0.87341  0.47537  1.0000
  C   C731      1.0  0.85659  0.72563  0.46906  1.0000
  C   C732      1.0  0.67964  0.75627  0.37816  1.0000
  H   H1273     1.0  0.85129  0.71565  0.44688  1.0000
  H   H1274     1.0  0.62422  0.71765  0.39190  1.0000
  C   C733      1.0  0.81673  0.78297  0.40986  1.0000
  H   H1275     1.0  0.68369  0.91866  0.21124  1.0000
  C   C734      1.0  0.68820  0.82643  0.29922  1.0000
  Fe  Fe86      1.0  0.96050  0.75224  0.02871  1.0000
  H   H1276     1.0  0.67970  0.70219  0.29601  1.0000
  H   H1277     1.0  0.61214  0.70415  0.35403  1.0000
  H   H1278     1.0  0.59115  0.78497  0.11729  1.0000
  H   H1279     1.0  0.69568  0.78268  0.45266  1.0000
  S   S166      1.0  0.80326  0.72111  0.46691  1.0000
  S   S167      1.0  0.67176  0.98022  0.44800  1.0000
  H   H1280     1.0  0.90149  0.88623  0.49823  1.0000
  H   H1281     1.0  0.66920  0.74017  0.21695  1.0000
  C   C735      1.0  0.66450  0.73840  0.32640  1.0000
  H   H1282     1.0  0.80334  0.73310  0.05285  1.0000
  S   S168      1.0  0.72611  0.69443  0.50332  1.0000
  H   H1283     1.0  0.57180  0.69420  0.38724  1.0000
  H   H1284     1.0  0.60062  0.87762  0.45921  1.0000
  H   H1285     1.0  0.94382  0.81690  0.48786  1.0000
  H   H1286     1.0  0.61762  0.87469  0.49319  1.0000
  H   H1287     1.0  0.67181  0.82202  0.49061  1.0000
  C   C736      1.0  0.81097  0.75224  0.09717  1.0000
  H   H1288     1.0  0.91274  0.66375  0.48472  1.0000
  S   S169      1.0  0.95652  0.70860  0.02528  1.0000
  C   C737      1.0  0.60630  0.83974  0.18145  1.0000
  H   H1289     1.0  0.63947  0.79069  0.14005  1.0000
  C   C738      1.0  0.80378  0.77564  0.08932  1.0000
  H   H1290     1.0  0.80542  0.74670  0.12138  1.0000
  H   H1291     1.0  0.83083  0.82538  0.42657  1.0000
  H   H1292     1.0  0.79882  0.78232  0.39669  1.0000
  H   H1293     1.0  0.58648  0.73174  0.39549  1.0000
  C   C739      1.0  0.69036  0.87716  0.03167  1.0000
  H   H1294     1.0  0.88007  0.71115  0.09773  1.0000
  N   N40       1.0  0.86293  0.82949  0.47814  1.0000
  H   H1295     1.0  0.83531  0.78957  0.39446  1.0000
  C   C740      1.0  0.67501  0.68006  0.39168  1.0000
  H   H1296     1.0  0.83768  0.71728  0.06101  1.0000
  H   H1297     1.0  0.61217  0.68011  0.10203  1.0000
  H   H1298     1.0  0.77207  0.72040  0.07467  1.0000
  H   H1299     1.0  0.83444  0.76158  0.09455  1.0000
  H   H1300     1.0  0.84094  0.72432  0.10034  1.0000
  H   H1301     1.0  0.58487  0.72089  0.16346  1.0000
  H   H1302     1.0  0.69114  0.77976  0.05297  1.0000
  H   H1303     1.0  0.80154  0.70454  0.13363  1.0000
  C   C741      1.0  0.61965  0.88891  0.47399  1.0000
  H   H1304     1.0  0.65755  0.70080  0.07266  1.0000
  C   C742      1.0  0.79488  0.72582  0.07608  1.0000
  C   C743      1.0  0.68091  0.95944  0.39354  1.0000
  H   H1305     1.0  0.79442  0.95893  0.05781  1.0000
  C   C744      1.0  0.61914  0.82017  0.17689  1.0000
  H   H1306     1.0  0.58663  0.78458  0.20219  1.0000
  H   H1307     1.0  0.57481  0.71835  0.35730  1.0000
  C   C745      1.0  0.63951  0.65988  0.35083  1.0000
  H   H1308     1.0  0.65930  0.94665  0.20992  1.0000
  H   H1309     1.0  0.67737  0.80342  0.35551  1.0000
  C   C746      1.0  0.52846  0.69925  0.16562  1.0000
  N   N41       1.0  0.60523  0.76659  0.17193  1.0000
  N   N42       1.0  0.64976  0.87462  0.43932  1.0000
  C   C747      1.0  0.67658  0.88792  0.42027  1.0000
  C   C748      1.0  0.62448  0.85866  0.41843  1.0000
  C   C749      1.0  0.64790  0.89807  0.45636  1.0000
  C   C750      1.0  0.65018  0.85397  0.46219  1.0000
  C   C751      1.0  0.65455  0.82954  0.44905  1.0000
  C   C752      1.0  0.70521  0.90146  0.43795  1.0000
  H   H1310     1.0  0.65283  0.88247  0.03554  1.0000
  C   C753      1.0  0.61860  0.87738  0.39595  1.0000
  C   C754      1.0  0.59199  0.85925  0.37679  1.0000
  C   C755      1.0  0.86594  0.69219  0.08366  1.0000
  C   C756      1.0  0.73065  0.91609  0.41632  1.0000
  S   S170      1.0  0.69757  0.94522  0.07903  1.0000
  H   H1311     1.0  0.67720  0.90519  0.40588  1.0000
  H   H1312     1.0  0.67666  0.87208  0.40400  1.0000
  H   H1313     1.0  0.62750  0.84332  0.40404  1.0000
  H   H1314     1.0  0.60466  0.84518  0.43165  1.0000
  H   H1315     1.0  0.65164  0.91583  0.44082  1.0000
  H   H1316     1.0  0.77044  0.91470  0.47552  1.0000
  S   S171      1.0  0.76355  0.98597  0.02925  1.0000
  H   H1317     1.0  0.69715  0.97030  0.21090  1.0000
  H   H1318     1.0  0.67530  0.83808  0.43703  1.0000
  H   H1319     1.0  0.63720  0.81607  0.43299  1.0000
  H   H1320     1.0  0.70656  0.91777  0.45426  1.0000
  H   H1321     1.0  0.70764  0.88503  0.45071  1.0000
  H   H1322     1.0  0.66946  0.91059  0.13091  1.0000
  H   H1323     1.0  0.59914  0.90767  0.50088  1.0000
  H   H1324     1.0  0.61520  0.89364  0.40794  1.0000
  H   H1325     1.0  0.63676  0.88844  0.38002  1.0000
  H   H1326     1.0  0.57275  0.84820  0.39145  1.0000
  H   H1327     1.0  0.58866  0.87329  0.36072  1.0000
  S   S172      1.0  0.55044  0.66742  0.23029  1.0000
  C   C757      1.0  0.63222  0.68756  0.11390  1.0000
  H   H1328     1.0  0.88482  0.85298  0.43749  1.0000
  H   H1329     1.0  0.73102  0.90035  0.40021  1.0000
  H   H1330     1.0  0.72966  0.93334  0.40342  1.0000
  C   C758      1.0  0.89566  0.75705  0.03034  1.0000
  H   H1331     1.0  0.84696  0.78060  0.03531  1.0000
  H   H1332     1.0  0.67135  0.73346  0.38442  1.0000
  H   H1333     1.0  0.79779  0.93414  0.03255  1.0000
  H   H1334     1.0  0.74031  0.92327  0.06892  1.0000
  S   S173      1.0  0.70679  0.74382  0.50888  1.0000
  H   H1335     1.0  0.57811  0.78555  0.16381  1.0000
  C   C759      1.0  0.75516  0.84545  0.48717  1.0000
  N   N43       1.0  0.66467  0.75868  0.35026  1.0000
  H   H1336     1.0  0.81571  0.79429  0.10458  1.0000
  H   H1337     1.0  0.53561  0.68738  0.15053  1.0000
  H   H1338     1.0  0.60445  0.77908  0.06505  1.0000
  C   C760      1.0  0.69432  0.74484  0.31453  1.0000
  N   N44       1.0  0.72183  0.87754  0.07629  1.0000
  C   C761      1.0  0.69339  0.87389  0.06615  1.0000
  C   C762      1.0  0.72338  0.87982  0.11051  1.0000
  C   C763      1.0  0.74511  0.90569  0.06380  1.0000
  C   C764      1.0  0.72717  0.85389  0.06514  1.0000
  C   C765      1.0  0.70087  0.82346  0.06194  1.0000
  C   C766      1.0  0.63211  0.68491  0.14573  1.0000
  C   C767      1.0  0.67858  0.95480  0.22449  1.0000
  C   C768      1.0  0.70055  0.85395  0.12863  1.0000
  C   C769      1.0  0.70204  0.86108  0.16245  1.0000
  C   C770      1.0  0.71015  0.80098  0.05737  1.0000
  H   H1339     1.0  0.62835  0.76745  0.07967  1.0000
  H   H1340     1.0  0.70696  0.76700  0.30598  1.0000
  H   H1341     1.0  0.68906  0.88975  0.07782  1.0000
  H   H1342     1.0  0.67549  0.85285  0.07292  1.0000
  H   H1343     1.0  0.74420  0.88285  0.11885  1.0000
  H   H1344     1.0  0.72232  0.89923  0.11776  1.0000
  H   H1345     1.0  0.63516  0.80352  0.08687  1.0000
  H   H1346     1.0  0.74597  0.90475  0.03859  1.0000
  H   H1347     1.0  0.73730  0.85909  0.04221  1.0000
  H   H1348     1.0  0.74305  0.85232  0.08006  1.0000
  H   H1349     1.0  0.68793  0.82245  0.04187  1.0000
  H   H1350     1.0  0.68670  0.81711  0.08197  1.0000
  H   H1351     1.0  0.59047  0.83621  0.16338  1.0000
  H   H1352     1.0  0.89761  0.91608  0.45724  1.0000
  C   C771      1.0  0.69689  0.77112  0.43228  1.0000
  C   C772      1.0  0.77592  0.91545  0.07523  1.0000
  H   H1353     1.0  0.67853  0.84735  0.12101  1.0000
  H   H1354     1.0  0.70462  0.83567  0.12647  1.0000
  H   H1355     1.0  0.68647  0.84187  0.17519  1.0000
  H   H1356     1.0  0.72375  0.86799  0.17157  1.0000
  H   H1357     1.0  0.69666  0.87837  0.16621  1.0000
  H   H1358     1.0  0.52509  0.69034  0.18891  1.0000
  H   H1359     1.0  0.60903  0.66330  0.41755  1.0000
  C   C773      1.0  0.83657  0.73072  0.48452  1.0000
  H   H1360     1.0  0.59460  0.84319  0.36327  1.0000
  H   H1361     1.0  0.70405  0.71338  0.15571  1.0000
  H   H1362     1.0  0.61966  0.77051  0.21851  1.0000
  H   H1363     1.0  0.65442  0.71627  0.33547  1.0000
  C   C774      1.0  0.63867  0.74894  0.19412  1.0000
  C   C775      1.0  0.88346  0.73336  0.48202  1.0000
  H   H1364     1.0  0.71142  0.83360  0.29812  1.0000
  H   H1365     1.0  0.61878  0.92878  0.46864  1.0000
  H   H1366     1.0  0.86430  0.80388  0.44068  1.0000
  H   H1367     1.0  0.68447  0.83967  0.31608  1.0000
  H   H1368     1.0  0.87128  0.69770  0.05932  1.0000
  H   H1369     1.0  0.62350  0.86240  0.18061  1.0000
  C   C776      1.0  0.59578  0.78825  0.17887  1.0000
  H   H1370     1.0  0.97560  0.66568  0.02460  1.0000
  H   H1371     1.0  0.70661  0.74167  0.33289  1.0000
  C   C777      1.0  0.65412  0.80991  0.47436  1.0000
  H   H1372     1.0  0.68037  0.77764  0.21405  1.0000
  H   H1373     1.0  0.50767  0.69614  0.15712  1.0000
  S   S174      1.0  0.76128  0.77268  0.02464  1.0000
  H   H1374     1.0  0.81994  0.94731  0.06582  1.0000
  S   S175      1.0  0.76661  0.82125  0.47453  1.0000
  H   H1375     1.0  0.66692  0.86557  0.47979  1.0000
  H   H1376     1.0  0.80476  0.79710  0.44993  1.0000
  C   C778      1.0  0.65967  0.86877  0.02318  1.0000
  H   H1377     1.0  0.74012  0.67291  0.10673  1.0000
  C   C779      1.0  0.79109  0.67956  0.02974  1.0000
  H   H1378     1.0  0.64491  0.84596  0.02863  1.0000
  H   H1379     1.0  0.86254  0.86461  0.45463  1.0000
  H   H1380     1.0  0.81218  0.68055  0.02915  1.0000
  C   C780      1.0  0.93030  0.82410  0.49992  1.0000
  S   S176      1.0  0.98869  0.69293  0.44441  1.0000
  C   C781      1.0  0.66776  0.67107  0.36126  1.0000
  C   C782      1.0  0.83447  0.68273  0.08956  1.0000
  Fe  Fe87      1.0  0.73745  0.95536  0.50812  1.0000
  C   C783      1.0  0.88308  0.82440  0.49762  1.0000
  H   H1381     1.0  0.65860  0.69268  0.18511  1.0000
  H   H1382     1.0  0.63931  0.98297  0.22637  1.0000
  H   H1383     1.0  0.63347  0.80030  0.48682  1.0000
  H   H1384     1.0  0.79353  0.69932  0.01930  1.0000
  H   H1385     1.0  0.63686  0.98188  0.12247  1.0000
  H   H1386     1.0  0.92295  0.87760  0.47417  1.0000
  H   H1387     1.0  0.65683  0.79237  0.46455  1.0000
  H   H1388     1.0  0.87031  0.67460  0.08942  1.0000
  H   H1389     1.0  0.91898  0.90701  0.43252  1.0000
  S   S177      1.0  0.74569  0.97946  0.46388  1.0000
  C   C784      1.0  0.83995  0.82916  0.49817  1.0000
  H   H1390     1.0  0.68424  0.98829  0.31261  1.0000
  Fe  Fe88      1.0  0.70954  0.98676  0.47760  1.0000
  H   H1391     1.0  0.82979  0.67592  0.11366  1.0000
  C   C785      1.0  0.73322  0.83755  0.50845  1.0000
  C   C786      1.0  0.75640  0.68677  0.12361  1.0000
  H   H1392     1.0  0.82826  0.80816  0.50988  1.0000
  H   H1393     1.0  0.68413  0.67264  0.34577  1.0000
  H   H1394     1.0  0.94350  0.84723  0.50515  1.0000
  H   H1395     1.0  0.63762  0.92743  0.50207  1.0000
  H   H1396     1.0  0.78453  0.66883  0.12083  1.0000
  C   C787      1.0  0.73785  0.88528  0.50580  1.0000
  H   H1397     1.0  0.63982  0.94605  0.73300  1.0000
  Fe  Fe89      1.0  0.97157  0.72090  0.97701  1.0000
  H   H1398     1.0  0.77253  0.84484  0.98846  1.0000
  H   H1399     1.0  0.89464  0.70915  0.87177  1.0000
  H   H1400     1.0  0.88550  0.77256  0.82332  1.0000
  Fe  Fe90      1.0  0.73102  0.76831  0.98692  1.0000
  H   H1401     1.0  0.89438  0.75550  0.93212  1.0000
  S   S178      1.0  0.71551  0.79881  0.97044  1.0000
  Fe  Fe91      1.0  0.71332  0.70522  0.97521  1.0000
  H   H1402     1.0  0.86645  0.85355  0.53746  1.0000
  S   S179      1.0  0.74733  0.74625  0.95553  1.0000
  C   C788      1.0  0.87100  0.70369  0.91383  1.0000
  H   H1403     1.0  0.91848  0.70574  0.64923  1.0000
  C   C789      1.0  0.94254  0.69875  0.73606  1.0000
  H   H1404     1.0  0.80702  0.84792  0.52927  1.0000
  H   H1405     1.0  0.67644  0.94061  0.69192  1.0000
  S   S180      1.0  0.70343  0.94665  0.99087  1.0000
  Fe  Fe92      1.0  0.73017  0.72716  0.53765  1.0000
  H   H1406     1.0  0.77246  0.68071  0.93381  1.0000
  S   S181      1.0  0.71928  0.71873  0.58813  1.0000
  H   H1407     1.0  0.94281  0.71708  0.86641  1.0000
  H   H1408     1.0  0.90433  0.69907  0.56695  1.0000
  H   H1409     1.0  0.78564  0.68351  0.80453  1.0000
  C   C790      1.0  0.69321  0.96277  0.69795  1.0000
  H   H1410     1.0  0.87558  0.70458  0.93855  1.0000
  H   H1411     1.0  0.52906  0.95707  0.91091  1.0000
  C   C791      1.0  0.85626  0.67031  0.70865  1.0000
  C   C792      1.0  0.77836  0.68372  0.90935  1.0000
  C   C793      1.0  0.84952  0.85286  0.52257  1.0000
  S   S182      1.0  0.72496  0.90862  0.51743  1.0000
  H   H1412     1.0  0.66378  0.71296  0.78267  1.0000
  C   C794      1.0  0.64468  0.70425  0.55708  1.0000
  H   H1413     1.0  0.95311  0.74924  0.84514  1.0000
  C   C795      1.0  0.70686  0.68561  0.60736  1.0000
  C   C796      1.0  0.69710  0.68298  0.63749  1.0000
  H   H1414     1.0  0.67236  0.68739  0.54613  1.0000
  H   H1415     1.0  0.69771  0.70123  0.64863  1.0000
  C   C797      1.0  0.71121  0.97647  0.66891  1.0000
  C   C798      1.0  0.98753  0.74737  0.86737  1.0000
  H   H1416     1.0  0.91032  0.70497  0.90515  1.0000
  H   H1417     1.0  0.85204  0.72420  0.96979  1.0000
  H   H1418     1.0  0.69767  0.97671  0.65006  1.0000
  H   H1419     1.0  0.86684  0.73950  0.86737  1.0000
  H   H1420     1.0  0.97405  0.66241  0.53419  1.0000
  H   H1421     1.0  0.72278  0.70149  0.89859  1.0000
  H   H1422     1.0  0.69279  0.83603  0.95782  1.0000
  Fe  Fe93      1.0  0.77468  0.74686  0.99479  1.0000
  C   C799      1.0  0.97085  0.66022  0.66452  1.0000
  H   H1423     1.0  0.61350  0.69084  0.94257  1.0000
  C   C800      1.0  0.70738  0.68121  0.88888  1.0000
  H   H1424     1.0  0.69593  0.95815  0.76434  1.0000
  H   H1425     1.0  0.66459  0.92329  0.80231  1.0000
  H   H1426     1.0  0.70774  0.85106  0.53425  1.0000
  C   C801      1.0  0.73118  0.83664  0.97314  1.0000
  H   H1427     1.0  0.87587  0.76143  0.54825  1.0000
  H   H1428     1.0  0.65847  0.87194  0.99841  1.0000
  C   C802      1.0  0.83104  0.67587  0.71102  1.0000
  H   H1429     1.0  0.88001  0.76979  0.89295  1.0000
  C   C803      1.0  0.75948  0.85425  0.98237  1.0000
  H   H1430     1.0  0.64435  0.95771  0.68063  1.0000
  S   S183      1.0  0.96301  0.71077  0.52034  1.0000
  C   C804      1.0  0.53715  0.98012  0.91561  1.0000
  C   C805      1.0  0.87057  0.75142  0.52609  1.0000
  H   H1431     1.0  0.83160  0.86527  0.56009  1.0000
  H   H1432     1.0  0.93054  0.78588  0.86983  1.0000
  H   H1433     1.0  0.83151  0.66367  0.91942  1.0000
  S   S184      1.0  0.94288  0.68942  0.94064  1.0000
  H   H1434     1.0  0.72079  0.69425  0.84260  1.0000
  C   C806      1.0  0.72628  0.87934  0.96599  1.0000
  C   C807      1.0  0.88476  0.73989  0.00444  1.0000
  C   C808      1.0  0.72470  0.85739  0.51771  1.0000
  H   H1435     1.0  0.93539  0.79162  0.98225  1.0000
  S   S185      1.0  0.69473  0.72672  0.00437  1.0000
  H   H1436     1.0  0.59751  0.97859  0.76536  1.0000
  C   C809      1.0  0.98798  0.68574  0.64840  1.0000
  C   C810      1.0  0.67287  0.94546  0.75912  1.0000
  H   H1437     1.0  0.95403  0.68630  0.73544  1.0000
  H   H1438     1.0  0.66049  0.95459  0.80319  1.0000
  H   H1439     1.0  0.91472  0.75351  0.84934  1.0000
  C   C811      1.0  0.65041  0.67913  0.55511  1.0000
  C   C812      1.0  0.71470  0.84939  0.96499  1.0000
  H   H1440     1.0  0.93502  0.70297  0.58757  1.0000
  H   H1441     1.0  0.57806  0.94912  0.79135  1.0000
  H   H1442     1.0  0.94749  0.70748  0.68841  1.0000
  C   C813      1.0  0.82441  0.84791  0.54293  1.0000
  H   H1443     1.0  0.62360  0.69748  0.56783  1.0000
  H   H1444     1.0  0.77181  0.69873  0.89973  1.0000
  H   H1445     1.0  0.70006  0.83160  0.85972  1.0000
  C   C814      1.0  0.88221  0.78000  0.84577  1.0000
  H   H1446     1.0  0.96490  0.77754  0.89333  1.0000
  H   H1447     1.0  0.90738  0.79665  0.96559  1.0000
  C   C815      1.0  0.59734  0.97044  0.78856  1.0000
  Fe  Fe94      1.0  0.71190  0.98834  0.96931  1.0000
  H   H1448     1.0  0.93181  0.80506  0.91510  1.0000
  C   C816      1.0  0.84618  0.75171  0.00100  1.0000
  C   C817      1.0  0.77120  0.88425  0.98292  1.0000
  H   H1449     1.0  0.60180  0.96479  0.67589  1.0000
  C   C818      1.0  0.89951  0.71639  0.89585  1.0000
  H   H1450     1.0  0.73781  0.96971  0.63660  1.0000
  C   C819      1.0  0.91432  0.70278  0.58979  1.0000
  S   S186      1.0  0.68710  0.66420  0.94777  1.0000
  H   H1451     1.0  0.77743  0.78886  0.86170  1.0000
  C   C820      1.0  0.94965  0.75421  0.89461  1.0000
  H   H1452     1.0  0.51932  0.98750  0.78921  1.0000
  H   H1453     1.0  0.69458  0.84262  0.89660  1.0000
  S   S187      1.0  0.97334  0.76348  0.98017  1.0000
  H   H1454     1.0  0.66412  0.81811  0.87434  1.0000
  S   S188      1.0  0.77089  0.93497  0.97440  1.0000
  H   H1455     1.0  0.89850  0.80284  0.84897  1.0000
  H   H1456     1.0  0.65911  0.97712  0.75545  1.0000
  C   C821      1.0  0.85130  0.67236  0.90554  1.0000
  C   C822      1.0  0.98190  0.66850  0.87319  1.0000
  C   C823      1.0  0.93013  0.80209  0.96356  1.0000
  C   C824      1.0  0.65919  0.97963  0.68933  1.0000
  Fe  Fe95      1.0  0.75040  0.96278  0.98442  1.0000
  N   N45       1.0  0.67940  0.97849  0.71244  1.0000
  H   H1457     1.0  0.92119  0.74890  0.94634  1.0000
  H   H1458     1.0  0.86073  0.77826  0.84592  1.0000
  C   C825      1.0  0.65679  0.93578  0.78928  1.0000
  H   H1459     1.0  0.74913  0.67232  0.76313  1.0000
  H   H1460     1.0  0.67761  0.69850  0.81052  1.0000
  C   C826      1.0  0.76767  0.66868  0.76038  1.0000
  H   H1461     1.0  0.55297  0.97536  0.80474  1.0000
  H   H1462     1.0  0.95884  0.79898  0.93227  1.0000
  N   N46       1.0  0.91920  0.74846  0.89739  1.0000
  C   C827      1.0  0.91349  0.76309  0.87131  1.0000
  H   H1463     1.0  0.50931  0.97321  0.82690  1.0000
  H   H1464     1.0  0.66153  0.72148  0.57117  1.0000
  H   H1465     1.0  0.81577  0.82717  0.55504  1.0000
  C   C828      1.0  0.98292  0.68827  0.61750  1.0000
  H   H1466     1.0  0.87691  0.69748  0.67061  1.0000
  H   H1467     1.0  0.61657  0.96798  0.79122  1.0000
  H   H1468     1.0  0.74034  0.95941  0.67491  1.0000
  H   H1469     1.0  0.71339  0.88881  0.95940  1.0000
  H   H1470     1.0  0.52228  0.98204  0.93176  1.0000
  H   H1471     1.0  0.92565  0.68972  0.75380  1.0000
  C   C829      1.0  0.75466  0.89700  0.97488  1.0000
  C   C830      1.0  0.72542  0.95957  0.65758  1.0000
  H   H1472     1.0  0.64969  0.67135  0.57856  1.0000
  N   N47       1.0  0.67863  0.74783  0.88477  1.0000
  C   C831      1.0  0.67661  0.77331  0.87347  1.0000
  C   C832      1.0  0.66672  0.72391  0.86144  1.0000
  C   C833      1.0  0.66040  0.73698  0.91304  1.0000
  C   C834      1.0  0.70880  0.75572  0.89324  1.0000
  C   C835      1.0  0.73151  0.76914  0.86788  1.0000
  C   C836      1.0  0.68792  0.79941  0.89527  1.0000
  C   C837      1.0  0.65765  0.70925  0.92714  1.0000
  C   C838      1.0  0.67013  0.73243  0.82737  1.0000
  H   H1473     1.0  0.51688  0.98691  0.87716  1.0000
  C   C839      1.0  0.76148  0.77873  0.88017  1.0000
  C   C840      1.0  0.68650  0.82437  0.88043  1.0000
  C   C841      1.0  0.63502  0.69769  0.95217  1.0000
  H   H1474     1.0  0.65393  0.76666  0.86802  1.0000
  H   H1475     1.0  0.68844  0.78155  0.85187  1.0000
  H   H1476     1.0  0.67600  0.70958  0.86483  1.0000
  H   H1477     1.0  0.64323  0.70987  0.86463  1.0000
  H   H1478     1.0  0.63844  0.73324  0.90829  1.0000
  H   H1479     1.0  0.66910  0.75317  0.93156  1.0000
  H   H1480     1.0  0.71609  0.77022  0.91330  1.0000
  H   H1481     1.0  0.70961  0.73649  0.90088  1.0000
  H   H1482     1.0  0.73178  0.78815  0.85782  1.0000
  H   H1483     1.0  0.72737  0.75306  0.84992  1.0000
  H   H1484     1.0  0.67493  0.79402  0.91631  1.0000
  H   H1485     1.0  0.71055  0.80719  0.90153  1.0000
  H   H1486     1.0  0.67826  0.71382  0.93752  1.0000
  H   H1487     1.0  0.65163  0.69194  0.91017  1.0000
  H   H1488     1.0  0.65551  0.74084  0.82163  1.0000
  H   H1489     1.0  0.69215  0.74908  0.82162  1.0000
  H   H1490     1.0  0.91851  0.72410  0.59790  1.0000
  H   H1491     1.0  0.87420  0.68017  0.61347  1.0000
  C   C842      1.0  0.88407  0.76178  0.87134  1.0000
  H   H1492     1.0  0.76685  0.79461  0.89877  1.0000
  H   H1493     1.0  0.76297  0.76011  0.88883  1.0000
  H   H1494     1.0  0.95810  0.72116  0.74226  1.0000
  S   S189      1.0  0.92439  0.75756  0.52789  1.0000
  S   S190      1.0  0.81698  0.74969  0.97996  1.0000
  C   C843      1.0  0.70641  0.67691  0.85719  1.0000
  C   C844      1.0  0.86024  0.73735  0.98986  1.0000
  C   C845      1.0  0.66245  0.70665  0.80688  1.0000
  H   H1495     1.0  0.70756  0.96015  0.71409  1.0000
  H   H1496     1.0  0.63348  0.92209  0.78530  1.0000
  C   C846      1.0  0.95008  0.67560  0.90708  1.0000
  H   H1497     1.0  0.63991  0.71420  0.96991  1.0000
  C   C847      1.0  0.66191  0.96232  0.73990  1.0000
  H   H1498     1.0  0.70905  0.93724  0.65198  1.0000
  C   C848      1.0  0.61756  0.98794  0.67750  1.0000
  H   H1499     1.0  0.85920  0.71540  0.90980  1.0000
  C   C849      1.0  0.91655  0.76010  0.92779  1.0000
  H   H1500     1.0  0.98551  0.67509  0.97060  1.0000
  C   C850      1.0  0.90844  0.68266  0.64321  1.0000
  C   C851      1.0  0.86765  0.67425  0.67552  1.0000
  C   C852      1.0  0.89433  0.67926  0.61162  1.0000
  C   C853      1.0  0.77740  0.66347  0.79118  1.0000
  H   H1501     1.0  0.84538  0.67031  0.88113  1.0000
  H   H1502     1.0  0.91949  0.71174  0.70582  1.0000
  H   H1503     1.0  0.78536  0.68786  0.74950  1.0000
  H   H1504     1.0  0.64513  0.71301  0.53412  1.0000
  C   C854      1.0  0.92956  0.69802  0.70499  1.0000
  C   C855      1.0  0.95639  0.74068  0.86674  1.0000
  C   C856      1.0  0.93587  0.79277  0.93272  1.0000
  H   H1505     1.0  0.95563  0.74643  0.91532  1.0000
  H   H1506     1.0  0.79331  0.89770  0.98938  1.0000
  C   C857      1.0  0.84372  0.74367  0.51315  1.0000
  S   S191      1.0  0.77356  0.76115  0.52126  1.0000
  C   C858      1.0  0.96027  0.66500  0.60296  1.0000
  C   C859      1.0  0.97761  0.68127  0.89925  1.0000
  H   H1507     1.0  0.82853  0.74763  0.52538  1.0000
  H   H1508     1.0  0.66935  0.92605  0.74650  1.0000
  N   N48       1.0  0.88901  0.66437  0.66854  1.0000
  H   H1509     1.0  0.59804  0.98261  0.83522  1.0000
  H   H1510     1.0  0.79309  0.67240  0.85523  1.0000
  H   H1511     1.0  0.89524  0.72857  0.99574  1.0000
  H   H1512     1.0  0.87326  0.68561  0.72406  1.0000
  H   H1513     1.0  0.84890  0.66350  0.66002  1.0000
  H   H1514     1.0  0.83717  0.69769  0.70286  1.0000
  H   H1515     1.0  0.72288  0.81621  0.51787  1.0000
  H   H1516     1.0  0.92654  0.67837  0.64020  1.0000
  H   H1517     1.0  0.54753  0.96993  0.85612  1.0000
  H   H1518     1.0  0.71437  0.66381  0.57053  1.0000
  H   H1519     1.0  0.70888  0.98825  0.88622  1.0000
  H   H1520     1.0  0.95561  0.66698  0.57960  1.0000
  H   H1521     1.0  0.64037  0.68918  0.81155  1.0000
  H   H1522     1.0  0.94376  0.82557  0.96623  1.0000
  H   H1523     1.0  0.80192  0.69332  0.90752  1.0000
  C   C860      1.0  0.90768  0.66702  0.69535  1.0000
  H   H1524     1.0  0.82422  0.67401  0.73510  1.0000
  H   H1525     1.0  0.75981  0.67133  0.85026  1.0000
  C   C861      1.0  0.70616  0.66188  0.59333  1.0000
  H   H1526     1.0  0.63475  0.67889  0.96299  1.0000
  H   H1527     1.0  0.63044  0.98436  0.72245  1.0000
  H   H1528     1.0  0.92290  0.81200  0.52153  1.0000
  S   S192      1.0  0.69985  0.96101  0.52057  1.0000
  C   C862      1.0  0.89061  0.74634  0.51064  1.0000
  H   H1529     1.0  0.63268  0.66533  0.51087  1.0000
  H   H1530     1.0  0.86199  0.65955  0.91021  1.0000
  Fe  Fe96      1.0  0.96285  0.75225  0.51489  1.0000
  H   H1531     1.0  0.55852  0.98935  0.92652  1.0000
  C   C863      1.0  0.59786  0.99136  0.81246  1.0000
  H   H1532     1.0  0.81265  0.65985  0.69747  1.0000
  C   C864      1.0  0.68831  0.65927  0.90793  1.0000
  H   H1533     1.0  0.79526  0.65913  0.78689  1.0000
  H   H1534     1.0  0.87075  0.80558  0.51268  1.0000
  H   H1535     1.0  0.85724  0.87394  0.51150  1.0000
  H   H1536     1.0  0.89512  0.84238  0.51355  1.0000
