data_image0
_chemical_formula_structural       HSHSH3CHFeSHFeS2HSNCNSH3C6H5CH2CH6SHCH2CHSH5CH2C3FeCH3CHC2HCHC2H3CH4CHCH2C2H2CHC2H2FeCH5CH5CHSC2H5SCHCHC2H2C2HCNHCH4CH4C3H3SHC2FeCH3CH3CH3C2H2CHSH3FeHCHSHS2CSFeS2H3CHC9H7NCH2SHCH6SHCH13C5HCHCHNH3C2SH2CH2SHSCH2CH2FeHC2HCH3CH2CH4C2HCHCHC2NC3H2SH3CHCH2C2H2CHC2H2CHFeCH3FeHC2H6C2Fe2H3CH3C2HCSCHSFeS2H2CHCNCHC2H2SCHSCH2FeS2CH2SHSC6H4NH2CH2CH2CH3CH4C2FeCH2SC2H3C3H4CH4CFeH4NH2CH7CH2CHCHCH2C2H2CH2C2HSCHC2H2CHFe2CH2C2HCH2SFeH2CH4CHCFeHSH2CH5FeH4C2S2H5CSFeH3FeS2HS2CSH6C6H4FeHCH5CFeCHC3H2CH3CHC2H3NH2CHC4HCFeCH2SHCH3CHCNCHCH3CHCHCH2CH2CH3S2HSH2C2HCHCH4C2H4CHC2HCH5CHCHFeH2SCH2CNH3CH3NH3C3H3Fe2S2FeS2FeSFeS3HSHSFeS2FeS2FeSFeS3HC7H4C2H3C6H4C6H4C6H4C6H4CH2CHCHCH2CHCHSH4NCH3CNHCHC2H2CSH3CNH2SNCH3CH2SH3CHCH2C3H4NC2H3C2HCH5CH9C4H2C2NHNC12H16CH13CHCH3C5H10C2HCH9CH3CFeH2CH3C2H12NH5CHC3H6C3HCH3FeHCHC4H2CHCH3CH5FeS2FeS2FeSFeS5FeS2FeS2FeSFeS3CHC6H4C6H4C3HC7H4C6H4C6H4C2H11CHCH3CH3NCH2CH2CH11C2H2CHCHNC5HC4HCHCH7CH9FeCH2C2H4C2H2C2HCH4CH8CHCHCHFeNH5CHCH3C2H2FeH7CH2SH4CHCHC3HSH13SH6CHNH11C4H2CH2C2HNC8HC3H12SH2CHCHCHCHC4H3CSHCH2CH8FeCH3CH5S2CFeS2FeS2FeSFeS3CSFeS2FeS2FeSFeS3HSC6H4C2H3C6H4C6H4SC3HC6H4C6H4CH3CHC2H3C3H7CSH4NH3CHCH7C4HCH9FeCHNC8HCHCH22C2H4C2H2N2H4CH3SH2CHCFeH2CFeH4CH2CH2CH4C2H15C2H3CHNC2H3C2HC2H2CHCH2CH4CHC3HCHCH4CH6CFeH5CHC4H2CH5CSHFeS2FeS2FeSFeS3FeS2FeS2FeSFeS4C7H4C6H4CHCH2C6H4C2H2C7H4C6H4C2H3CNH2C3HCH2CHCH2C2H7SHCH2SCH5CHC2HCH2CH13C4H7CHCH2CH2C2H5CHC2H2CHCHNH3CH4CH3CNC9HCH16C2H2N2H6NH2C3HC4H2CHCH12CH5C2H5Fe2HCH3C2H5CH6NHCH7CHSH2SCH2CH5CH4SCH7CNSH4CH3S2FeS2H2CH4C8H6C4H5NSHCH2CH3NSH2C2H2C3HCH3SHC2H2CH5CH3CH3CHCH5CHC4H7CHC2H4CFeHC2H5CSHC3H2CHCFeCSCNCH6CHCHSCH3CFe2C2HSHCH3SH5C2HCH2Fe2SH2SFeS2H3CHCH2C6H7NC2H2CHNC11H20C2H4SH3CH2C2HC3H2C2HSH5SCHCH4CH3CH2SH4SC2HFeH2CHCHCHC2H2CHCH2SFeC2FeHFeS2H3SH3CH3CSHSH3CFeS2FeCHC2NC6H4C2HCFeCHCHCHNHC2H2CH2CHC2H11CHCH2C2H2CH4C5H3FeSH3CH3CH2CHSHCH2SH3CH5CHC2HCSH8C2HCSHCH6CH2SNSC2H4SH2FeS2FeS2C2H3CH2C6H6C2HNFeH2CHCHCHCHC3H4CH2SHFeH5CSFeCHS2CH3CHCHSCH5C2H2CHC3H2FeHCHCH2C2H5FeHC2H4C2HCH3CHC4H2CH2C2HSH2CHCSHCH4CFeH6CHC3HCH3
_chemical_formula_sum              "H1536 S192 C864 Fe96 N48"
_cell_length_a       51.1425
_cell_length_b       50.9518
_cell_length_c       51.2083
_cell_angle_alpha    89.8391
_cell_angle_beta     90.6317
_cell_angle_gamma    90.1746

_space_group_name_H-M_alt    "P 1"
_space_group_IT_number       1

loop_
  _space_group_symop_operation_xyz
  'x, y, z'

loop_
  _atom_site_type_symbol
  _atom_site_label
  _atom_site_symmetry_multiplicity
  _atom_site_fract_x
  _atom_site_fract_y
  _atom_site_fract_z
  _atom_site_occupancy
  H   H1        1.0  0.19042  0.44344  0.33573  1.0000
  S   S1        1.0  0.28049  0.47749  0.10048  1.0000
  H   H2        1.0  0.22868  0.46849  0.06299  1.0000
  S   S2        1.0  0.28458  0.11738  0.47734  1.0000
  H   H3        1.0  0.27124  0.44896  0.04968  1.0000
  H   H4        1.0  0.20099  0.31863  0.41523  1.0000
  H   H5        1.0  0.09473  0.46607  0.39247  1.0000
  C   C1        1.0  0.17002  0.29100  0.40993  1.0000
  H   H6        1.0  0.30550  0.47262  0.02642  1.0000
  Fe  Fe1       1.0  0.11356  0.46899  0.33274  1.0000
  S   S3        1.0  0.10167  0.42894  0.34824  1.0000
  H   H7        1.0  0.05820  0.40864  0.27009  1.0000
  Fe  Fe2       1.0  0.13768  0.34652  0.46999  1.0000
  S   S4        1.0  0.11904  0.31030  0.45362  1.0000
  S   S5        1.0  0.15961  0.37644  0.44564  1.0000
  H   H8        1.0  0.00996  0.41060  0.37104  1.0000
  S   S6        1.0  0.15300  0.48792  0.33443  1.0000
  N   N1        1.0  0.23317  0.29028  0.45416  1.0000
  C   C2        1.0  0.22051  0.29924  0.47908  1.0000
  N   N2        1.0  0.11357  0.49061  0.44169  1.0000
  S   S7        1.0  0.18120  0.49226  0.26728  1.0000
  H   H9        1.0  0.22110  0.01368  0.48473  1.0000
  H   H10       1.0  0.22673  0.18196  0.46817  1.0000
  H   H11       1.0  0.20508  0.28508  0.48499  1.0000
  C   C3        1.0  0.11805  0.41451  0.37522  1.0000
  C   C4        1.0  0.14296  0.42291  0.38309  1.0000
  C   C5        1.0  0.15561  0.41083  0.40450  1.0000
  C   C6        1.0  0.14325  0.39070  0.41855  1.0000
  C   C7        1.0  0.11823  0.38246  0.41083  1.0000
  C   C8        1.0  0.10582  0.39414  0.38906  1.0000
  H   H12       1.0  0.15253  0.43858  0.37258  1.0000
  H   H13       1.0  0.17501  0.41712  0.41033  1.0000
  H   H14       1.0  0.10853  0.36692  0.42149  1.0000
  H   H15       1.0  0.08656  0.38748  0.38309  1.0000
  H   H16       1.0  0.31913  0.47867  0.23970  1.0000
  C   C9        1.0  0.17173  0.42104  0.28941  1.0000
  H   H17       1.0  0.22229  0.34395  0.44210  1.0000
  H   H18       1.0  0.18206  0.31181  0.44419  1.0000
  C   C10       1.0  0.05653  0.45393  0.40424  1.0000
  H   H19       1.0  0.30316  0.04244  0.43036  1.0000
  H   H20       1.0  0.15933  0.27555  0.42091  1.0000
  H   H21       1.0  0.17829  0.28231  0.39197  1.0000
  H   H22       1.0  0.19187  0.43787  0.24198  1.0000
  H   H23       1.0  0.18321  0.47842  0.02168  1.0000
  H   H24       1.0  0.28624  0.04455  0.47473  1.0000
  S   S8        1.0  0.15914  0.25032  0.47730  1.0000
  H   H25       1.0  0.14503  0.32903  0.22366  1.0000
  C   C11       1.0  0.04784  0.40128  0.48455  1.0000
  H   H26       1.0  0.28811  0.21967  0.42898  1.0000
  H   H27       1.0  0.16751  0.44233  0.29208  1.0000
  C   C12       1.0  0.17651  0.42719  0.23084  1.0000
  H   H28       1.0  0.24510  0.24059  0.42628  1.0000
  S   S9        1.0  0.32811  0.16600  0.48041  1.0000
  H   H29       1.0  0.22077  0.27541  0.41632  1.0000
  H   H30       1.0  0.28058  0.35597  0.43367  1.0000
  H   H31       1.0  0.26614  0.27143  0.47352  1.0000
  H   H32       1.0  0.03431  0.48216  0.28855  1.0000
  H   H33       1.0  0.04649  0.47112  0.39533  1.0000
  C   C13       1.0  0.19693  0.21178  0.47300  1.0000
  H   H34       1.0  0.18103  0.38053  0.26031  1.0000
  H   H35       1.0  0.18691  0.20689  0.45494  1.0000
  C   C14       1.0  0.07565  0.40804  0.28317  1.0000
  C   C15       1.0  0.12864  0.43360  0.49110  1.0000
  C   C16       1.0  0.25939  0.35840  0.42935  1.0000
  Fe  Fe3       1.0  0.08529  0.31923  0.48017  1.0000
  C   C17       1.0  0.28071  0.23063  0.44609  1.0000
  H   H36       1.0  0.12339  0.39225  0.29793  1.0000
  H   H37       1.0  0.15584  0.30650  0.40413  1.0000
  H   H38       1.0  0.20980  0.31790  0.47620  1.0000
  C   C18       1.0  0.19163  0.30300  0.42701  1.0000
  H   H39       1.0  0.00571  0.45720  0.36176  1.0000
  C   C19       1.0  0.19493  0.42227  0.33356  1.0000
  C   C20       1.0  0.14407  0.36595  0.24470  1.0000
  H   H40       1.0  0.27076  0.26488  0.42339  1.0000
  C   C21       1.0  0.30529  0.48456  0.00893  1.0000
  H   H41       1.0  0.25269  0.30754  0.42096  1.0000
  C   C22       1.0  0.10047  0.41106  0.26707  1.0000
  C   C23       1.0  0.24931  0.26621  0.46056  1.0000
  H   H42       1.0  0.27112  0.30911  0.45027  1.0000
  H   H43       1.0  0.25395  0.37911  0.43327  1.0000
  H   H44       1.0  0.00165  0.41318  0.43620  1.0000
  C   C24       1.0  0.21959  0.19756  0.48045  1.0000
  H   H45       1.0  0.21229  0.45059  0.03728  1.0000
  H   H46       1.0  0.27922  0.00206  0.45178  1.0000
  H   H47       1.0  0.29880  0.02041  0.40306  1.0000
  H   H48       1.0  0.13483  0.46436  0.41624  1.0000
  C   C25       1.0  0.24315  0.34012  0.44650  1.0000
  H   H49       1.0  0.25628  0.49175  0.02958  1.0000
  C   C26       1.0  0.21207  0.28201  0.43497  1.0000
  H   H50       1.0  0.29322  0.08038  0.40181  1.0000
  H   H51       1.0  0.20129  0.26471  0.44282  1.0000
  C   C27       1.0  0.28833  0.06018  0.39526  1.0000
  C   C28       1.0  0.28890  0.00232  0.47066  1.0000
  H   H52       1.0  0.15917  0.32745  0.25602  1.0000
  H   H53       1.0  0.12438  0.36119  0.25225  1.0000
  C   C29       1.0  0.15084  0.42560  0.24666  1.0000
  H   H54       1.0  0.19163  0.42008  0.28096  1.0000
  C   C30       1.0  0.12064  0.44570  0.46493  1.0000
  C   C31       1.0  0.17218  0.44200  0.20513  1.0000
  H   H55       1.0  0.26756  0.05624  0.40007  1.0000
  H   H56       1.0  0.15515  0.41010  0.32766  1.0000
  Fe  Fe4       1.0  0.13795  0.28889  0.48777  1.0000
  C   C32       1.0  0.30586  0.04013  0.40908  1.0000
  H   H57       1.0  0.07409  0.42438  0.29737  1.0000
  H   H58       1.0  0.19112  0.44447  0.19498  1.0000
  H   H59       1.0  0.09943  0.43054  0.25730  1.0000
  H   H60       1.0  0.23749  0.25182  0.47180  1.0000
  H   H61       1.0  0.27147  0.21633  0.45961  1.0000
  C   C33       1.0  0.17388  0.40856  0.31709  1.0000
  H   H62       1.0  0.25555  0.35430  0.40836  1.0000
  H   H63       1.0  0.01804  0.42248  0.31281  1.0000
  H   H64       1.0  0.17934  0.38757  0.31606  1.0000
  H   H65       1.0  0.21441  0.42022  0.32441  1.0000
  H   H66       1.0  0.13546  0.43965  0.45057  1.0000
  C   C34       1.0  0.16297  0.49254  0.43003  1.0000
  H   H67       1.0  0.14522  0.44610  0.25175  1.0000
  S   S10       1.0  0.04394  0.32491  0.46370  1.0000
  C   C35       1.0  0.25231  0.44003  0.04361  1.0000
  C   C36       1.0  0.25082  0.31092  0.44234  1.0000
  H   H68       1.0  0.14217  0.37714  0.22620  1.0000
  H   H69       1.0  0.09447  0.44279  0.41854  1.0000
  H   H70       1.0  0.10141  0.43704  0.45966  1.0000
  H   H71       1.0  0.17680  0.34326  0.22976  1.0000
  H   H72       1.0  0.15857  0.43097  0.19212  1.0000
  S   S11       1.0  0.10624  0.48014  0.29067  1.0000
  C   C37       1.0  0.15715  0.33985  0.23822  1.0000
  H   H73       1.0  0.19578  0.41326  0.35334  1.0000
  C   C38       1.0  0.12545  0.40944  0.28458  1.0000
  H   H74       1.0  0.04018  0.43118  0.33925  1.0000
  C   C39       1.0  0.08495  0.46072  0.41097  1.0000
  C   C40       1.0  0.16000  0.38109  0.26567  1.0000
  H   H75       1.0  0.16398  0.46179  0.20881  1.0000
  H   H76       1.0  0.29059  0.05899  0.37374  1.0000
  C   C41       1.0  0.11844  0.47594  0.46692  1.0000
  C   C42       1.0  0.01670  0.49342  0.29157  1.0000
  H   H77       1.0  0.04597  0.44751  0.42199  1.0000
  C   C43       1.0  0.26085  0.25123  0.43703  1.0000
  N   N3        1.0  0.15168  0.40892  0.27110  1.0000
  H   H78       1.0  0.05004  0.38291  0.47313  1.0000
  C   C44       1.0  0.18235  0.48513  0.40880  1.0000
  H   H79       1.0  0.12426  0.42688  0.29752  1.0000
  H   H80       1.0  0.07566  0.38907  0.29392  1.0000
  H   H81       1.0  0.15869  0.36895  0.28369  1.0000
  H   H82       1.0  0.10010  0.39590  0.25170  1.0000
  C   C45       1.0  0.29291  0.02641  0.48357  1.0000
  H   H83       1.0  0.13545  0.41877  0.23286  1.0000
  H   H84       1.0  0.06743  0.40793  0.49148  1.0000
  H   H85       1.0  0.18391  0.40741  0.22593  1.0000
  H   H86       1.0  0.03378  0.39721  0.33201  1.0000
  C   C46       1.0  0.31328  0.49127  0.22291  1.0000
  C   C47       1.0  0.08683  0.48402  0.43040  1.0000
  C   C48       1.0  0.18723  0.23231  0.48854  1.0000
  H   H87       1.0  0.13636  0.48354  0.47690  1.0000
  H   H88       1.0  0.05608  0.43759  0.38992  1.0000
  H   H89       1.0  0.24732  0.42444  0.05794  1.0000
  S   S12       1.0  0.31301  0.48833  0.15518  1.0000
  H   H90       1.0  0.24675  0.34587  0.46712  1.0000
  C   C49       1.0  0.01352  0.31679  0.47806  1.0000
  C   C50       1.0  0.23312  0.49015  0.20682  1.0000
  Fe  Fe5       1.0  0.31914  0.46529  0.11843  1.0000
  C   C51       1.0  0.23071  0.46072  0.04289  1.0000
  H   H91       1.0  0.29760  0.24005  0.45621  1.0000
  H   H92       1.0  0.25104  0.47985  0.20272  1.0000
  H   H93       1.0  0.07266  0.48035  0.44638  1.0000
  C   C52       1.0  0.13454  0.48529  0.42185  1.0000
  H   H94       1.0  0.10239  0.47965  0.48088  1.0000
  H   H95       1.0  0.24143  0.47347  0.00429  1.0000
  H   H96       1.0  0.18223  0.46365  0.40547  1.0000
  C   C53       1.0  0.22059  0.48649  0.23108  1.0000
  H   H97       1.0  0.29819  0.48063  0.21130  1.0000
  H   H98       1.0  0.22927  0.47350  0.24547  1.0000
  H   H99       1.0  0.25457  0.43087  0.02411  1.0000
  C   C54       1.0  0.23734  0.48301  0.02334  1.0000
  C   C55       1.0  0.02485  0.41703  0.33278  1.0000
  H   H100      1.0  0.17746  0.49538  0.39021  1.0000
  H   H101      1.0  0.20240  0.49111  0.41490  1.0000
  C   C56       1.0  0.00198  0.41683  0.35180  1.0000
  H   H102      1.0  0.13016  0.41196  0.48901  1.0000
  S   S13       1.0  0.10316  0.35704  0.49425  1.0000
  H   H103      1.0  0.03956  0.41658  0.47143  1.0000
  H   H104      1.0  0.13930  0.48307  0.00014  1.0000
  H   H105      1.0  0.12992  0.49599  0.40338  1.0000
  Fe  Fe6       1.0  0.32320  0.12792  0.45886  1.0000
  H   H106      1.0  0.16888  0.48209  0.44817  1.0000
  C   C57       1.0  0.19283  0.49192  0.00760  1.0000
  H   H107      1.0  0.30210  0.36326  0.88569  1.0000
  S   S14       1.0  0.29377  0.46761  0.85524  1.0000
  H   H108      1.0  0.32703  0.40030  0.79621  1.0000
  S   S15       1.0  0.12901  0.46753  0.59129  1.0000
  S   S16       1.0  0.11561  0.46701  0.66892  1.0000
  C   C58       1.0  0.01173  0.29989  0.49951  1.0000
  S   S17       1.0  0.31304  0.13265  0.53313  1.0000
  Fe  Fe7       1.0  0.12191  0.33246  0.52540  1.0000
  S   S18       1.0  0.10215  0.29472  0.51298  1.0000
  S   S19       1.0  0.12019  0.34567  0.56758  1.0000
  H   H109      1.0  0.24493  0.32419  0.83844  1.0000
  H   H110      1.0  0.30777  0.44546  0.79768  1.0000
  H   H111      1.0  0.25512  0.38277  0.82759  1.0000
  C   C59       1.0  0.30292  0.38234  0.87498  1.0000
  H   H112      1.0  0.20420  0.34972  0.59638  1.0000
  C   C60       1.0  0.04715  0.43521  0.58880  1.0000
  C   C61       1.0  0.32295  0.40005  0.88965  1.0000
  C   C62       1.0  0.04235  0.32311  0.55592  1.0000
  C   C63       1.0  0.12570  0.43362  0.58527  1.0000
  C   C64       1.0  0.11599  0.41620  0.60399  1.0000
  C   C65       1.0  0.11456  0.38917  0.59846  1.0000
  C   C66       1.0  0.12207  0.37958  0.57397  1.0000
  C   C67       1.0  0.13149  0.39707  0.55522  1.0000
  C   C68       1.0  0.13358  0.42393  0.56101  1.0000
  H   H113      1.0  0.10966  0.42350  0.62269  1.0000
  H   H114      1.0  0.10730  0.37568  0.61307  1.0000
  H   H115      1.0  0.13768  0.38981  0.53644  1.0000
  H   H116      1.0  0.14153  0.43731  0.54673  1.0000
  H   H117      1.0  0.06156  0.37948  0.53021  1.0000
  H   H118      1.0  0.05377  0.32310  0.53763  1.0000
  H   H119      1.0  0.31973  0.41773  0.83853  1.0000
  N   N4        1.0  0.30804  0.37765  0.84631  1.0000
  C   C69       1.0  0.22308  0.22394  0.51939  1.0000
  H   H120      1.0  0.11382  0.43791  0.50619  1.0000
  H   H121      1.0  0.23305  0.22873  0.53750  1.0000
  S   S20       1.0  0.15852  0.32512  0.50261  1.0000
  H   H122      1.0  0.21350  0.44229  0.60494  1.0000
  C   C70       1.0  0.20221  0.47113  0.63233  1.0000
  H   H123      1.0  0.22166  0.39379  0.65402  1.0000
  H   H124      1.0  0.04447  0.30242  0.59325  1.0000
  H   H125      1.0  0.24540  0.07566  0.52601  1.0000
  H   H126      1.0  0.18727  0.47545  0.64717  1.0000
  H   H127      1.0  0.29629  0.41157  0.92056  1.0000
  H   H128      1.0  0.06127  0.39584  0.59027  1.0000
  S   S21       1.0  0.30686  0.05626  0.52661  1.0000
  H   H129      1.0  0.12587  0.41379  0.68463  1.0000
  C   C71       1.0  0.02466  0.39607  0.56747  1.0000
  H   H130      1.0  0.20551  0.40789  0.58038  1.0000
  H   H131      1.0  0.04048  0.35697  0.51456  1.0000
  H   H132      1.0  0.18139  0.36585  0.57440  1.0000
  H   H133      1.0  0.15443  0.42054  0.70488  1.0000
  H   H134      1.0  0.21539  0.36337  0.56596  1.0000
  H   H135      1.0  0.22187  0.47102  0.64166  1.0000
  H   H136      1.0  0.26414  0.43588  0.67591  1.0000
  H   H137      1.0  0.03497  0.43309  0.60653  1.0000
  H   H138      1.0  0.06416  0.41167  0.55885  1.0000
  H   H139      1.0  0.99862  0.34809  0.52825  1.0000
  H   H140      1.0  0.29161  0.33863  0.84851  1.0000
  H   H141      1.0  0.06636  0.44362  0.59478  1.0000
  H   H142      1.0  0.16831  0.40015  0.60882  1.0000
  C   C72       1.0  0.25017  0.42532  0.68869  1.0000
  C   C73       1.0  0.04051  0.37536  0.52624  1.0000
  C   C74       1.0  0.28867  0.35710  0.83712  1.0000
  C   C75       1.0  0.22227  0.42816  0.67810  1.0000
  C   C76       1.0  0.16240  0.39942  0.66871  1.0000
  H   H143      1.0  0.22789  0.39225  0.60313  1.0000
  C   C77       1.0  0.30631  0.40275  0.80197  1.0000
  H   H144      1.0  0.19945  0.02014  0.52781  1.0000
  C   C78       1.0  0.01228  0.49148  0.68228  1.0000
  H   H145      1.0  0.29896  0.42799  0.76839  1.0000
  N   N5        1.0  0.02604  0.37124  0.55146  1.0000
  H   H146      1.0  0.07592  0.31079  0.57957  1.0000
  H   H147      1.0  0.06173  0.35746  0.57038  1.0000
  H   H148      1.0  0.21533  0.06297  0.51239  1.0000
  C   C79       1.0  0.20742  0.39251  0.59570  1.0000
  C   C80       1.0  0.18794  0.39768  0.61810  1.0000
  S   S22       1.0  0.26195  0.18668  0.51424  1.0000
  H   H149      1.0  0.15365  0.43110  0.64182  1.0000
  H   H150      1.0  0.29437  0.38681  0.79327  1.0000
  C   C81       1.0  0.19691  0.44465  0.61854  1.0000
  H   H151      1.0  0.17436  0.44041  0.66766  1.0000
  H   H152      1.0  0.28358  0.39185  0.87769  1.0000
  S   S23       1.0  0.30187  0.47181  0.93048  1.0000
  H   H153      1.0  0.17958  0.38844  0.67627  1.0000
  S   S24       1.0  0.04330  0.47790  0.69038  1.0000
  C   C82       1.0  0.31599  0.40270  0.91847  1.0000
  H   H154      1.0  0.03761  0.44919  0.57504  1.0000
  H   H155      1.0  0.25572  0.40430  0.69001  1.0000
  C   C83       1.0  0.20170  0.36624  0.58238  1.0000
  H   H156      1.0  0.23631  0.42115  0.63875  1.0000
  H   H157      1.0  0.14089  0.38787  0.70318  1.0000
  Fe  Fe8       1.0  0.30410  0.49196  0.89067  1.0000
  H   H158      1.0  0.25149  0.43400  0.70855  1.0000
  C   C84       1.0  0.05573  0.30411  0.57490  1.0000
  C   C85       1.0  0.21917  0.41527  0.65069  1.0000
  H   H159      1.0  0.20906  0.41860  0.69233  1.0000
  C   C86       1.0  0.05118  0.40856  0.57578  1.0000
  H   H160      1.0  0.21743  0.44929  0.67799  1.0000
  H   H161      1.0  0.03249  0.34960  0.58740  1.0000
  H   H162      1.0  0.05837  0.47465  0.78487  1.0000
  C   C87       1.0  0.24191  0.34285  0.82756  1.0000
  H   H163      1.0  0.30510  0.45143  0.98270  1.0000
  H   H164      1.0  0.22104  0.34856  0.82924  1.0000
  C   C88       1.0  0.04102  0.35121  0.56750  1.0000
  H   H165      1.0  0.17910  0.44694  0.60603  1.0000
  H   H166      1.0  0.18683  0.37917  0.62962  1.0000
  H   H167      1.0  0.25373  0.48522  0.76907  1.0000
  H   H168      1.0  0.24957  0.02844  0.51608  1.0000
  C   C89       1.0  0.14487  0.40596  0.69174  1.0000
  C   C90       1.0  0.30443  0.48784  0.96115  1.0000
  H   H169      1.0  0.05689  0.28437  0.56582  1.0000
  C   C91       1.0  0.02964  0.39678  0.50765  1.0000
  H   H170      1.0  0.15113  0.38611  0.65554  1.0000
  C   C92       1.0  0.19449  0.49394  0.73771  1.0000
  H   H171      1.0  0.19331  0.25373  0.52424  1.0000
  C   C93       1.0  0.31240  0.00316  0.52003  1.0000
  C   C94       1.0  0.20049  0.23822  0.51190  1.0000
  N   N6        1.0  0.19407  0.42072  0.63576  1.0000
  C   C95       1.0  0.17091  0.42437  0.65342  1.0000
  C   C96       1.0  0.29652  0.42848  0.78990  1.0000
  C   C97       1.0  0.30509  0.47261  0.98412  1.0000
  H   H172      1.0  0.02259  0.31512  0.55173  1.0000
  H   H173      1.0  0.25340  0.36750  0.85937  1.0000
  S   S25       1.0  0.17959  0.48798  0.70637  1.0000
  H   H174      1.0  0.01343  0.41156  0.55714  1.0000
  H   H175      1.0  0.18277  0.49503  0.60247  1.0000
  H   H176      1.0  0.24618  0.33969  0.80657  1.0000
  C   C98       1.0  0.22611  0.31744  0.52508  1.0000
  H   H177      1.0  0.27546  0.43142  0.79412  1.0000
  C   C99       1.0  0.20206  0.49374  0.61261  1.0000
  H   H178      1.0  0.24495  0.28306  0.51072  1.0000
  H   H179      1.0  0.14803  0.44119  0.49757  1.0000
  C   C100      1.0  0.25933  0.36458  0.83882  1.0000
  C   C101      1.0  0.22092  0.48700  0.74182  1.0000
  H   H180      1.0  0.21822  0.06907  0.54720  1.0000
  H   H181      1.0  0.02751  0.41588  0.51764  1.0000
  C   C102      1.0  0.23894  0.03432  0.53380  1.0000
  H   H182      1.0  0.22027  0.33743  0.51860  1.0000
  C   C103      1.0  0.21661  0.01463  0.53999  1.0000
  C   C104      1.0  0.23346  0.49065  0.76636  1.0000
  H   H183      1.0  0.28564  0.41259  0.83746  1.0000
  H   H184      1.0  0.21757  0.49102  0.59786  1.0000
  C   C105      1.0  0.30455  0.40341  0.83211  1.0000
  H   H185      1.0  0.21053  0.01852  0.56046  1.0000
  Fe  Fe9       1.0  0.29088  0.15447  0.50110  1.0000
  C   C106      1.0  0.22868  0.06217  0.52963  1.0000
  H   H186      1.0  0.25321  0.03501  0.55033  1.0000
  H   H187      1.0  0.29203  0.35151  0.81654  1.0000
  H   H188      1.0  0.02926  0.29102  0.50754  1.0000
  Fe  Fe10      1.0  0.08146  0.49429  0.67451  1.0000
  H   H189      1.0  0.06312  0.46696  0.75069  1.0000
  C   C107      1.0  0.99878  0.36049  0.54615  1.0000
  C   C108      1.0  0.06913  0.48019  0.76694  1.0000
  H   H190      1.0  0.32322  0.42010  0.88123  1.0000
  H   H191      1.0  0.23995  0.31932  0.54184  1.0000
  H   H192      1.0  0.01045  0.39043  0.49949  1.0000
  H   H193      1.0  0.23184  0.47881  0.72584  1.0000
  H   H194      1.0  0.31639  0.38325  0.92832  1.0000
  H   H195      1.0  0.20855  0.30655  0.53180  1.0000
  C   C109      1.0  0.23290  0.20352  0.50376  1.0000
  C   C110      1.0  0.30442  0.02689  0.50844  1.0000
  Fe  Fe11      1.0  0.11939  0.48652  0.62995  1.0000
  Fe  Fe12      1.0  0.30962  0.09676  0.50761  1.0000
  H   H196      1.0  0.09039  0.47744  0.77066  1.0000
  H   H197      1.0  0.32110  0.00338  0.53938  1.0000
  H   H198      1.0  0.01360  0.39214  0.58574  1.0000
  C   C111      1.0  0.23923  0.30263  0.50290  1.0000
  H   H199      1.0  0.19817  0.47922  0.99082  1.0000
  H   H200      1.0  0.15467  0.48555  0.96850  1.0000
  H   H201      1.0  0.25728  0.31332  0.49737  1.0000
  C   C112      1.0  0.14825  0.49677  0.98585  1.0000
  C   C113      1.0  0.18590  0.51573  0.21776  1.0000
  H   H202      1.0  0.31803  0.57813  0.19135  1.0000
  C   C114      1.0  0.22231  0.53669  0.08900  1.0000
  S   S26       1.0  0.29981  0.52781  0.04149  1.0000
  C   C115      1.0  0.03822  0.68153  0.39927  1.0000
  H   H203      1.0  0.03632  0.68751  0.41997  1.0000
  S   S27       1.0  0.29659  0.53711  0.11632  1.0000
  Fe  Fe13      1.0  0.11086  0.67400  0.45464  1.0000
  S   S28       1.0  0.09784  0.71424  0.46778  1.0000
  S   S29       1.0  0.10702  0.66040  0.41258  1.0000
  H   H204      1.0  0.22843  0.69005  0.47283  1.0000
  H   H205      1.0  0.24865  0.53607  0.24118  1.0000
  C   C116      1.0  0.03886  0.56669  0.37440  1.0000
  H   H206      1.0  0.04630  0.64190  0.41075  1.0000
  C   C117      1.0  0.00003  0.61353  0.36728  1.0000
  N   N7        1.0  0.28751  0.56364  0.21674  1.0000
  C   C118      1.0  0.20944  0.51577  0.04580  1.0000
  H   H207      1.0  0.31652  0.79192  0.45436  1.0000
  C   C119      1.0  0.19852  0.51949  0.19354  1.0000
  C   C120      1.0  0.24809  0.55121  0.28032  1.0000
  H   H208      1.0  0.24205  0.76640  0.45776  1.0000
  H   H209      1.0  0.20758  0.55245  0.08620  1.0000
  S   S30       1.0  0.30485  0.87395  0.45930  1.0000
  C   C121      1.0  0.21566  0.97975  0.46067  1.0000
  H   H210      1.0  0.30701  0.53394  0.19388  1.0000
  S   S31       1.0  0.04913  0.53658  0.30021  1.0000
  C   C122      1.0  0.23577  0.79609  0.48693  1.0000
  H   H211      1.0  0.05316  0.52874  0.38716  1.0000
  H   H212      1.0  0.01258  0.64848  0.40282  1.0000
  Fe  Fe14      1.0  0.13209  0.52440  0.34713  1.0000
  S   S32       1.0  0.14537  0.54558  0.38384  1.0000
  S   S33       1.0  0.12677  0.53963  0.30623  1.0000
  C   C123      1.0  0.01859  0.52002  0.29813  1.0000
  H   H213      1.0  0.09411  0.52200  0.48535  1.0000
  H   H214      1.0  0.24118  0.60303  0.15914  1.0000
  S   S34       1.0  0.14868  0.67555  0.47745  1.0000
  H   H215      1.0  0.03996  0.59981  0.39994  1.0000
  S   S35       1.0  0.09333  0.50414  0.34879  1.0000
  C   C124      1.0  0.11777  0.62845  0.40488  1.0000
  C   C125      1.0  0.11544  0.61943  0.37906  1.0000
  C   C126      1.0  0.12324  0.59385  0.37242  1.0000
  C   C127      1.0  0.13421  0.57740  0.39147  1.0000
  C   C128      1.0  0.13694  0.58655  0.41720  1.0000
  C   C129      1.0  0.12846  0.61186  0.42398  1.0000
  H   H216      1.0  0.10777  0.63240  0.36414  1.0000
  H   H217      1.0  0.12144  0.58712  0.35246  1.0000
  H   H218      1.0  0.14572  0.57408  0.43198  1.0000
  H   H219      1.0  0.13054  0.61868  0.44389  1.0000
  N   N8        1.0  0.21693  0.50407  0.01990  1.0000
  H   H220      1.0  0.08676  0.60677  0.28996  1.0000
  H   H221      1.0  0.23577  0.56852  0.24402  1.0000
  C   C130      1.0  0.23222  0.52694  0.06271  1.0000
  H   H222      1.0  0.09104  0.56956  0.44823  1.0000
  H   H223      1.0  0.25194  0.58261  0.13266  1.0000
  C   C131      1.0  0.22917  0.77314  0.47291  1.0000
  H   H224      1.0  0.27781  0.55519  0.16311  1.0000
  H   H225      1.0  0.02637  0.59149  0.32648  1.0000
  C   C132      1.0  0.25160  0.55523  0.25100  1.0000
  H   H226      1.0  0.02405  0.69713  0.46348  1.0000
  H   H227      1.0  0.16762  0.52553  0.22161  1.0000
  H   H228      1.0  0.30701  0.60133  0.21481  1.0000
  C   C133      1.0  0.09218  0.53024  0.46534  1.0000
  H   H229      1.0  0.05974  0.64462  0.36612  1.0000
  H   H230      1.0  0.23090  0.56908  0.15725  1.0000
  H   H231      1.0  0.30508  0.78572  0.37368  1.0000
  H   H232      1.0  0.26026  0.59426  0.20518  1.0000
  C   C134      1.0  0.29273  0.53519  0.21014  1.0000
  C   C135      1.0  0.03301  0.65207  0.39674  1.0000
  Fe  Fe15      1.0  0.14523  0.50149  0.29292  1.0000
  C   C136      1.0  0.31446  0.82808  0.40819  1.0000
  H   H233      1.0  0.07897  0.50106  0.41913  1.0000
  H   H234      1.0  0.05627  0.55414  0.41152  1.0000
  S   S36       1.0  0.26532  0.81339  0.47900  1.0000
  C   C137      1.0  0.29284  0.77191  0.41187  1.0000
  C   C138      1.0  0.29623  0.83828  0.38598  1.0000
  H   H235      1.0  0.21353  0.52028  0.10028  1.0000
  H   H236      1.0  0.24698  0.53271  0.01125  1.0000
  H   H237      1.0  0.01885  0.56163  0.38084  1.0000
  C   C139      1.0  0.31438  0.78142  0.39297  1.0000
  C   C140      1.0  0.27988  0.86150  0.39512  1.0000
  C   C141      1.0  0.31158  0.58016  0.21193  1.0000
  H   H238      1.0  0.16376  0.52290  0.01488  1.0000
  H   H239      1.0  0.30182  0.82439  0.42529  1.0000
  H   H240      1.0  0.19218  0.99529  0.49130  1.0000
  H   H241      1.0  0.02387  0.62574  0.32131  1.0000
  C   C142      1.0  0.22241  0.67629  0.48854  1.0000
  H   H242      1.0  0.20644  0.66358  0.48082  1.0000
  H   H243      1.0  0.26380  0.76198  0.38193  1.0000
  H   H244      1.0  0.23943  0.66385  0.49398  1.0000
  H   H245      1.0  0.28066  0.78821  0.41916  1.0000
  C   C143      1.0  0.09370  0.56014  0.46767  1.0000
  Fe  Fe16      1.0  0.28848  0.85009  0.49270  1.0000
  H   H246      1.0  0.28244  0.82273  0.37945  1.0000
  H   H247      1.0  0.19560  0.53232  0.04276  1.0000
  H   H248      1.0  0.20533  0.99130  0.44532  1.0000
  H   H249      1.0  0.02392  0.69287  0.38733  1.0000
  N   N9        1.0  0.02913  0.61506  0.36187  1.0000
  H   H250      1.0  0.28533  0.73519  0.39115  1.0000
  H   H251      1.0  0.13283  0.52534  0.45742  1.0000
  C   C144      1.0  0.21322  0.99349  0.48703  1.0000
  H   H252      1.0  0.31817  0.52656  0.24471  1.0000
  H   H253      1.0  0.28707  0.58936  0.16499  1.0000
  H   H254      1.0  0.16512  0.51398  0.43308  1.0000
  H   H255      1.0  0.26764  0.85578  0.41203  1.0000
  H   H256      1.0  0.29275  0.87821  0.40076  1.0000
  H   H257      1.0  0.26672  0.86811  0.37903  1.0000
  H   H258      1.0  0.24174  0.54378  0.05278  1.0000
  C   C145      1.0  0.29644  0.97855  0.48247  1.0000
  H   H259      1.0  0.04106  0.56124  0.35362  1.0000
  H   H260      1.0  0.30193  0.76146  0.42867  1.0000
  C   C146      1.0  0.11419  0.51970  0.44752  1.0000
  H   H261      1.0  0.07392  0.62854  0.33085  1.0000
  C   C147      1.0  0.00627  0.69749  0.47467  1.0000
  H   H262      1.0  0.11345  0.53112  0.42890  1.0000
  C   C148      1.0  0.30412  0.51190  0.01101  1.0000
  H   H263      1.0  0.25012  0.57015  0.29084  1.0000
  H   H264      1.0  0.30766  0.84522  0.36901  1.0000
  C   C149      1.0  0.03826  0.64257  0.36844  1.0000
  C   C150      1.0  0.22809  0.52550  0.00289  1.0000
  H   H265      1.0  0.05835  0.68646  0.39292  1.0000
  H   H266      1.0  0.07804  0.56728  0.48069  1.0000
  C   C151      1.0  0.27435  0.75241  0.39846  1.0000
  H   H267      1.0  0.07246  0.52529  0.45755  1.0000
  H   H268      1.0  0.24792  0.56171  0.20116  1.0000
  C   C152      1.0  0.27159  0.57484  0.16962  1.0000
  C   C153      1.0  0.05785  0.54979  0.39036  1.0000
  H   H269      1.0  0.29330  0.55972  0.25874  1.0000
  S   S37       1.0  0.08852  0.65216  0.48530  1.0000
  C   C154      1.0  0.24735  0.58289  0.15380  1.0000
  H   H270      1.0  0.07370  0.59327  0.33359  1.0000
  C   C155      1.0  0.17136  0.51140  0.99826  1.0000
  C   C156      1.0  0.19676  0.49905  0.23673  1.0000
  H   H271      1.0  0.05784  0.62658  0.28575  1.0000
  H   H272      1.0  0.24726  0.51189  0.06684  1.0000
  C   C157      1.0  0.20593  0.75893  0.47811  1.0000
  H   H273      1.0  0.23651  0.97796  0.45515  1.0000
  Fe  Fe17      1.0  0.30406  0.51011  0.08242  1.0000
  Fe  Fe18      1.0  0.08851  0.51690  0.30726  1.0000
  C   C158      1.0  0.06346  0.61047  0.32492  1.0000
  H   H274      1.0  0.19859  0.50119  0.05780  1.0000
  H   H275      1.0  0.30960  0.76889  0.16675  1.0000
  C   C159      1.0  0.22218  0.50671  0.18778  1.0000
  C   C160      1.0  0.06585  0.60865  0.29524  1.0000
  H   H276      1.0  0.27752  0.58875  0.24913  1.0000
  C   C161      1.0  0.04419  0.59620  0.37900  1.0000
  H   H277      1.0  0.99675  0.55505  0.30634  1.0000
  H   H278      1.0  0.02922  0.65694  0.35460  1.0000
  S   S38       1.0  0.28775  0.94856  0.46731  1.0000
  Fe  Fe19      1.0  0.30042  0.90949  0.48483  1.0000
  H   H279      1.0  0.06555  0.59976  0.37719  1.0000
  H   H280      1.0  0.27481  0.52556  0.20218  1.0000
  C   C162      1.0  0.26584  0.57402  0.19921  1.0000
  H   H281      1.0  0.25962  0.74536  0.41267  1.0000
  H   H282      1.0  0.07831  0.55339  0.38410  1.0000
  H   H283      1.0  0.23890  0.54476  0.10064  1.0000
  H   H284      1.0  0.20114  0.74156  0.46693  1.0000
  C   C163      1.0  0.03434  0.61062  0.33320  1.0000
  H   H285      1.0  0.05518  0.59126  0.28758  1.0000
  C   C164      1.0  0.27872  0.56741  0.24454  1.0000
  Fe  Fe20      1.0  0.27611  0.50318  0.13617  1.0000
  H   H286      1.0  0.26271  0.53702  0.28806  1.0000
  S   S39       1.0  0.23687  0.51203  0.15651  1.0000
  H   H287      1.0  0.21509  0.54298  0.00270  1.0000
  H   H288      1.0  0.18973  0.53230  0.17905  1.0000
  C   C165      1.0  0.30253  0.51724  0.23288  1.0000
  H   H289      1.0  0.22824  0.54311  0.28400  1.0000
  H   H290      1.0  0.32687  0.76401  0.38948  1.0000
  H   H291      1.0  0.32616  0.77210  0.13599  1.0000
  H   H292      1.0  0.28620  0.51252  0.24618  1.0000
  H   H293      1.0  0.32745  0.84459  0.41427  1.0000
  Fe  Fe21      1.0  0.13441  0.71414  0.49324  1.0000
  H   H294      1.0  0.11288  0.56632  0.47610  1.0000
  H   H295      1.0  0.99668  0.60844  0.38816  1.0000
  H   H296      1.0  0.20680  0.95983  0.46147  1.0000
  H   H297      1.0  0.32772  0.99586  0.42247  1.0000
  C   C166      1.0  0.32852  0.77393  0.15751  1.0000
  C   C167      1.0  0.99551  0.53442  0.30172  1.0000
  S   S40       1.0  0.15890  0.75063  0.50502  1.0000
  S   S41       1.0  0.28255  0.52720  0.87509  1.0000
  H   H298      1.0  0.24122  0.67963  0.56333  1.0000
  H   H299      1.0  0.28994  0.92883  0.56888  1.0000
  H   H300      1.0  0.03466  0.59132  0.57842  1.0000
  H   H301      1.0  0.25610  0.72651  0.60332  1.0000
  H   H302      1.0  0.02037  0.57189  0.83346  1.0000
  C   C168      1.0  0.21962  0.50101  0.78742  1.0000
  S   S42       1.0  0.14677  0.51764  0.64508  1.0000
  Fe  Fe22      1.0  0.12518  0.65653  0.50928  1.0000
  H   H303      1.0  0.02740  0.59567  0.80836  1.0000
  H   H304      1.0  0.19619  0.60310  0.60259  1.0000
  H   H305      1.0  0.16515  0.71221  0.59632  1.0000
  Fe  Fe23      1.0  0.11056  0.54088  0.65247  1.0000
  S   S43       1.0  0.10484  0.58376  0.64195  1.0000
  S   S44       1.0  0.10650  0.52553  0.69372  1.0000
  H   H306      1.0  0.17460  0.96395  0.51474  1.0000
  S   S45       1.0  0.11321  0.69474  0.52679  1.0000
  S   S46       1.0  0.14252  0.62134  0.53011  1.0000
  C   C169      1.0  0.20157  0.96939  0.54780  1.0000
  S   S47       1.0  0.28089  0.88654  0.51698  1.0000
  H   H307      1.0  0.04222  0.53208  0.70818  1.0000
  H   H308      1.0  0.01312  0.57026  0.69834  1.0000
  H   H309      1.0  0.19251  0.72478  0.54445  1.0000
  H   H310      1.0  0.27966  0.95483  0.59016  1.0000
  H   H311      1.0  0.01737  0.64250  0.50789  1.0000
  H   H312      1.0  0.07077  0.52127  0.77596  1.0000
  C   C170      1.0  0.11453  0.59380  0.61045  1.0000
  C   C171      1.0  0.10900  0.61942  0.60182  1.0000
  C   C172      1.0  0.11705  0.62799  0.57700  1.0000
  C   C173      1.0  0.13086  0.61104  0.56078  1.0000
  C   C174      1.0  0.13643  0.58549  0.56944  1.0000
  C   C175      1.0  0.12808  0.57680  0.59407  1.0000
  H   H313      1.0  0.09869  0.63271  0.61449  1.0000
  H   H314      1.0  0.11301  0.64781  0.57060  1.0000
  H   H315      1.0  0.14723  0.57232  0.55705  1.0000
  H   H316      1.0  0.13245  0.55704  0.60051  1.0000
  Fe  Fe24      1.0  0.32122  0.53827  0.85737  1.0000
  H   H317      1.0  0.00993  0.66338  0.55880  1.0000
  C   C176      1.0  0.24153  0.54166  0.95796  1.0000
  H   H318      1.0  0.05178  0.57164  0.81788  1.0000
  H   H319      1.0  0.13806  0.73991  0.56601  1.0000
  H   H320      1.0  0.18253  0.79716  0.52663  1.0000
  H   H321      1.0  0.07129  0.58461  0.69316  1.0000
  H   H322      1.0  0.99835  0.55983  0.79238  1.0000
  C   C177      1.0  0.07106  0.57707  0.54168  1.0000
  Fe  Fe25      1.0  0.27522  0.50395  0.83795  1.0000
  C   C178      1.0  0.19762  0.63857  0.57899  1.0000
  H   H323      1.0  0.32493  0.59104  0.94358  1.0000
  C   C179      1.0  0.19554  0.79025  0.51164  1.0000
  C   C180      1.0  0.03053  0.57501  0.81464  1.0000
  C   C181      1.0  0.05148  0.58001  0.68525  1.0000
  H   H324      1.0  0.27234  0.69514  0.60007  1.0000
  H   H325      1.0  0.29847  0.96226  0.56138  1.0000
  C   C182      1.0  0.22975  0.69281  0.60120  1.0000
  H   H326      1.0  0.07237  0.67229  0.56774  1.0000
  H   H327      1.0  0.06287  0.55197  0.72787  1.0000
  H   H328      1.0  0.30420  0.52717  0.94575  1.0000
  C   C183      1.0  0.28296  0.94944  0.56946  1.0000
  H   H329      1.0  0.03786  0.64978  0.54446  1.0000
  C   C184      1.0  0.21316  0.69190  0.51213  1.0000
  C   C185      1.0  0.18895  0.62361  0.60334  1.0000
  H   H330      1.0  0.22995  0.67234  0.60863  1.0000
  H   H331      1.0  0.01959  0.58077  0.54900  1.0000
  H   H332      1.0  0.08978  0.58102  0.53155  1.0000
  N   N10       1.0  0.19924  0.68586  0.56043  1.0000
  H   H333      1.0  0.21395  0.70324  0.61140  1.0000
  H   H334      1.0  0.24333  0.93845  0.56288  1.0000
  C   C186      1.0  0.00996  0.51456  0.66758  1.0000
  H   H335      1.0  0.25812  0.55242  0.96718  1.0000
  C   C187      1.0  0.22603  0.69311  0.57104  1.0000
  C   C188      1.0  0.25759  0.95183  0.55355  1.0000
  C   C189      1.0  0.17499  0.72508  0.58197  1.0000
  C   C190      1.0  0.15367  0.95665  0.54986  1.0000
  H   H336      1.0  0.05156  0.63480  0.59256  1.0000
  C   C191      1.0  0.01964  0.55598  0.79417  1.0000
  Fe  Fe26      1.0  0.07794  0.69212  0.50013  1.0000
  C   C192      1.0  0.20226  0.67359  0.53377  1.0000
  H   H337      1.0  0.05302  0.56336  0.67139  1.0000
  H   H338      1.0  0.03175  0.59068  0.72029  1.0000
  S   S48       1.0  0.32843  0.84360  0.51100  1.0000
  H   H339      1.0  0.04428  0.59741  0.67426  1.0000
  C   C193      1.0  0.02428  0.64707  0.56097  1.0000
  H   H340      1.0  0.25820  0.70440  0.63079  1.0000
  H   H341      1.0  0.23183  0.71292  0.56379  1.0000
  H   H342      1.0  0.02726  0.52372  0.65968  1.0000
  C   C194      1.0  0.15616  0.74751  0.57559  1.0000
  H   H343      1.0  0.19264  0.73412  0.59097  1.0000
  C   C195      1.0  0.30428  0.52713  0.98806  1.0000
  N   N11       1.0  0.01051  0.62089  0.55931  1.0000
  C   C196      1.0  0.02930  0.59801  0.55830  1.0000
  H   H344      1.0  0.02627  0.65680  0.60271  1.0000
  C   C197      1.0  0.05836  0.67565  0.58378  1.0000
  H   H345      1.0  0.19690  0.63308  0.62125  1.0000
  H   H346      1.0  0.17887  0.52530  0.98342  1.0000
  H   H347      1.0  0.15064  0.75774  0.59382  1.0000
  C   C198      1.0  0.05580  0.60265  0.54435  1.0000
  H   H348      1.0  0.22340  0.82198  0.51745  1.0000
  C   C199      1.0  0.19317  0.50785  0.78331  1.0000
  H   H349      1.0  0.24759  0.53527  0.93819  1.0000
  C   C200      1.0  0.03431  0.51325  0.75392  1.0000
  H   H350      1.0  0.25054  0.50363  0.97378  1.0000
  H   H351      1.0  0.13437  0.95851  0.53986  1.0000
  C   C201      1.0  0.30867  0.97910  0.50702  1.0000
  H   H352      1.0  0.16554  0.76201  0.56239  1.0000
  H   H353      1.0  0.04707  0.69378  0.57940  1.0000
  C   C202      1.0  0.03272  0.57334  0.70735  1.0000
  H   H354      1.0  0.20620  0.94818  0.54609  1.0000
  H   H355      1.0  0.16460  0.66345  0.56994  1.0000
  H   H356      1.0  0.05973  0.56251  0.53008  1.0000
  S   S49       1.0  0.03830  0.69942  0.51872  1.0000
  S   S50       1.0  0.08351  0.51129  0.63422  1.0000
  H   H357      1.0  0.07571  0.56873  0.56127  1.0000
  S   S51       1.0  0.31256  0.51767  0.81938  1.0000
  H   H358      1.0  0.06825  0.61635  0.55575  1.0000
  H   H359      1.0  0.05434  0.56153  0.77076  1.0000
  C   C203      1.0  0.03281  0.56036  0.76748  1.0000
  C   C204      1.0  0.25572  0.70551  0.60923  1.0000
  H   H360      1.0  0.21928  0.63965  0.57924  1.0000
  C   C205      1.0  0.30465  0.51520  0.96324  1.0000
  H   H361      1.0  0.24462  0.98693  0.57366  1.0000
  C   C206      1.0  0.00783  0.69865  0.50190  1.0000
  H   H362      1.0  0.16046  0.50993  0.75602  1.0000
  H   H363      1.0  0.01656  0.60723  0.50375  1.0000
  H   H364      1.0  0.19755  0.70540  0.50515  1.0000
  H   H365      1.0  0.00635  0.61680  0.60120  1.0000
  C   C207      1.0  0.06383  0.50878  0.75957  1.0000
  C   C208      1.0  0.18879  0.76746  0.49747  1.0000
  H   H366      1.0  0.02287  0.53585  0.80172  1.0000
  H   H367      1.0  0.21703  0.50834  0.96438  1.0000
  H   H368      1.0  0.16731  0.62301  0.60449  1.0000
  H   H369      1.0  0.22463  0.55516  0.95581  1.0000
  C   C209      1.0  0.18251  0.71003  0.55696  1.0000
  H   H370      1.0  0.05340  0.61128  0.52467  1.0000
  C   C210      1.0  0.23402  0.51767  0.97426  1.0000
  C   C211      1.0  0.18503  0.66626  0.57734  1.0000
  H   H371      1.0  0.16415  0.70480  0.54634  1.0000
  C   C212      1.0  0.18075  0.50455  0.75868  1.0000
  H   H372      1.0  0.18271  0.67365  0.59749  1.0000
  H   H373      1.0  0.18218  0.51582  0.79936  1.0000
  H   H374      1.0  0.26144  0.94476  0.53346  1.0000
  H   H375      1.0  0.06960  0.67859  0.60222  1.0000
  H   H376      1.0  0.18309  0.66582  0.52653  1.0000
  C   C213      1.0  0.21877  0.80445  0.50646  1.0000
  H   H377      1.0  0.21541  0.65625  0.53493  1.0000
  C   C214      1.0  0.04200  0.54847  0.72247  1.0000
  H   H378      1.0  0.31444  0.96090  0.51631  1.0000
  Fe  Fe27      1.0  0.32229  0.88139  0.53235  1.0000
  H   H379      1.0  0.26439  0.99246  0.54582  1.0000
  H   H380      1.0  0.19165  0.62689  0.56160  1.0000
  S   S52       1.0  0.23382  0.50494  0.81942  1.0000
  C   C215      1.0  0.03991  0.65220  0.58662  1.0000
  H   H381      1.0  0.02708  0.58044  0.76120  1.0000
  H   H382      1.0  0.22567  0.95709  0.50590  1.0000
  C   C216      1.0  0.00486  0.62475  0.50873  1.0000
  N   N12       1.0  0.02641  0.54079  0.74628  1.0000
  H   H383      1.0  0.30356  0.54829  0.98948  1.0000
  H   H384      1.0  0.22985  0.70388  0.51938  1.0000
  H   H385      1.0  0.15888  0.93550  0.55073  1.0000
  C   C217      1.0  0.99761  0.54146  0.73906  1.0000
  H   H386      1.0  0.02833  0.49940  0.73817  1.0000
  H   H387      1.0  0.16764  0.99284  0.53400  1.0000
  H   H388      1.0  0.07570  0.51307  0.74209  1.0000
  N   N13       1.0  0.22336  0.98597  0.53676  1.0000
  H   H389      1.0  0.13313  0.51108  0.97942  1.0000
  H   H390      1.0  0.24957  0.98188  0.50417  1.0000
  H   H391      1.0  0.15185  0.96435  0.57004  1.0000
  C   C218      1.0  0.17425  0.97218  0.53478  1.0000
  C   C219      1.0  0.24765  0.98064  0.55307  1.0000
  C   C220      1.0  0.22867  0.97859  0.50874  1.0000
  H   H392      1.0  0.20570  0.51256  0.62296  1.0000
  H   H393      1.0  0.02372  0.50631  0.77138  1.0000
  H   H394      1.0  0.19955  0.97341  0.56909  1.0000
  Fe  Fe28      1.0  0.14120  0.49956  0.68497  1.0000
  Fe  Fe29      1.0  0.47972  0.32336  0.08346  1.0000
  S   S53       1.0  0.48795  0.36622  0.08890  1.0000
  S   S54       1.0  0.46028  0.31232  0.04471  1.0000
  Fe  Fe30      1.0  0.49889  0.30886  0.13900  1.0000
  S   S55       1.0  0.50944  0.35125  0.14739  1.0000
  S   S56       1.0  0.50924  0.28000  0.17261  1.0000
  Fe  Fe31      1.0  0.47085  0.36120  0.12860  1.0000
  S   S57       1.0  0.44891  0.39475  0.14726  1.0000
  Fe  Fe32      1.0  0.52576  0.35317  0.10703  1.0000
  S   S58       1.0  0.56110  0.37551  0.09199  1.0000
  S   S59       1.0  0.45908  0.31912  0.12230  1.0000
  S   S60       1.0  0.51868  0.31012  0.09945  1.0000
  H   H395      1.0  0.44729  0.31213  0.29404  1.0000
  S   S61       1.0  0.61846  0.46183  0.16154  1.0000
  H   H396      1.0  0.61487  0.36710  0.01887  1.0000
  S   S62       1.0  0.58807  0.14263  0.45893  1.0000
  Fe  Fe33      1.0  0.47813  0.16409  0.28461  1.0000
  S   S63       1.0  0.49243  0.17820  0.32402  1.0000
  S   S64       1.0  0.46560  0.18855  0.24822  1.0000
  Fe  Fe34      1.0  0.47426  0.10630  0.30464  1.0000
  S   S65       1.0  0.48833  0.11633  0.34509  1.0000
  S   S66       1.0  0.45825  0.06619  0.29231  1.0000
  Fe  Fe35      1.0  0.46212  0.15149  0.34170  1.0000
  S   S67       1.0  0.44115  0.16556  0.37785  1.0000
  Fe  Fe36      1.0  0.51758  0.14205  0.32493  1.0000
  S   S68       1.0  0.56011  0.14354  0.33776  1.0000
  S   S69       1.0  0.44567  0.13993  0.30267  1.0000
  S   S70       1.0  0.50568  0.12939  0.28423  1.0000
  H   H397      1.0  0.43875  0.34280  0.30909  1.0000
  C   C221      1.0  0.44399  0.34526  0.26712  1.0000
  C   C222      1.0  0.41072  0.15272  0.38772  1.0000
  C   C223      1.0  0.39632  0.13518  0.37222  1.0000
  C   C224      1.0  0.37198  0.12572  0.38090  1.0000
  C   C225      1.0  0.36237  0.13307  0.40541  1.0000
  C   C226      1.0  0.37687  0.15049  0.42086  1.0000
  C   C227      1.0  0.40071  0.16056  0.41186  1.0000
  H   H398      1.0  0.40374  0.12924  0.35345  1.0000
  H   H399      1.0  0.36064  0.11261  0.36864  1.0000
  H   H400      1.0  0.36954  0.15652  0.43962  1.0000
  H   H401      1.0  0.41133  0.17466  0.42358  1.0000
  C   C228      1.0  0.49846  0.03246  0.30742  1.0000
  C   C229      1.0  0.47248  0.03503  0.29898  1.0000
  H   H402      1.0  0.44021  0.33925  0.17582  1.0000
  H   H403      1.0  0.51019  0.04984  0.31071  1.0000
  H   H404      1.0  0.43759  0.01392  0.28762  1.0000
  C   C230      1.0  0.58058  0.14364  0.42522  1.0000
  C   C231      1.0  0.55467  0.13943  0.41690  1.0000
  C   C232      1.0  0.54806  0.13996  0.39017  1.0000
  C   C233      1.0  0.56738  0.14449  0.37155  1.0000
  C   C234      1.0  0.59324  0.14897  0.37992  1.0000
  C   C235      1.0  0.59982  0.14865  0.40668  1.0000
  H   H405      1.0  0.53968  0.13560  0.43115  1.0000
  H   H406      1.0  0.52809  0.13652  0.38395  1.0000
  H   H407      1.0  0.60821  0.15282  0.36563  1.0000
  H   H408      1.0  0.61968  0.15263  0.41297  1.0000
  C   C236      1.0  0.49674  0.25421  0.19308  1.0000
  C   C237      1.0  0.47233  0.24231  0.18879  1.0000
  C   C238      1.0  0.46323  0.22246  0.20588  1.0000
  C   C239      1.0  0.47834  0.21394  0.22750  1.0000
  C   C240      1.0  0.50285  0.22564  0.23165  1.0000
  C   C241      1.0  0.51193  0.24551  0.21457  1.0000
  H   H409      1.0  0.46056  0.24813  0.17211  1.0000
  H   H410      1.0  0.44434  0.21352  0.20224  1.0000
  H   H411      1.0  0.51486  0.21936  0.24802  1.0000
  H   H412      1.0  0.53098  0.25419  0.21806  1.0000
  C   C242      1.0  0.41618  0.40206  0.13894  1.0000
  C   C243      1.0  0.39968  0.38322  0.12777  1.0000
  C   C244      1.0  0.37360  0.38962  0.12143  1.0000
  C   C245      1.0  0.36400  0.41498  0.12597  1.0000
  C   C246      1.0  0.38048  0.43376  0.13740  1.0000
  C   C247      1.0  0.40637  0.42719  0.14419  1.0000
  H   H413      1.0  0.40694  0.36365  0.12429  1.0000
  H   H414      1.0  0.36086  0.37495  0.11282  1.0000
  H   H415      1.0  0.37320  0.45330  0.14115  1.0000
  H   H416      1.0  0.41884  0.44173  0.15335  1.0000
  C   C248      1.0  0.57713  0.39906  0.11186  1.0000
  C   C249      1.0  0.59776  0.41388  0.10144  1.0000
  C   C250      1.0  0.61052  0.43319  0.11649  1.0000
  C   C251      1.0  0.60311  0.43744  0.14231  1.0000
  C   C252      1.0  0.58267  0.42248  0.15286  1.0000
  C   C253      1.0  0.56957  0.40347  0.13763  1.0000
  H   H417      1.0  0.60411  0.41039  0.08174  1.0000
  H   H418      1.0  0.62632  0.44455  0.10820  1.0000
  H   H419      1.0  0.57703  0.42560  0.17290  1.0000
  H   H420      1.0  0.55392  0.39197  0.14592  1.0000
  C   C254      1.0  0.47691  0.31205  0.01439  1.0000
  H   H421      1.0  0.43142  0.28836  0.20773  1.0000
  H   H422      1.0  0.41450  0.32505  0.29031  1.0000
  C   C255      1.0  0.64365  0.07115  0.38926  1.0000
  H   H423      1.0  0.51580  0.31231  0.03086  1.0000
  C   C256      1.0  0.44537  0.12487  0.45846  1.0000
  H   H424      1.0  0.51713  0.20651  0.39852  1.0000
  C   C257      1.0  0.49904  0.18977  0.43301  1.0000
  H   H425      1.0  0.37918  0.07106  0.38551  1.0000
  H   H426      1.0  0.35591  0.44175  0.06296  1.0000
  C   C258      1.0  0.57193  0.05608  0.37153  1.0000
  H   H427      1.0  0.48187  0.20608  0.39731  1.0000
  C   C259      1.0  0.44657  0.15177  0.47252  1.0000
  H   H428      1.0  0.49830  0.20909  0.44289  1.0000
  S   S71       1.0  0.33153  0.42268  0.11683  1.0000
  H   H429      1.0  0.58807  0.39972  0.04067  1.0000
  H   H430      1.0  0.39126  0.29585  0.18123  1.0000
  H   H431      1.0  0.65024  0.06258  0.37044  1.0000
  H   H432      1.0  0.49724  0.47949  0.09397  1.0000
  N   N14       1.0  0.47146  0.16752  0.46941  1.0000
  C   C260      1.0  0.59761  0.36413  0.00566  1.0000
  H   H433      1.0  0.47240  0.48967  0.15629  1.0000
  H   H434      1.0  0.55957  0.08074  0.33867  1.0000
  H   H435      1.0  0.44544  0.30827  0.24616  1.0000
  C   C261      1.0  0.43557  0.33033  0.29158  1.0000
  N   N15       1.0  0.61695  0.06054  0.39629  1.0000
  H   H436      1.0  0.54443  0.08862  0.36942  1.0000
  C   C262      1.0  0.61787  0.03110  0.39287  1.0000
  H   H437      1.0  0.44352  0.42041  0.20270  1.0000
  C   C263      1.0  0.40567  0.35369  0.06458  1.0000
  C   C264      1.0  0.39265  0.32819  0.07343  1.0000
  H   H438      1.0  0.44235  0.14795  0.49339  1.0000
  H   H439      1.0  0.39700  0.36985  0.07587  1.0000
  C   C265      1.0  0.40929  0.40645  0.03929  1.0000
  S   S72       1.0  0.33231  0.12029  0.41642  1.0000
  H   H440      1.0  0.39596  0.32537  0.09472  1.0000
  H   H441      1.0  0.37124  0.32883  0.06958  1.0000
  H   H442      1.0  0.40122  0.31114  0.06311  1.0000
  C   C266      1.0  0.41014  0.29197  0.17147  1.0000
  N   N16       1.0  0.50823  0.48204  0.13507  1.0000
  H   H443      1.0  0.36933  0.39702  0.05289  1.0000
  H   H444      1.0  0.62230  0.02637  0.37213  1.0000
  S   S73       1.0  0.34725  0.10486  0.48732  1.0000
  N   N17       1.0  0.41476  0.38218  0.02350  1.0000
  C   C267      1.0  0.38934  0.06233  0.40270  1.0000
  H   H445      1.0  0.56674  0.47576  0.12791  1.0000
  H   H446      1.0  0.50006  0.17614  0.39263  1.0000
  H   H447      1.0  0.42667  0.35242  0.06988  1.0000
  C   C268      1.0  0.41870  0.06548  0.39836  1.0000
  H   H448      1.0  0.49104  0.37207  0.99671  1.0000
  H   H449      1.0  0.39693  0.02255  0.41596  1.0000
  S   S74       1.0  0.34279  0.49648  0.09849  1.0000
  H   H450      1.0  0.41065  0.42242  0.21475  1.0000
  H   H451      1.0  0.34791  0.05779  0.44729  1.0000
  H   H452      1.0  0.61063  0.08994  0.42607  1.0000
  C   C269      1.0  0.55338  0.48303  0.11228  1.0000
  H   H453      1.0  0.38000  0.35889  0.03106  1.0000
  C   C270      1.0  0.38119  0.03304  0.40530  1.0000
  H   H454      1.0  0.38390  0.07389  0.42014  1.0000
  H   H455      1.0  0.54630  0.46591  0.10089  1.0000
  C   C271      1.0  0.59688  0.07251  0.37781  1.0000
  C   C272      1.0  0.43307  0.29968  0.18928  1.0000
  C   C273      1.0  0.46105  0.39875  0.01082  1.0000
  H   H456      1.0  0.57738  0.30184  0.02705  1.0000
  H   H457      1.0  0.42465  0.05504  0.38035  1.0000
  H   H458      1.0  0.53747  0.45415  0.04706  1.0000
  H   H459      1.0  0.42998  0.05776  0.41534  1.0000
  N   N18       1.0  0.45079  0.33860  0.21699  1.0000
  C   C274      1.0  0.45264  0.36815  0.21552  1.0000
  C   C275      1.0  0.47767  0.32705  0.21327  1.0000
  H   H460      1.0  0.53436  0.05983  0.35177  1.0000
  H   H461      1.0  0.50169  0.40559  0.00092  1.0000
  H   H462      1.0  0.65151  0.47231  0.99693  1.0000
  C   C276      1.0  0.49927  0.33528  0.23307  1.0000
  C   C277      1.0  0.52598  0.32491  0.22494  1.0000
  H   H463      1.0  0.41319  0.33598  0.19712  1.0000
  C   C278      1.0  0.43887  0.32875  0.24211  1.0000
  H   H464      1.0  0.46428  0.37406  0.19816  1.0000
  H   H465      1.0  0.46361  0.37632  0.23241  1.0000
  H   H466      1.0  0.47697  0.30524  0.21436  1.0000
  H   H467      1.0  0.48471  0.33175  0.19332  1.0000
  H   H468      1.0  0.63344  0.10902  0.37052  1.0000
  C   C279      1.0  0.45765  0.01217  0.29430  1.0000
  H   H469      1.0  0.57707  0.03928  0.35876  1.0000
  H   H470      1.0  0.46479  0.35068  0.26967  1.0000
  H   H471      1.0  0.45754  0.18072  0.43156  1.0000
  H   H472      1.0  0.61032  0.31436  0.02493  1.0000
  H   H473      1.0  0.50112  0.35687  0.23466  1.0000
  H   H474      1.0  0.49514  0.32666  0.25250  1.0000
  H   H475      1.0  0.53128  0.33238  0.20528  1.0000
  H   H476      1.0  0.54120  0.33140  0.23916  1.0000
  H   H477      1.0  0.52586  0.30312  0.22456  1.0000
  C   C280      1.0  0.42614  0.38287  0.21352  1.0000
  C   C281      1.0  0.35369  0.03675  0.44569  1.0000
  C   C282      1.0  0.61163  0.06823  0.42418  1.0000
  C   C283      1.0  0.48950  0.38971  0.00935  1.0000
  H   H478      1.0  0.40841  0.34017  0.02504  1.0000
  H   H479      1.0  0.43737  0.41661  0.23733  1.0000
  C   C284      1.0  0.47549  0.17199  0.44051  1.0000
  C   C285      1.0  0.50422  0.31220  0.01305  1.0000
  N   N19       1.0  0.35478  0.02832  0.41742  1.0000
  H   H480      1.0  0.42350  0.08665  0.39597  1.0000
  N   N20       1.0  0.46847  0.10668  0.20697  1.0000
  C   C286      1.0  0.47297  0.09864  0.17902  1.0000
  C   C287      1.0  0.47620  0.08473  0.22558  1.0000
  C   C288      1.0  0.43949  0.11148  0.20994  1.0000
  C   C289      1.0  0.48266  0.13177  0.21382  1.0000
  C   C290      1.0  0.51255  0.13221  0.20954  1.0000
  C   C291      1.0  0.46553  0.11917  0.15776  1.0000
  C   C292      1.0  0.43022  0.11794  0.23798  1.0000
  C   C293      1.0  0.49929  0.06682  0.21762  1.0000
  C   C294      1.0  0.50737  0.04855  0.23999  1.0000
  C   C295      1.0  0.52379  0.15966  0.21426  1.0000
  C   C296      1.0  0.47330  0.10969  0.13063  1.0000
  C   C297      1.0  0.40043  0.11954  0.23913  1.0000
  H   H481      1.0  0.46183  0.08027  0.17470  1.0000
  H   H482      1.0  0.49375  0.09363  0.17579  1.0000
  H   H483      1.0  0.48069  0.09277  0.24533  1.0000
  H   H484      1.0  0.45949  0.07096  0.22866  1.0000
  H   H485      1.0  0.42818  0.09406  0.20296  1.0000
  H   H486      1.0  0.43303  0.12837  0.19772  1.0000
  H   H487      1.0  0.47383  0.14881  0.20334  1.0000
  H   H488      1.0  0.47997  0.13637  0.23476  1.0000
  H   H489      1.0  0.51770  0.12655  0.18939  1.0000
  H   H490      1.0  0.52234  0.11888  0.22371  1.0000
  H   H491      1.0  0.44412  0.12257  0.15719  1.0000
  H   H492      1.0  0.47563  0.13816  0.16125  1.0000
  H   H493      1.0  0.43802  0.13724  0.24429  1.0000
  H   H494      1.0  0.43658  0.10290  0.25235  1.0000
  H   H495      1.0  0.49331  0.05425  0.20087  1.0000
  H   H496      1.0  0.51673  0.07821  0.21184  1.0000
  C   C298      1.0  0.58493  0.06338  0.46532  1.0000
  H   H497      1.0  0.51381  0.06009  0.25730  1.0000
  H   H498      1.0  0.56902  0.06791  0.42685  1.0000
  H   H499      1.0  0.52000  0.16609  0.23458  1.0000
  H   H500      1.0  0.54527  0.15950  0.21133  1.0000
  H   H501      1.0  0.51497  0.17407  0.20044  1.0000
  H   H502      1.0  0.46744  0.12453  0.11576  1.0000
  H   H503      1.0  0.49482  0.10700  0.12960  1.0000
  H   H504      1.0  0.46336  0.09085  0.12588  1.0000
  H   H505      1.0  0.39145  0.10036  0.23389  1.0000
  H   H506      1.0  0.39451  0.12458  0.25932  1.0000
  H   H507      1.0  0.39300  0.13502  0.22568  1.0000
  H   H508      1.0  0.37020  0.41716  0.02404  1.0000
  H   H509      1.0  0.38159  0.02457  0.38524  1.0000
  C   C299      1.0  0.51963  0.46270  0.15448  1.0000
  H   H510      1.0  0.45127  0.37531  0.04411  1.0000
  C   C300      1.0  0.49525  0.46793  0.11234  1.0000
  H   H511      1.0  0.49727  0.38479  0.02912  1.0000
  H   H512      1.0  0.63307  0.01872  0.43141  1.0000
  H   H513      1.0  0.41821  0.42396  0.02987  1.0000
  C   C301      1.0  0.50017  0.44316  0.16698  1.0000
  C   C302      1.0  0.51321  0.42706  0.18869  1.0000
  C   C303      1.0  0.45632  0.44345  0.09272  1.0000
  C   C304      1.0  0.64600  0.10142  0.38661  1.0000
  C   C305      1.0  0.40147  0.35830  0.03487  1.0000
  H   H514      1.0  0.51292  0.16556  0.47805  1.0000
  H   H515      1.0  0.46071  0.41709  0.02246  1.0000
  H   H516      1.0  0.53453  0.45011  0.14511  1.0000
  H   H517      1.0  0.53021  0.47338  0.17041  1.0000
  H   H518      1.0  0.45976  0.20851  0.46840  1.0000
  H   H519      1.0  0.62028  0.41217  0.00733  1.0000
  H   H520      1.0  0.46248  0.11255  0.46366  1.0000
  H   H521      1.0  0.50554  0.44908  0.10851  1.0000
  H   H522      1.0  0.49914  0.13544  0.46813  1.0000
  H   H523      1.0  0.46091  0.45212  0.13340  1.0000
  C   C306      1.0  0.37919  0.03388  0.46229  1.0000
  C   C307      1.0  0.57973  0.34360  0.01919  1.0000
  H   H524      1.0  0.59065  0.09209  0.38509  1.0000
  C   C308      1.0  0.59029  0.31574  0.01644  1.0000
  H   H525      1.0  0.48317  0.45319  0.17561  1.0000
  H   H526      1.0  0.49329  0.42906  0.15194  1.0000
  H   H527      1.0  0.49873  0.41319  0.19706  1.0000
  H   H528      1.0  0.52965  0.41542  0.18085  1.0000
  H   H529      1.0  0.52062  0.44006  0.20452  1.0000
  H   H530      1.0  0.38658  0.43510  0.07913  1.0000
  H   H531      1.0  0.39019  0.01585  0.45785  1.0000
  H   H532      1.0  0.48831  0.20231  0.48742  1.0000
  H   H533      1.0  0.41722  0.38008  0.19385  1.0000
  C   C309      1.0  0.37998  0.41320  0.04308  1.0000
  H   H534      1.0  0.52383  0.03591  0.23385  1.0000
  H   H535      1.0  0.33081  0.49478  0.21074  1.0000
  H   H536      1.0  0.49077  0.03566  0.24557  1.0000
  C   C310      1.0  0.49948  0.19491  0.40359  1.0000
  Fe  Fe37      1.0  0.62994  0.13825  0.47331  1.0000
  H   H537      1.0  0.57739  0.44312  0.02304  1.0000
  H   H538      1.0  0.33789  0.02582  0.45576  1.0000
  C   C311      1.0  0.42976  0.41239  0.21739  1.0000
  H   H539      1.0  0.43263  0.36376  0.26630  1.0000
  H   H540      1.0  0.44460  0.12757  0.43694  1.0000
  H   H541      1.0  0.51783  0.18020  0.43826  1.0000
  C   C312      1.0  0.57316  0.40016  0.02465  1.0000
  C   C313      1.0  0.54555  0.43398  0.04818  1.0000
  H   H542      1.0  0.45387  0.47990  0.11326  1.0000
  H   H543      1.0  0.45132  0.29381  0.17937  1.0000
  H   H544      1.0  0.33677  0.03969  0.38050  1.0000
  H   H545      1.0  0.41888  0.40509  0.05891  1.0000
  H   H546      1.0  0.41205  0.37545  0.22812  1.0000
  H   H547      1.0  0.58385  0.03627  0.43357  1.0000
  H   H548      1.0  0.55957  0.34412  0.01107  1.0000
  H   H549      1.0  0.57858  0.34797  0.04041  1.0000
  H   H550      1.0  0.33895  0.06540  0.40381  1.0000
  H   H551      1.0  0.41987  0.09090  0.45515  1.0000
  H   H552      1.0  0.56268  0.04806  0.38926  1.0000
  H   H553      1.0  0.38279  0.38686  0.99592  1.0000
  N   N21       1.0  0.58483  0.39014  0.99955  1.0000
  H   H554      1.0  0.62822  0.06235  0.43718  1.0000
  H   H555      1.0  0.41078  0.30310  0.15280  1.0000
  H   H556      1.0  0.41125  0.27068  0.16699  1.0000
  H   H557      1.0  0.46638  0.42420  0.09421  1.0000
  H   H558      1.0  0.60567  0.07633  0.35832  1.0000
  C   C314      1.0  0.44384  0.37739  0.02377  1.0000
  H   H559      1.0  0.39235  0.05078  0.45846  1.0000
  C   C315      1.0  0.55141  0.07238  0.35694  1.0000
  C   C316      1.0  0.37699  0.43781  0.05976  1.0000
  C   C317      1.0  0.43379  0.32967  0.19432  1.0000
  H   H560      1.0  0.47864  0.15310  0.43018  1.0000
  H   H561      1.0  0.55819  0.43255  0.06589  1.0000
  H   H562      1.0  0.59063  0.30988  0.99556  1.0000
  H   H563      1.0  0.41719  0.32724  0.24018  1.0000
  H   H564      1.0  0.52910  0.41984  0.05007  1.0000
  H   H565      1.0  0.38569  0.45515  0.04990  1.0000
  C   C318      1.0  0.46869  0.19412  0.48231  1.0000
  C   C319      1.0  0.37347  0.03329  0.49152  1.0000
  C   C320      1.0  0.33499  0.04402  0.40175  1.0000
  H   H566      1.0  0.42086  0.10527  0.48733  1.0000
  C   C321      1.0  0.50954  0.00731  0.31070  1.0000
  H   H567      1.0  0.64036  0.11117  0.40491  1.0000
  H   H568      1.0  0.52979  0.00554  0.31672  1.0000
  H   H569      1.0  0.40295  0.12117  0.46118  1.0000
  Fe  Fe38      1.0  0.64906  0.48712  0.14200  1.0000
  H   H570      1.0  0.55713  0.38693  0.03125  1.0000
  C   C322      1.0  0.58595  0.05776  0.43605  1.0000
  H   H571      1.0  0.43497  0.43993  0.09453  1.0000
  C   C323      1.0  0.42075  0.10965  0.46606  1.0000
  C   C324      1.0  0.63776  0.01615  0.41045  1.0000
  C   C325      1.0  0.46561  0.46166  0.11464  1.0000
  C   C326      1.0  0.56148  0.42825  0.02374  1.0000
  H   H572      1.0  0.46009  0.45235  0.07331  1.0000
  H   H573      1.0  0.42957  0.16344  0.46529  1.0000
  C   C327      1.0  0.49509  0.15319  0.48002  1.0000
  H   H574      1.0  0.44824  0.35835  0.01442  1.0000
  C   C328      1.0  0.34759  0.99965  0.41466  1.0000
  H   H575      1.0  0.59860  0.02189  0.39654  1.0000
  H   H576      1.0  0.56632  0.05578  0.47339  1.0000
  H   H577      1.0  0.58582  0.08486  0.46885  1.0000
  C   C329      1.0  0.40454  0.38627  0.99602  1.0000
  H   H578      1.0  0.65804  0.02300  0.40713  1.0000
  H   H579      1.0  0.54849  0.43087  0.00646  1.0000
  H   H580      1.0  0.60148  0.05371  0.47575  1.0000
  H   H581      1.0  0.65850  0.06537  0.40426  1.0000
  H   H582      1.0  0.58613  0.48898  0.08644  1.0000
  Fe  Fe39      1.0  0.49985  0.31718  0.89529  1.0000
  S   S75       1.0  0.49482  0.35983  0.88578  1.0000
  S   S76       1.0  0.51850  0.30845  0.93501  1.0000
  Fe  Fe40      1.0  0.47961  0.29922  0.84093  1.0000
  S   S77       1.0  0.47223  0.34123  0.82853  1.0000
  S   S78       1.0  0.46569  0.26819  0.81089  1.0000
  Fe  Fe41      1.0  0.51143  0.34999  0.84681  1.0000
  S   S79       1.0  0.53748  0.37780  0.82420  1.0000
  Fe  Fe42      1.0  0.45620  0.34770  0.86854  1.0000
  S   S80       1.0  0.42159  0.37166  0.88200  1.0000
  S   S81       1.0  0.51997  0.30795  0.85715  1.0000
  S   S82       1.0  0.46013  0.30520  0.88012  1.0000
  S   S83       1.0  0.36044  0.45789  0.81679  1.0000
  S   S84       1.0  0.63728  0.42586  0.88172  1.0000
  Fe  Fe43      1.0  0.50449  0.10121  0.67577  1.0000
  S   S85       1.0  0.48933  0.11320  0.63640  1.0000
  S   S86       1.0  0.52014  0.05987  0.68242  1.0000
  Fe  Fe44      1.0  0.50060  0.15772  0.69806  1.0000
  S   S87       1.0  0.48497  0.17366  0.65978  1.0000
  S   S88       1.0  0.51390  0.18077  0.73475  1.0000
  Fe  Fe45      1.0  0.46038  0.13697  0.65842  1.0000
  S   S89       1.0  0.41793  0.13456  0.64609  1.0000
  Fe  Fe46      1.0  0.51530  0.14849  0.64035  1.0000
  S   S90       1.0  0.53508  0.16200  0.60320  1.0000
  S   S91       1.0  0.47352  0.12249  0.69814  1.0000
  S   S92       1.0  0.53291  0.13506  0.67832  1.0000
  C   C330      1.0  0.56931  0.08257  0.53386  1.0000
  H   H583      1.0  0.43327  0.07482  0.62645  1.0000
  C   C331      1.0  0.41054  0.13946  0.61266  1.0000
  C   C332      1.0  0.38437  0.13884  0.60416  1.0000
  C   C333      1.0  0.37795  0.14221  0.57756  1.0000
  C   C334      1.0  0.39769  0.14639  0.55930  1.0000
  C   C335      1.0  0.42388  0.14693  0.56782  1.0000
  C   C336      1.0  0.43031  0.14345  0.59439  1.0000
  H   H584      1.0  0.36897  0.13585  0.61818  1.0000
  H   H585      1.0  0.35772  0.14189  0.57126  1.0000
  H   H586      1.0  0.43927  0.15006  0.55387  1.0000
  H   H587      1.0  0.45054  0.14409  0.60073  1.0000
  C   C337      1.0  0.56641  0.15113  0.59409  1.0000
  C   C338      1.0  0.57384  0.15363  0.56790  1.0000
  C   C339      1.0  0.59912  0.14665  0.56004  1.0000
  C   C340      1.0  0.61735  0.13764  0.57848  1.0000
  C   C341      1.0  0.60992  0.13490  0.60466  1.0000
  C   C342      1.0  0.58441  0.14136  0.61243  1.0000
  H   H588      1.0  0.56005  0.16128  0.55365  1.0000
  H   H589      1.0  0.60456  0.14873  0.53979  1.0000
  H   H590      1.0  0.62397  0.12797  0.61902  1.0000
  H   H591      1.0  0.57888  0.13951  0.63268  1.0000
  C   C343      1.0  0.47428  0.03048  0.68470  1.0000
  C   C344      1.0  0.50148  0.03042  0.68201  1.0000
  C   C345      1.0  0.62050  0.40320  0.96588  1.0000
  H   H592      1.0  0.46408  0.04894  0.68644  1.0000
  C   C346      1.0  0.51474  0.48987  0.87232  1.0000
  C   C347      1.0  0.47970  0.24402  0.78988  1.0000
  C   C348      1.0  0.46458  0.23404  0.76894  1.0000
  C   C349      1.0  0.47478  0.21520  0.75155  1.0000
  C   C350      1.0  0.50030  0.20583  0.75495  1.0000
  C   C351      1.0  0.51544  0.21586  0.77585  1.0000
  C   C352      1.0  0.50525  0.23473  0.79320  1.0000
  H   H593      1.0  0.44473  0.24088  0.76616  1.0000
  H   H594      1.0  0.46273  0.20765  0.73576  1.0000
  H   H595      1.0  0.53510  0.20863  0.77895  1.0000
  H   H596      1.0  0.51694  0.24160  0.80951  1.0000
  C   C353      1.0  0.40712  0.39716  0.86369  1.0000
  C   C354      1.0  0.41088  0.39973  0.83680  1.0000
  C   C355      1.0  0.39668  0.41866  0.82251  1.0000
  C   C356      1.0  0.37903  0.43529  0.83514  1.0000
  C   C357      1.0  0.37619  0.43346  0.86215  1.0000
  C   C358      1.0  0.39019  0.41444  0.87635  1.0000
  H   H597      1.0  0.42394  0.38647  0.82690  1.0000
  H   H598      1.0  0.39897  0.42006  0.80157  1.0000
  H   H599      1.0  0.36279  0.44633  0.87205  1.0000
  H   H600      1.0  0.38740  0.41270  0.89721  1.0000
  C   C359      1.0  0.56552  0.39054  0.84011  1.0000
  C   C360      1.0  0.57982  0.41072  0.82813  1.0000
  C   C361      1.0  0.60178  0.42184  0.84075  1.0000
  C   C362      1.0  0.60987  0.41245  0.86521  1.0000
  C   C363      1.0  0.59577  0.39196  0.87699  1.0000
  C   C364      1.0  0.57349  0.38124  0.86463  1.0000
  H   H601      1.0  0.57385  0.41789  0.80908  1.0000
  H   H602      1.0  0.61269  0.43740  0.83140  1.0000
  H   H603      1.0  0.60205  0.38444  0.89581  1.0000
  H   H604      1.0  0.56272  0.36551  0.87386  1.0000
  C   C365      1.0  0.47459  0.31136  0.96652  1.0000
  C   C366      1.0  0.50189  0.31070  0.96521  1.0000
  H   H605      1.0  0.55009  0.35592  0.91997  1.0000
  H   H606      1.0  0.46303  0.31083  0.94870  1.0000
  H   H607      1.0  0.33042  0.41577  0.92835  1.0000
  H   H608      1.0  0.63672  0.18801  0.58790  1.0000
  H   H609      1.0  0.64067  0.07909  0.59825  1.0000
  H   H610      1.0  0.36583  0.05980  0.63938  1.0000
  H   H611      1.0  0.50744  0.48379  0.89184  1.0000
  H   H612      1.0  0.40151  0.06122  0.54463  1.0000
  H   H613      1.0  0.51625  0.39238  0.76864  1.0000
  H   H614      1.0  0.59543  0.46352  0.93053  1.0000
  H   H615      1.0  0.34980  0.38455  0.84298  1.0000
  C   C367      1.0  0.54763  0.37160  0.93476  1.0000
  H   H616      1.0  0.48927  0.16850  0.79501  1.0000
  C   C368      1.0  0.46813  0.02937  0.75431  1.0000
  H   H617      1.0  0.58183  0.08138  0.60296  1.0000
  H   H618      1.0  0.40132  0.03270  0.58355  1.0000
  H   H619      1.0  0.51807  0.12407  0.53773  1.0000
  C   C369      1.0  0.51657  0.31100  0.98858  1.0000
  H   H620      1.0  0.36647  0.06054  0.55011  1.0000
  H   H621      1.0  0.35724  0.07979  0.68391  1.0000
  H   H622      1.0  0.56471  0.09807  0.54832  1.0000
  N   N22       1.0  0.61947  0.04697  0.57974  1.0000
  C   C370      1.0  0.34165  0.34941  0.82027  1.0000
  H   H623      1.0  0.62971  0.38356  0.96672  1.0000
  H   H624      1.0  0.37914  0.10598  0.67460  1.0000
  C   C371      1.0  0.60562  0.21544  0.58336  1.0000
  H   H625      1.0  0.44266  0.29254  0.75241  1.0000
  H   H626      1.0  0.48584  0.44542  0.87728  1.0000
  C   C372      1.0  0.37797  0.08636  0.68400  1.0000
  H   H627      1.0  0.50411  0.45889  0.83128  1.0000
  H   H628      1.0  0.54840  0.31534  0.80081  1.0000
  H   H629      1.0  0.53701  0.28455  0.67532  1.0000
  H   H630      1.0  0.56031  0.40734  0.96943  1.0000
  H   H631      1.0  0.54018  0.05467  0.83736  1.0000
  H   H632      1.0  0.34173  0.35612  0.86125  1.0000
  H   H633      1.0  0.48436  0.06043  0.61866  1.0000
  H   H634      1.0  0.58478  0.28386  0.79654  1.0000
  H   H635      1.0  0.38925  0.08477  0.63276  1.0000
  H   H636      1.0  0.47308  0.00935  0.74738  1.0000
  H   H637      1.0  0.64171  0.20503  0.54354  1.0000
  C   C373      1.0  0.39975  0.37051  0.94918  1.0000
  C   C374      1.0  0.53005  0.38912  0.75236  1.0000
  H   H638      1.0  0.53819  0.36064  0.72273  1.0000
  H   H639      1.0  0.56207  0.25660  0.79842  1.0000
  C   C375      1.0  0.56719  0.46991  0.89914  1.0000
  H   H640      1.0  0.50461  0.36221  0.73230  1.0000
  C   C376      1.0  0.44828  0.04443  0.60184  1.0000
  H   H641      1.0  0.38046  0.36335  0.81016  1.0000
  N   N23       1.0  0.50989  0.09211  0.76900  1.0000
  C   C377      1.0  0.48647  0.07532  0.76202  1.0000
  C   C378      1.0  0.50129  0.12035  0.77134  1.0000
  C   C379      1.0  0.52869  0.09067  0.74645  1.0000
  C   C380      1.0  0.52386  0.08306  0.79361  1.0000
  C   C381      1.0  0.50691  0.07013  0.81519  1.0000
  H   H642      1.0  0.59573  0.20728  0.60083  1.0000
  C   C382      1.0  0.55278  0.10923  0.74790  1.0000
  C   C383      1.0  0.48130  0.12654  0.79294  1.0000
  C   C384      1.0  0.47243  0.15512  0.79147  1.0000
  C   C385      1.0  0.47704  0.04192  0.60992  1.0000
  H   H643      1.0  0.49050  0.12383  0.81247  1.0000
  C   C386      1.0  0.57414  0.10050  0.72916  1.0000
  H   H644      1.0  0.55798  0.48663  0.90917  1.0000
  C   C387      1.0  0.49669  0.43279  0.86353  1.0000
  H   H645      1.0  0.51829  0.13346  0.77541  1.0000
  H   H646      1.0  0.49294  0.12728  0.75236  1.0000
  H   H647      1.0  0.51833  0.09502  0.72767  1.0000
  H   H648      1.0  0.53640  0.07037  0.74440  1.0000
  H   H649      1.0  0.53921  0.06835  0.78895  1.0000
  H   H650      1.0  0.53473  0.09980  0.80261  1.0000
  H   H651      1.0  0.58421  0.04332  0.53260  1.0000
  C   C388      1.0  0.60107  0.04260  0.60226  1.0000
  H   H652      1.0  0.55461  0.05149  0.62978  1.0000
  H   H653      1.0  0.40510  0.35463  0.93541  1.0000
  H   H654      1.0  0.56142  0.10985  0.76784  1.0000
  H   H655      1.0  0.54691  0.12947  0.74223  1.0000
  H   H656      1.0  0.52712  0.37087  0.94169  1.0000
  H   H657      1.0  0.58269  0.09089  0.51905  1.0000
  H   H658      1.0  0.45759  0.15894  0.80665  1.0000
  H   H659      1.0  0.37810  0.37107  0.95051  1.0000
  H   H660      1.0  0.50762  0.41775  0.87494  1.0000
  Fe  Fe47      1.0  0.34940  0.14178  0.51073  1.0000
  C   C389      1.0  0.38714  0.06446  0.64053  1.0000
  H   H661      1.0  0.40556  0.34528  0.98219  1.0000
  H   H662      1.0  0.59668  0.20627  0.56573  1.0000
  C   C390      1.0  0.64432  0.05891  0.59091  1.0000
  C   C391      1.0  0.51598  0.44907  0.84676  1.0000
  H   H663      1.0  0.58246  0.08138  0.73552  1.0000
  H   H664      1.0  0.56616  0.09836  0.70901  1.0000
  H   H665      1.0  0.59009  0.11533  0.72889  1.0000
  H   H666      1.0  0.55040  0.39032  0.76014  1.0000
  C   C392      1.0  0.49266  0.04656  0.75431  1.0000
  C   C393      1.0  0.56673  0.36696  0.95744  1.0000
  H   H667      1.0  0.52720  0.40494  0.73766  1.0000
  H   H668      1.0  0.46445  0.40554  0.85901  1.0000
  C   C394      1.0  0.46220  0.31151  0.99100  1.0000
  C   C395      1.0  0.37100  0.34507  0.81715  1.0000
  H   H669      1.0  0.53762  0.30977  0.98772  1.0000
  C   C396      1.0  0.41223  0.36500  0.97587  1.0000
  H   H670      1.0  0.62202  0.06817  0.54319  1.0000
  H   H671      1.0  0.56705  0.46434  0.83787  1.0000
  H   H672      1.0  0.38474  0.08833  0.70459  1.0000
  H   H673      1.0  0.52857  0.08629  0.84842  1.0000
  C   C397      1.0  0.38499  0.07133  0.55419  1.0000
  H   H674      1.0  0.56637  0.07925  0.64813  1.0000
  H   H675      1.0  0.39530  0.47753  0.89316  1.0000
  H   H676      1.0  0.65654  0.24659  0.51386  1.0000
  H   H677      1.0  0.42606  0.47683  0.91050  1.0000
  H   H678      1.0  0.49507  0.16291  0.52165  1.0000
  H   H679      1.0  0.53561  0.00598  0.67864  1.0000
  H   H680      1.0  0.54429  0.38321  0.98834  1.0000
  H   H681      1.0  0.43953  0.00670  0.68906  1.0000
  C   C398      1.0  0.47670  0.41829  0.84648  1.0000
  H   H682      1.0  0.50749  0.03761  0.76751  1.0000
  C   C399      1.0  0.63489  0.20948  0.58491  1.0000
  H   H683      1.0  0.58308  0.03210  0.59599  1.0000
  C   C400      1.0  0.54655  0.45433  0.88315  1.0000
  H   H684      1.0  0.44089  0.22279  0.53764  1.0000
  Fe  Fe48      1.0  0.65356  0.46582  0.87059  1.0000
  N   N24       1.0  0.40248  0.04534  0.62414  1.0000
  H   H685      1.0  0.56274  0.34709  0.96543  1.0000
  H   H686      1.0  0.43293  0.46845  0.86395  1.0000
  H   H687      1.0  0.50031  0.05031  0.80905  1.0000
  H   H688      1.0  0.46010  0.02776  0.77432  1.0000
  H   H689      1.0  0.37704  0.01383  0.63664  1.0000
  C   C401      1.0  0.59185  0.06768  0.61662  1.0000
  H   H690      1.0  0.58142  0.04764  0.65287  1.0000
  C   C402      1.0  0.52252  0.06685  0.84061  1.0000
  H   H691      1.0  0.53237  0.44664  0.89761  1.0000
  H   H692      1.0  0.46358  0.15956  0.77203  1.0000
  H   H693      1.0  0.55660  0.43680  0.87506  1.0000
  C   C403      1.0  0.45657  0.45451  0.77818  1.0000
  C   C404      1.0  0.46043  0.00653  0.68621  1.0000
  H   H694      1.0  0.60704  0.40431  0.94878  1.0000
  H   H695      1.0  0.64147  0.23801  0.55480  1.0000
  Fe  Fe49      1.0  0.65707  0.13068  0.52583  1.0000
  H   H696      1.0  0.58803  0.43469  0.91194  1.0000
  H   H697      1.0  0.60224  0.23695  0.58268  1.0000
  H   H698      1.0  0.41577  0.07290  0.67197  1.0000
  H   H699      1.0  0.45606  0.18024  0.52146  1.0000
  H   H700      1.0  0.45440  0.40325  0.99064  1.0000
  H   H701      1.0  0.40696  0.38944  0.94114  1.0000
  H   H702      1.0  0.59693  0.42921  0.98767  1.0000
  C   C405      1.0  0.62651  0.02113  0.56710  1.0000
  H   H703      1.0  0.56736  0.05199  0.56218  1.0000
  H   H704      1.0  0.45299  0.03765  0.74094  1.0000
  S   S93       1.0  0.39037  0.15109  0.52580  1.0000
  H   H705      1.0  0.37044  0.03844  0.59703  1.0000
  H   H706      1.0  0.64310  0.21960  0.60232  1.0000
  H   H707      1.0  0.55148  0.39081  0.92520  1.0000
  H   H708      1.0  0.47683  0.45685  0.78590  1.0000
  C   C406      1.0  0.64896  0.21806  0.55953  1.0000
  H   H709      1.0  0.48904  0.03740  0.59258  1.0000
  C   C407      1.0  0.57243  0.06095  0.63811  1.0000
  H   H710      1.0  0.44753  0.43679  0.78707  1.0000
  C   C408      1.0  0.41432  0.48780  0.89575  1.0000
  C   C409      1.0  0.38991  0.07346  0.58362  1.0000
  C   C410      1.0  0.60559  0.40954  0.99125  1.0000
  H   H711      1.0  0.47959  0.02582  0.62442  1.0000
  S   S94       1.0  0.64959  0.13004  0.56927  1.0000
  H   H712      1.0  0.50062  0.04609  0.73430  1.0000
  H   H713      1.0  0.63384  0.02465  0.54697  1.0000
  H   H714      1.0  0.40596  0.01733  0.65597  1.0000
  H   H715      1.0  0.51022  0.05691  0.85543  1.0000
  H   H716      1.0  0.44007  0.04557  0.64357  1.0000
  H   H717      1.0  0.40829  0.08465  0.58692  1.0000
  H   H718      1.0  0.37349  0.08497  0.59175  1.0000
  H   H719      1.0  0.42987  0.32541  0.74978  1.0000
  H   H720      1.0  0.44681  0.05929  0.58596  1.0000
  H   H721      1.0  0.43033  0.19325  0.50136  1.0000
  H   H722      1.0  0.52866  0.43484  0.83634  1.0000
  H   H723      1.0  0.61039  0.02936  0.61701  1.0000
  H   H724      1.0  0.58324  0.47706  0.88652  1.0000
  S   S95       1.0  0.63541  0.10324  0.49935  1.0000
  H   H725      1.0  0.47215  0.07475  0.77808  1.0000
  H   H726      1.0  0.52541  0.28880  0.80399  1.0000
  H   H727      1.0  0.55087  0.07658  0.52389  1.0000
  H   H728      1.0  0.47558  0.08417  0.74520  1.0000
  H   H729      1.0  0.38320  0.09129  0.54558  1.0000
  H   H730      1.0  0.46369  0.43231  0.83610  1.0000
  C   C411      1.0  0.43103  0.05304  0.62515  1.0000
  H   H731      1.0  0.38026  0.33895  0.83595  1.0000
  N   N25       1.0  0.53252  0.46893  0.86143  1.0000
  H   H732      1.0  0.46353  0.11416  0.79124  1.0000
  H   H733      1.0  0.58645  0.00715  0.55717  1.0000
  H   H734      1.0  0.56665  0.27810  0.82599  1.0000
  H   H735      1.0  0.56462  0.44686  0.93508  1.0000
  H   H736      1.0  0.44240  0.02541  0.59335  1.0000
  H   H737      1.0  0.45752  0.45151  0.75673  1.0000
  H   H738      1.0  0.39252  0.04762  0.68033  1.0000
  H   H739      1.0  0.50308  0.29469  0.67315  1.0000
  H   H740      1.0  0.49521  0.27605  0.71726  1.0000
  H   H741      1.0  0.44419  0.31437  0.78016  1.0000
  H   H742      1.0  0.65126  0.04728  0.60810  1.0000
  C   C412      1.0  0.60846  0.06593  0.55983  1.0000
  C   C413      1.0  0.51456  0.00626  0.68049  1.0000
  C   C414      1.0  0.39092  0.04603  0.59686  1.0000
  C   C415      1.0  0.39508  0.06648  0.66986  1.0000
  H   H743      1.0  0.58664  0.36658  0.94931  1.0000
  H   H744      1.0  0.48663  0.40566  0.83201  1.0000
  C   C416      1.0  0.58159  0.05884  0.54752  1.0000
  H   H745      1.0  0.51124  0.26036  0.67505  1.0000
  H   H746      1.0  0.60723  0.08594  0.56826  1.0000
  C   C417      1.0  0.57945  0.45264  0.92047  1.0000
  C   C418      1.0  0.39838  0.01827  0.63562  1.0000
  H   H747      1.0  0.48919  0.08159  0.81958  1.0000
  N   N26       1.0  0.52185  0.31232  0.75155  1.0000
  C   C419      1.0  0.52364  0.30858  0.72236  1.0000
  C   C420      1.0  0.53051  0.33972  0.75934  1.0000
  C   C421      1.0  0.54043  0.29297  0.76425  1.0000
  C   C422      1.0  0.49474  0.30668  0.76142  1.0000
  C   C423      1.0  0.47230  0.32333  0.74960  1.0000
  C   C424      1.0  0.51555  0.28109  0.71179  1.0000
  C   C425      1.0  0.54369  0.29509  0.79436  1.0000
  C   C426      1.0  0.52499  0.36239  0.73974  1.0000
  H   H748      1.0  0.60853  0.07804  0.62605  1.0000
  C   C427      1.0  0.44567  0.31324  0.75856  1.0000
  C   C428      1.0  0.51684  0.28027  0.68200  1.0000
  C   C429      1.0  0.56566  0.27727  0.80432  1.0000
  H   H749      1.0  0.54405  0.31251  0.71595  1.0000
  H   H750      1.0  0.51141  0.32301  0.71162  1.0000
  H   H751      1.0  0.52181  0.34517  0.77844  1.0000
  H   H752      1.0  0.55210  0.34042  0.76275  1.0000
  H   H753      1.0  0.56021  0.29483  0.75548  1.0000
  H   H754      1.0  0.53392  0.27243  0.76063  1.0000
  H   H755      1.0  0.48980  0.28564  0.75872  1.0000
  H   H756      1.0  0.49393  0.30982  0.78285  1.0000
  H   H757      1.0  0.47218  0.32279  0.72798  1.0000
  H   H758      1.0  0.47412  0.34392  0.75638  1.0000
  H   H759      1.0  0.52879  0.26552  0.71926  1.0000
  H   H760      1.0  0.43371  0.36436  0.97310  1.0000
  S   S96       1.0  0.64885  0.16636  0.50152  1.0000
  H   H761      1.0  0.53681  0.47321  0.80324  1.0000
  H   H762      1.0  0.37443  0.32948  0.80247  1.0000
  C   C430      1.0  0.55247  0.47971  0.84269  1.0000
  H   H763      1.0  0.60581  0.35506  0.98791  1.0000
  C   C431      1.0  0.56335  0.38798  0.97910  1.0000
  H   H764      1.0  0.42514  0.46633  0.82020  1.0000
  C   C432      1.0  0.45127  0.19565  0.50698  1.0000
  H   H765      1.0  0.64296  0.01158  0.57798  1.0000
  C   C433      1.0  0.44029  0.47889  0.78396  1.0000
  H   H766      1.0  0.41067  0.40575  0.98829  1.0000
  C   C434      1.0  0.43763  0.48308  0.81384  1.0000
  C   C435      1.0  0.64223  0.42325  0.96101  1.0000
  C   C436      1.0  0.51842  0.12875  0.51652  1.0000
  C   C437      1.0  0.54128  0.49007  0.81632  1.0000
  H   H767      1.0  0.63402  0.44331  0.95890  1.0000
  H   H768      1.0  0.44110  0.31103  0.99180  1.0000
  H   H769      1.0  0.45707  0.47994  0.82331  1.0000
  C   C438      1.0  0.45410  0.22218  0.52056  1.0000
  S   S97       1.0  0.64505  0.48913  0.83437  1.0000
  H   H770      1.0  0.47450  0.22511  0.52765  1.0000
  C   C439      1.0  0.42902  0.48899  0.86995  1.0000
  H   H771      1.0  0.53675  0.13975  0.51243  1.0000
  H   H772      1.0  0.34288  0.39171  0.88889  1.0000
  C   C440      1.0  0.33582  0.36775  0.84367  1.0000
  H   H773      1.0  0.42060  0.47583  0.77501  1.0000
  H   H774      1.0  0.65245  0.41836  0.94261  1.0000
  H   H775      1.0  0.33252  0.32988  0.82366  1.0000
  H   H776      1.0  0.33394  0.35729  0.80158  1.0000
  H   H777      1.0  0.56436  0.49548  0.85184  1.0000
  H   H778      1.0  0.49681  0.49196  0.85997  1.0000
  H   H779      1.0  0.44941  0.49583  0.77402  1.0000
  H   H780      1.0  0.51844  0.11010  0.50536  1.0000
  Fe  Fe50      1.0  0.33152  0.48287  0.83899  1.0000
  C   C441      1.0  0.60502  0.99960  0.56543  1.0000
  H   H781      1.0  0.44864  0.23838  0.50701  1.0000
  H   H782      1.0  0.47688  0.13333  0.51381  1.0000
  H   H783      1.0  0.65682  0.42306  0.97726  1.0000
  C   C442      1.0  0.49445  0.14516  0.50916  1.0000
  H   H784      1.0  0.39442  0.49230  0.84558  1.0000
  H   H785      1.0  0.39210  0.03346  0.50283  1.0000
  H   H786      1.0  0.36247  0.01520  0.49658  1.0000
  H   H787      1.0  0.36180  0.05061  0.49728  1.0000
  H   H788      1.0  0.52870  0.62363  0.07519  1.0000
  S   S98       1.0  0.36371  0.54432  0.15665  1.0000
  S   S99       1.0  0.64413  0.58643  0.12953  1.0000
  C   C443      1.0  0.54142  0.86451  0.46114  1.0000
  Fe  Fe51      1.0  0.44864  0.66499  0.12148  1.0000
  S   S100      1.0  0.46251  0.70660  0.11551  1.0000
  S   S101      1.0  0.40612  0.65408  0.11494  1.0000
  Fe  Fe52      1.0  0.50348  0.64484  0.13429  1.0000
  S   S102      1.0  0.52154  0.68486  0.13024  1.0000
  S   S103      1.0  0.52239  0.60534  0.14243  1.0000
  Fe  Fe53      1.0  0.48660  0.70035  0.15237  1.0000
  S   S104      1.0  0.48554  0.72441  0.19071  1.0000
  Fe  Fe54      1.0  0.49595  0.68806  0.09388  1.0000
  S   S105      1.0  0.51518  0.69784  0.05502  1.0000
  S   S106      1.0  0.47064  0.65941  0.15902  1.0000
  S   S107      1.0  0.48000  0.64729  0.09713  1.0000
  C   C444      1.0  0.45296  0.77954  0.12158  1.0000
  S   S108      1.0  0.62453  0.89267  0.41630  1.0000
  Fe  Fe55      1.0  0.47967  0.85971  0.28058  1.0000
  S   S109      1.0  0.46600  0.84015  0.31744  1.0000
  S   S110      1.0  0.48284  0.84054  0.23985  1.0000
  Fe  Fe56      1.0  0.49069  0.91268  0.30957  1.0000
  S   S111      1.0  0.47839  0.89606  0.34831  1.0000
  S   S112      1.0  0.51005  0.95325  0.30932  1.0000
  Fe  Fe57      1.0  0.50049  0.86005  0.33684  1.0000
  S   S113      1.0  0.52569  0.83661  0.36503  1.0000
  Fe  Fe58      1.0  0.44510  0.87796  0.32578  1.0000
  S   S114      1.0  0.40356  0.88088  0.34060  1.0000
  S   S115      1.0  0.51552  0.87754  0.29971  1.0000
  S   S116      1.0  0.45596  0.89661  0.28733  1.0000
  H   H789      1.0  0.34358  0.55371  0.22283  1.0000
  S   S117      1.0  0.38204  0.85765  0.46021  1.0000
  C   C445      1.0  0.39835  0.87563  0.37419  1.0000
  C   C446      1.0  0.41628  0.86142  0.38936  1.0000
  C   C447      1.0  0.41086  0.85584  0.41564  1.0000
  C   C448      1.0  0.38782  0.86496  0.42710  1.0000
  C   C449      1.0  0.37013  0.87968  0.41213  1.0000
  C   C450      1.0  0.37525  0.88472  0.38563  1.0000
  H   H790      1.0  0.43402  0.85417  0.38062  1.0000
  H   H791      1.0  0.42456  0.84436  0.42711  1.0000
  H   H792      1.0  0.35245  0.88703  0.42086  1.0000
  H   H793      1.0  0.36133  0.89573  0.37395  1.0000
  C   C451      1.0  0.49472  0.98443  0.30596  1.0000
  C   C452      1.0  0.58422  0.78959  0.27969  1.0000
  H   H794      1.0  0.46078  0.54316  0.16608  1.0000
  H   H795      1.0  0.49642  0.53973  0.13335  1.0000
  H   H796      1.0  0.45700  0.96963  0.29412  1.0000
  C   C453      1.0  0.59838  0.87592  0.40082  1.0000
  C   C454      1.0  0.58335  0.88917  0.38185  1.0000
  C   C455      1.0  0.56090  0.87739  0.37086  1.0000
  C   C456      1.0  0.55375  0.85197  0.37828  1.0000
  C   C457      1.0  0.56943  0.83826  0.39633  1.0000
  C   C458      1.0  0.59167  0.85019  0.40760  1.0000
  H   H797      1.0  0.58873  0.90887  0.37604  1.0000
  H   H798      1.0  0.54916  0.88800  0.35665  1.0000
  H   H799      1.0  0.56427  0.81838  0.40172  1.0000
  H   H800      1.0  0.60360  0.83953  0.42159  1.0000
  C   C459      1.0  0.48529  0.75695  0.20391  1.0000
  C   C460      1.0  0.48934  0.77936  0.18860  1.0000
  C   C461      1.0  0.48855  0.80462  0.19997  1.0000
  C   C462      1.0  0.48395  0.80798  0.22684  1.0000
  C   C463      1.0  0.47990  0.78557  0.24217  1.0000
  C   C464      1.0  0.48065  0.76030  0.23080  1.0000
  H   H801      1.0  0.49333  0.77726  0.16804  1.0000
  H   H802      1.0  0.49165  0.82173  0.18782  1.0000
  H   H803      1.0  0.47579  0.78774  0.26272  1.0000
  H   H804      1.0  0.47741  0.74319  0.24291  1.0000
  S   S118      1.0  0.62600  0.90114  0.49085  1.0000
  C   C465      1.0  0.49964  0.69839  0.02383  1.0000
  C   C466      1.0  0.47277  0.70258  0.02084  1.0000
  C   C467      1.0  0.56835  0.85457  0.47099  1.0000
  H   H805      1.0  0.46078  0.70509  0.03793  1.0000
  C   C468      1.0  0.61031  0.59141  0.13352  1.0000
  C   C469      1.0  0.59304  0.57029  0.13616  1.0000
  C   C470      1.0  0.56616  0.57490  0.13924  1.0000
  C   C471      1.0  0.55637  0.60060  0.13957  1.0000
  C   C472      1.0  0.57364  0.62174  0.13695  1.0000
  C   C473      1.0  0.60058  0.61711  0.13417  1.0000
  H   H806      1.0  0.60041  0.55043  0.13614  1.0000
  H   H807      1.0  0.55289  0.55850  0.14141  1.0000
  H   H808      1.0  0.56627  0.64161  0.13734  1.0000
  H   H809      1.0  0.61399  0.63347  0.13261  1.0000
  C   C474      1.0  0.37591  0.57415  0.14381  1.0000
  C   C475      1.0  0.36221  0.58812  0.12453  1.0000
  C   C476      1.0  0.37170  0.61255  0.11577  1.0000
  C   C477      1.0  0.39524  0.62291  0.12575  1.0000
  C   C478      1.0  0.40919  0.60869  0.14469  1.0000
  C   C479      1.0  0.39938  0.58458  0.15391  1.0000
  H   H810      1.0  0.57666  0.90589  0.45552  1.0000
  H   H811      1.0  0.36079  0.62343  0.10114  1.0000
  H   H812      1.0  0.42729  0.61650  0.15261  1.0000
  H   H813      1.0  0.41003  0.57396  0.16891  1.0000
  C   C480      1.0  0.54081  0.90266  0.49159  1.0000
  H   H814      1.0  0.56324  0.67068  0.05394  1.0000
  H   H815      1.0  0.49959  0.50786  0.16736  1.0000
  H   H816      1.0  0.64898  0.59239  0.22766  1.0000
  C   C481      1.0  0.42836  0.91592  0.45591  1.0000
  H   H817      1.0  0.45070  0.65060  0.03196  1.0000
  C   C482      1.0  0.34802  0.79707  0.42498  1.0000
  C   C483      1.0  0.50213  0.89319  0.42613  1.0000
  H   H818      1.0  0.53381  0.92317  0.49375  1.0000
  H   H819      1.0  0.59276  0.94846  0.44047  1.0000
  H   H820      1.0  0.45993  0.79979  0.11751  1.0000
  C   C484      1.0  0.57670  0.77000  0.25756  1.0000
  C   C485      1.0  0.48487  0.86877  0.42322  1.0000
  C   C486      1.0  0.50862  0.77362  0.32107  1.0000
  H   H821      1.0  0.55586  0.79832  0.32476  1.0000
  H   H822      1.0  0.34408  0.58032  0.11666  1.0000
  H   H823      1.0  0.64376  0.59915  0.03701  1.0000
  H   H824      1.0  0.33346  0.79459  0.16246  1.0000
  H   H825      1.0  0.55726  0.50714  0.07724  1.0000
  H   H826      1.0  0.51887  0.77962  0.28111  1.0000
  H   H827      1.0  0.53985  0.85849  0.44030  1.0000
  C   C487      1.0  0.63726  0.98673  0.40459  1.0000
  S   S119      1.0  0.63660  0.51239  0.10848  1.0000
  H   H828      1.0  0.61669  0.62476  0.21092  1.0000
  H   H829      1.0  0.59428  0.84183  0.28150  1.0000
  H   H830      1.0  0.51932  0.89077  0.41346  1.0000
  H   H831      1.0  0.49100  0.91003  0.41779  1.0000
  N   N27       1.0  0.53700  0.89358  0.46372  1.0000
  H   H832      1.0  0.61172  0.53747  0.06416  1.0000
  H   H833      1.0  0.64354  0.98300  0.38424  1.0000
  H   H834      1.0  0.56319  0.64331  0.01862  1.0000
  C   C488      1.0  0.59532  0.83057  0.32188  1.0000
  H   H835      1.0  0.55819  0.89866  0.42755  1.0000
  C   C489      1.0  0.56939  0.50041  0.09406  1.0000
  H   H836      1.0  0.44935  0.92149  0.45586  1.0000
  H   H837      1.0  0.44467  0.61630  0.02602  1.0000
  H   H838      1.0  0.56532  0.81658  0.45154  1.0000
  H   H839      1.0  0.58621  0.53644  0.03977  1.0000
  H   H840      1.0  0.46621  0.87135  0.43374  1.0000
  H   H841      1.0  0.48023  0.86555  0.40222  1.0000
  H   H842      1.0  0.49495  0.85099  0.43070  1.0000
  C   C490      1.0  0.53996  0.60621  0.06883  1.0000
  C   C491      1.0  0.51933  0.58594  0.05940  1.0000
  C   C492      1.0  0.58949  0.57354  0.06092  1.0000
  C   C493      1.0  0.50380  0.57481  0.08225  1.0000
  H   H843      1.0  0.37344  0.79672  0.47372  1.0000
  C   C494      1.0  0.57580  0.59072  0.03973  1.0000
  H   H844      1.0  0.54920  0.59876  0.08708  1.0000
  H   H845      1.0  0.52827  0.56900  0.04947  1.0000
  H   H846      1.0  0.60550  0.58457  0.07084  1.0000
  H   H847      1.0  0.57550  0.56673  0.07589  1.0000
  H   H848      1.0  0.49340  0.59070  0.09263  1.0000
  H   H849      1.0  0.48902  0.56051  0.07498  1.0000
  H   H850      1.0  0.51704  0.56464  0.09630  1.0000
  H   H851      1.0  0.50467  0.92050  0.45862  1.0000
  H   H852      1.0  0.51800  0.77160  0.34066  1.0000
  Fe  Fe59      1.0  0.34385  0.86910  0.47879  1.0000
  C   C495      1.0  0.56960  0.65933  0.07134  1.0000
  H   H853      1.0  0.54194  0.76048  0.30012  1.0000
  N   N28       1.0  0.40011  0.74955  0.16795  1.0000
  C   C496      1.0  0.37641  0.76085  0.15420  1.0000
  C   C497      1.0  0.42332  0.75206  0.15015  1.0000
  C   C498      1.0  0.39506  0.72053  0.17198  1.0000
  C   C499      1.0  0.40575  0.76216  0.19416  1.0000
  C   C500      1.0  0.39825  0.79154  0.19723  1.0000
  C   C501      1.0  0.34982  0.75539  0.16756  1.0000
  C   C502      1.0  0.41802  0.70440  0.18377  1.0000
  C   C503      1.0  0.43204  0.78019  0.14268  1.0000
  H   H854      1.0  0.46996  0.76756  0.12805  1.0000
  C   C504      1.0  0.40823  0.80254  0.22322  1.0000
  H   H855      1.0  0.57039  0.97179  0.42596  1.0000
  C   C505      1.0  0.40912  0.67681  0.19156  1.0000
  H   H856      1.0  0.37478  0.75286  0.13397  1.0000
  H   H857      1.0  0.37836  0.78234  0.15148  1.0000
  H   H858      1.0  0.44097  0.74309  0.15929  1.0000
  H   H859      1.0  0.41947  0.74095  0.13176  1.0000
  H   H860      1.0  0.38935  0.71102  0.15312  1.0000
  H   H861      1.0  0.37833  0.71752  0.18536  1.0000
  H   H862      1.0  0.39535  0.75154  0.21003  1.0000
  H   H863      1.0  0.42692  0.76018  0.19927  1.0000
  H   H864      1.0  0.37671  0.79392  0.19693  1.0000
  H   H865      1.0  0.40625  0.80394  0.18146  1.0000
  H   H866      1.0  0.57792  0.77969  0.23818  1.0000
  H   H867      1.0  0.35137  0.75743  0.18909  1.0000
  H   H868      1.0  0.42651  0.71406  0.20132  1.0000
  H   H869      1.0  0.43359  0.70203  0.16911  1.0000
  H   H870      1.0  0.42678  0.89437  0.45347  1.0000
  H   H871      1.0  0.44081  0.79007  0.15998  1.0000
  H   H872      1.0  0.57731  0.94153  0.40932  1.0000
  H   H873      1.0  0.35497  0.77649  0.42303  1.0000
  H   H874      1.0  0.55293  0.65759  0.08490  1.0000
  H   H875      1.0  0.40199  0.82329  0.22527  1.0000
  H   H876      1.0  0.40039  0.79107  0.23989  1.0000
  H   H877      1.0  0.42988  0.80207  0.22399  1.0000
  C   C506      1.0  0.51499  0.69570  0.00135  1.0000
  C   C507      1.0  0.61306  0.85404  0.32790  1.0000
  H   H878      1.0  0.54889  0.94784  0.46152  1.0000
  H   H879      1.0  0.42604  0.66567  0.19959  1.0000
  H   H880      1.0  0.39386  0.67771  0.20678  1.0000
  H   H881      1.0  0.40133  0.66608  0.17427  1.0000
  C   C508      1.0  0.54573  0.80287  0.30602  1.0000
  C   C509      1.0  0.35843  0.59283  0.22256  1.0000
  H   H882      1.0  0.62847  0.85605  0.31292  1.0000
  H   H883      1.0  0.44484  0.77113  0.10319  1.0000
  N   N29       1.0  0.33088  0.80442  0.40182  1.0000
  N   N30       1.0  0.56065  0.61408  0.04949  1.0000
  H   H884      1.0  0.58742  0.62252  0.08160  1.0000
  H   H885      1.0  0.59730  0.66605  0.10333  1.0000
  H   H886      1.0  0.60771  0.81277  0.32106  1.0000
  H   H887      1.0  0.35911  0.94721  0.40187  1.0000
  C   C510      1.0  0.59078  0.67566  0.08496  1.0000
  H   H888      1.0  0.38411  0.78908  0.38911  1.0000
  H   H889      1.0  0.53380  0.94048  0.43037  1.0000
  H   H890      1.0  0.60147  0.87243  0.32856  1.0000
  S   S120      1.0  0.64231  0.84139  0.47527  1.0000
  H   H891      1.0  0.56487  0.84358  0.19876  1.0000
  H   H892      1.0  0.60782  0.67854  0.07199  1.0000
  C   C511      1.0  0.52921  0.77808  0.30010  1.0000
  H   H893      1.0  0.61617  0.55443  0.03385  1.0000
  C   C512      1.0  0.56646  0.83376  0.24003  1.0000
  Fe  Fe60      1.0  0.64186  0.88067  0.45565  1.0000
  H   H894      1.0  0.33711  0.81547  0.36131  1.0000
  H   H895      1.0  0.55656  0.76231  0.25937  1.0000
  C   C513      1.0  0.50929  0.89947  0.45520  1.0000
  Fe  Fe61      1.0  0.33353  0.52092  0.13367  1.0000
  H   H896      1.0  0.53438  0.83430  0.26696  1.0000
  H   H897      1.0  0.49517  0.88890  0.46782  1.0000
  H   H898      1.0  0.59747  0.63529  0.05097  1.0000
  H   H899      1.0  0.53211  0.81933  0.31029  1.0000
  C   C514      1.0  0.59525  0.74655  0.25730  1.0000
  H   H900      1.0  0.49472  0.79027  0.32149  1.0000
  H   H901      1.0  0.58184  0.82858  0.33854  1.0000
  C   C515      1.0  0.33631  0.57344  0.22825  1.0000
  H   H902      1.0  0.45115  0.55521  0.13434  1.0000
  H   H903      1.0  0.47588  0.51955  0.11289  1.0000
  C   C516      1.0  0.57999  0.63190  0.06337  1.0000
  H   H904      1.0  0.59112  0.59754  0.02597  1.0000
  H   H905      1.0  0.59389  0.73531  0.27586  1.0000
  H   H906      1.0  0.39622  0.82091  0.35435  1.0000
  H   H907      1.0  0.62267  0.85124  0.34729  1.0000
  C   C517      1.0  0.48995  0.50025  0.14924  1.0000
  C   C518      1.0  0.60156  0.54906  0.04879  1.0000
  H   H908      1.0  0.37614  0.58734  0.23404  1.0000
  H   H909      1.0  0.35574  0.76606  0.46959  1.0000
  H   H910      1.0  0.53585  0.69289  0.00344  1.0000
  H   H911      1.0  0.57024  0.85452  0.24561  1.0000
  H   H912      1.0  0.54782  0.81371  0.20704  1.0000
  H   H913      1.0  0.56323  0.57733  0.02811  1.0000
  H   H914      1.0  0.61575  0.75321  0.25453  1.0000
  H   H915      1.0  0.58271  0.69523  0.08991  1.0000
  H   H916      1.0  0.39400  0.92184  0.47897  1.0000
  H   H917      1.0  0.58830  0.77807  0.29780  1.0000
  H   H918      1.0  0.58888  0.81800  0.47791  1.0000
  H   H919      1.0  0.41568  0.79218  0.13493  1.0000
  H   H920      1.0  0.49743  0.75541  0.31671  1.0000
  H   H921      1.0  0.60352  0.79797  0.27404  1.0000
  H   H922      1.0  0.58563  0.82401  0.23760  1.0000
  C   C519      1.0  0.54868  0.62921  0.02682  1.0000
  C   C520      1.0  0.55154  0.93753  0.44272  1.0000
  H   H923      1.0  0.35273  0.61310  0.22797  1.0000
  H   H924      1.0  0.53219  0.64162  0.03375  1.0000
  H   H925      1.0  0.41781  0.63805  0.03353  1.0000
  C   C521      1.0  0.43670  0.63636  0.02314  1.0000
  H   H926      1.0  0.50517  0.59566  0.04596  1.0000
  N   N31       1.0  0.56497  0.81126  0.28541  1.0000
  C   C522      1.0  0.46860  0.98701  0.29797  1.0000
  C   C523      1.0  0.55232  0.83402  0.21359  1.0000
  H   H927      1.0  0.56617  0.85150  0.29912  1.0000
  H   H928      1.0  0.58981  0.73327  0.24093  1.0000
  H   H929      1.0  0.53385  0.84532  0.21486  1.0000
  C   C524      1.0  0.54990  0.82013  0.26144  1.0000
  C   C525      1.0  0.57977  0.83479  0.29596  1.0000
  H   H930      1.0  0.53891  0.80368  0.25236  1.0000
  C   C526      1.0  0.55661  0.90787  0.44702  1.0000
  C   C527      1.0  0.35377  0.78740  0.47341  1.0000
  H   H931      1.0  0.43966  0.52357  0.14513  1.0000
  H   H932      1.0  0.33620  0.94806  0.42862  1.0000
  C   C528      1.0  0.57443  0.95057  0.42878  1.0000
  H   H933      1.0  0.41849  0.92551  0.43899  1.0000
  C   C529      1.0  0.37034  0.79216  0.37248  1.0000
  H   H934      1.0  0.52577  0.85332  0.47128  1.0000
  H   H935      1.0  0.35858  0.83109  0.38399  1.0000
  C   C530      1.0  0.65538  0.60733  0.21329  1.0000
  H   H936      1.0  0.40179  0.78752  0.34468  1.0000
  H   H937      1.0  0.52332  0.51259  0.10983  1.0000
  H   H938      1.0  0.62386  0.58238  0.99562  1.0000
  H   H939      1.0  0.63645  0.63042  0.18247  1.0000
  C   C531      1.0  0.63119  0.61580  0.19769  1.0000
  H   H940      1.0  0.36340  0.98211  0.45060  1.0000
  C   C532      1.0  0.56924  0.82460  0.47134  1.0000
  C   C533      1.0  0.41550  0.92442  0.48134  1.0000
  C   C534      1.0  0.45659  0.53730  0.14557  1.0000
  H   H941      1.0  0.38604  0.98167  0.42356  1.0000
  C   C535      1.0  0.48064  0.52465  0.13345  1.0000
  H   H942      1.0  0.36185  0.77294  0.36683  1.0000
  C   C536      1.0  0.38644  0.80206  0.34944  1.0000
  H   H943      1.0  0.58420  0.86194  0.45836  1.0000
  H   H944      1.0  0.53927  0.51068  0.14078  1.0000
  H   H945      1.0  0.36351  0.59238  0.20149  1.0000
  H   H946      1.0  0.34679  0.99417  0.39359  1.0000
  C   C537      1.0  0.34861  0.81211  0.37956  1.0000
  H   H947      1.0  0.37382  0.80500  0.33188  1.0000
  H   H948      1.0  0.62190  0.59851  0.18817  1.0000
  H   H949      1.0  0.61736  0.97855  0.40726  1.0000
  H   H950      1.0  0.36602  0.80953  0.42541  1.0000
  H   H951      1.0  0.33499  0.82148  0.45740  1.0000
  H   H952      1.0  0.36930  0.93743  0.43423  1.0000
  C   C538      1.0  0.36527  0.97961  0.42917  1.0000
  Fe  Fe62      1.0  0.65857  0.54449  0.12850  1.0000
  H   H953      1.0  0.41930  0.94568  0.48404  1.0000
  H   H954      1.0  0.34332  0.73500  0.16321  1.0000
  H   H955      1.0  0.63976  0.75974  0.47007  1.0000
  H   H956      1.0  0.57714  0.51774  0.10478  1.0000
  H   H957      1.0  0.55464  0.81665  0.48519  1.0000
  C   C539      1.0  0.53059  0.49845  0.12482  1.0000
  H   H958      1.0  0.52630  0.59649  0.00850  1.0000
  C   C540      1.0  0.35689  0.95142  0.42302  1.0000
  C   C541      1.0  0.46153  0.70465  0.99564  1.0000
  C   C542      1.0  0.33634  0.80031  0.45264  1.0000
  C   C543      1.0  0.53891  0.61316  0.00286  1.0000
  H   H959      1.0  0.65084  0.97625  0.41808  1.0000
  H   H960      1.0  0.33254  0.57411  0.24950  1.0000
  C   C544      1.0  0.63109  0.76234  0.48970  1.0000
  H   H961      1.0  0.61473  0.77655  0.48794  1.0000
  H   H962      1.0  0.34490  0.78985  0.49294  1.0000
  H   H963      1.0  0.57275  0.86151  0.49090  1.0000
  H   H964      1.0  0.46379  0.94619  0.49457  1.0000
  H   H965      1.0  0.54522  0.51862  0.88497  1.0000
  C   C545      1.0  0.41308  0.62332  0.98112  1.0000
  S   S121      1.0  0.59560  0.54156  0.85902  1.0000
  H   H966      1.0  0.57995  0.49749  0.80014  1.0000
  Fe  Fe63      1.0  0.47350  0.64593  0.86683  1.0000
  S   S122      1.0  0.45287  0.68470  0.86912  1.0000
  S   S123      1.0  0.45717  0.60441  0.86617  1.0000
  Fe  Fe64      1.0  0.52713  0.67114  0.87461  1.0000
  S   S124      1.0  0.51072  0.71196  0.87848  1.0000
  S   S125      1.0  0.57042  0.66214  0.87723  1.0000
  Fe  Fe65      1.0  0.48005  0.69236  0.90347  1.0000
  S   S126      1.0  0.46163  0.70457  0.94190  1.0000
  Fe  Fe66      1.0  0.48510  0.70137  0.84375  1.0000
  S   S127      1.0  0.47974  0.72386  0.80451  1.0000
  S   S128      1.0  0.49877  0.65286  0.90221  1.0000
  S   S129      1.0  0.50350  0.66128  0.83893  1.0000
  Fe  Fe67      1.0  0.47318  0.91181  0.68313  1.0000
  S   S130      1.0  0.48207  0.89743  0.64281  1.0000
  S   S131      1.0  0.45538  0.95270  0.68768  1.0000
  Fe  Fe68      1.0  0.48700  0.85773  0.70900  1.0000
  S   S132      1.0  0.49757  0.84024  0.67012  1.0000
  S   S133      1.0  0.48911  0.83760  0.74969  1.0000
  Fe  Fe69      1.0  0.51741  0.87875  0.66129  1.0000
  S   S134      1.0  0.55740  0.88614  0.64369  1.0000
  Fe  Fe70      1.0  0.46133  0.86054  0.65471  1.0000
  S   S135      1.0  0.43444  0.83819  0.62710  1.0000
  S   S136      1.0  0.50977  0.89524  0.70138  1.0000
  S   S137      1.0  0.44949  0.87590  0.69388  1.0000
  S   S138      1.0  0.59756  0.84318  0.53492  1.0000
  C   C546      1.0  0.43807  0.61771  0.94000  1.0000
  C   C547      1.0  0.40816  0.85438  0.61128  1.0000
  C   C548      1.0  0.39913  0.87871  0.61991  1.0000
  C   C549      1.0  0.37688  0.89008  0.60814  1.0000
  C   C550      1.0  0.36418  0.87781  0.58696  1.0000
  C   C551      1.0  0.37391  0.85406  0.57762  1.0000
  C   C552      1.0  0.39557  0.84220  0.59001  1.0000
  H   H967      1.0  0.40876  0.88833  0.63621  1.0000
  H   H968      1.0  0.36939  0.90841  0.61556  1.0000
  H   H969      1.0  0.36424  0.84436  0.56141  1.0000
  H   H970      1.0  0.40250  0.82342  0.58318  1.0000
  C   C553      1.0  0.56694  0.87535  0.61240  1.0000
  C   C554      1.0  0.55324  0.85567  0.59900  1.0000
  C   C555      1.0  0.56264  0.84627  0.57503  1.0000
  C   C556      1.0  0.58549  0.85679  0.56408  1.0000
  C   C557      1.0  0.59872  0.87703  0.57705  1.0000
  C   C558      1.0  0.58959  0.88608  0.60123  1.0000
  H   H971      1.0  0.53585  0.84720  0.60748  1.0000
  H   H972      1.0  0.55234  0.83055  0.56511  1.0000
  H   H973      1.0  0.61637  0.88522  0.56883  1.0000
  H   H974      1.0  0.60031  0.90127  0.61153  1.0000
  C   C559      1.0  0.47355  0.98233  0.68480  1.0000
  H   H975      1.0  0.38834  0.68515  0.88544  1.0000
  C   C560      1.0  0.50068  0.98233  0.68168  1.0000
  H   H976      1.0  0.62754  0.79559  0.53254  1.0000
  H   H977      1.0  0.51105  0.96388  0.68068  1.0000
  C   C561      1.0  0.48185  0.75581  0.78980  1.0000
  C   C562      1.0  0.48020  0.75814  0.76236  1.0000
  C   C563      1.0  0.48270  0.78278  0.74973  1.0000
  C   C564      1.0  0.48673  0.80565  0.76434  1.0000
  C   C565      1.0  0.48847  0.80331  0.79176  1.0000
  C   C566      1.0  0.48592  0.77869  0.80439  1.0000
  H   H978      1.0  0.47725  0.74065  0.75075  1.0000
  H   H979      1.0  0.48177  0.78408  0.72868  1.0000
  H   H980      1.0  0.49141  0.82080  0.80338  1.0000
  H   H981      1.0  0.48683  0.77747  0.82543  1.0000
  C   C567      1.0  0.47678  0.70161  0.97317  1.0000
  C   C568      1.0  0.50358  0.69687  0.97615  1.0000
  H   H982      1.0  0.34711  0.86791  0.69305  1.0000
  H   H983      1.0  0.51562  0.69485  0.95904  1.0000
  C   C569      1.0  0.64609  0.80129  0.57759  1.0000
  C   C570      1.0  0.58957  0.57527  0.86396  1.0000
  C   C571      1.0  0.60970  0.59330  0.86885  1.0000
  C   C572      1.0  0.60378  0.61998  0.87298  1.0000
  C   C573      1.0  0.57774  0.62870  0.87216  1.0000
  C   C574      1.0  0.55770  0.61063  0.86717  1.0000
  C   C575      1.0  0.56363  0.58411  0.86297  1.0000
  H   H984      1.0  0.62977  0.58674  0.86891  1.0000
  H   H985      1.0  0.61939  0.63394  0.87651  1.0000
  H   H986      1.0  0.53759  0.61712  0.86630  1.0000
  H   H987      1.0  0.54801  0.57048  0.85862  1.0000
  C   C576      1.0  0.36925  0.58767  0.86188  1.0000
  C   C577      1.0  0.38634  0.56967  0.87356  1.0000
  C   C578      1.0  0.41322  0.57531  0.87531  1.0000
  C   C579      1.0  0.42311  0.59915  0.86574  1.0000
  C   C580      1.0  0.40588  0.61771  0.85524  1.0000
  C   C581      1.0  0.37900  0.61196  0.85334  1.0000
  H   H988      1.0  0.37876  0.55138  0.88109  1.0000
  H   H989      1.0  0.42643  0.56113  0.88395  1.0000
  H   H990      1.0  0.41331  0.63620  0.84793  1.0000
  H   H991      1.0  0.36580  0.62613  0.84461  1.0000
  C   C582      1.0  0.39905  0.65483  0.91332  1.0000
  C   C583      1.0  0.44699  0.52922  0.82733  1.0000
  H   H992      1.0  0.62696  0.76188  0.54125  1.0000
  H   H993      1.0  0.40736  0.69686  0.91287  1.0000
  H   H994      1.0  0.50457  0.52840  0.91008  1.0000
  C   C584      1.0  0.34554  0.58723  0.93817  1.0000
  N   N32       1.0  0.63937  0.58323  0.95642  1.0000
  H   H995      1.0  0.58897  0.80360  0.61471  1.0000
  H   H996      1.0  0.49445  0.55556  0.82694  1.0000
  C   C585      1.0  0.62938  0.55785  0.94464  1.0000
  C   C586      1.0  0.61934  0.60418  0.95052  1.0000
  C   C587      1.0  0.62643  0.63252  0.95869  1.0000
  H   H997      1.0  0.40723  0.99436  0.60078  1.0000
  C   C588      1.0  0.60409  0.54635  0.95693  1.0000
  H   H998      1.0  0.41068  0.50789  0.90326  1.0000
  H   H999      1.0  0.59575  0.76120  0.86278  1.0000
  C   C589      1.0  0.60557  0.65183  0.94905  1.0000
  H   H1000     1.0  0.38296  0.64199  0.90620  1.0000
  C   C590      1.0  0.48143  0.56043  0.81011  1.0000
  H   H1001     1.0  0.38276  0.55863  0.77299  1.0000
  H   H1002     1.0  0.48879  0.60219  0.93158  1.0000
  C   C591      1.0  0.46864  0.94341  0.51555  1.0000
  C   C592      1.0  0.64038  0.77825  0.53594  1.0000
  H   H1003     1.0  0.46144  0.52233  0.84205  1.0000
  H   H1004     1.0  0.62483  0.56033  0.92346  1.0000
  H   H1005     1.0  0.61429  0.60432  0.92928  1.0000
  H   H1006     1.0  0.60066  0.59965  0.96045  1.0000
  H   H1007     1.0  0.36278  0.96922  0.58039  1.0000
  H   H1008     1.0  0.43859  0.54725  0.83600  1.0000
  H   H1009     1.0  0.46428  0.88133  0.53315  1.0000
  S   S139      1.0  0.34076  0.90632  0.50148  1.0000
  H   H1010     1.0  0.58722  0.55954  0.95333  1.0000
  C   C593      1.0  0.52338  0.63033  0.98376  1.0000
  H   H1011     1.0  0.36058  0.60885  0.97080  1.0000
  H   H1012     1.0  0.62700  0.79663  0.85054  1.0000
  S   S140      1.0  0.33576  0.89225  0.57330  1.0000
  C   C594      1.0  0.61383  0.97662  0.54851  1.0000
  H   H1013     1.0  0.52304  0.91815  0.54103  1.0000
  H   H1014     1.0  0.37651  0.53730  0.82871  1.0000
  H   H1015     1.0  0.36201  0.87999  0.66370  1.0000
  H   H1016     1.0  0.41960  0.66566  0.94844  1.0000
  H   H1017     1.0  0.45078  0.54366  0.78677  1.0000
  C   C595      1.0  0.48810  0.96495  0.52323  1.0000
  H   H1018     1.0  0.35799  0.74127  0.68982  1.0000
  C   C596      1.0  0.47549  0.58530  0.93495  1.0000
  C   C597      1.0  0.64269  0.57894  0.98559  1.0000
  H   H1019     1.0  0.65972  0.79113  0.50024  1.0000
  C   C598      1.0  0.39288  0.94611  0.56165  1.0000
  H   H1020     1.0  0.56284  0.79227  0.85382  1.0000
  H   H1021     1.0  0.55661  0.74183  0.85458  1.0000
  C   C599      1.0  0.46306  0.86913  0.57288  1.0000
  H   H1022     1.0  0.39724  0.58413  0.95037  1.0000
  H   H1023     1.0  0.50574  0.88497  0.50939  1.0000
  H   H1024     1.0  0.45906  0.87720  0.59253  1.0000
  H   H1025     1.0  0.42946  0.91071  0.57203  1.0000
  H   H1026     1.0  0.51588  0.55603  0.89132  1.0000
  H   H1027     1.0  0.51723  0.61857  0.96655  1.0000
  H   H1028     1.0  0.48343  0.86167  0.57288  1.0000
  H   H1029     1.0  0.64381  0.82150  0.56937  1.0000
  H   H1030     1.0  0.45993  0.59788  0.97156  1.0000
  H   H1031     1.0  0.56574  0.66898  0.81735  1.0000
  H   H1032     1.0  0.63211  0.96784  0.55653  1.0000
  H   H1033     1.0  0.34892  0.80068  0.68482  1.0000
  H   H1034     1.0  0.60633  0.54327  0.97829  1.0000
  C   C600      1.0  0.52708  0.88614  0.51299  1.0000
  C   C601      1.0  0.43165  0.90188  0.55235  1.0000
  C   C602      1.0  0.41195  0.99504  0.62189  1.0000
  C   C603      1.0  0.65200  0.77262  0.50863  1.0000
  H   H1035     1.0  0.61069  0.67200  0.95552  1.0000
  H   H1036     1.0  0.64579  0.77313  0.83205  1.0000
  H   H1037     1.0  0.35033  0.94556  0.55733  1.0000
  H   H1038     1.0  0.47909  0.98464  0.52083  1.0000
  H   H1039     1.0  0.42570  0.66281  0.99235  1.0000
  H   H1040     1.0  0.57884  0.51219  0.95375  1.0000
  H   H1041     1.0  0.52254  0.88571  0.55515  1.0000
  C   C604      1.0  0.55906  0.67713  0.79827  1.0000
  H   H1042     1.0  0.38382  0.91362  0.53605  1.0000
  C   C605      1.0  0.41276  0.50377  0.84869  1.0000
  H   H1043     1.0  0.44943  0.94878  0.55285  1.0000
  H   H1044     1.0  0.46980  0.57812  0.81498  1.0000
  C   C606      1.0  0.44344  0.94489  0.53220  1.0000
  H   H1045     1.0  0.37699  0.88715  0.69489  1.0000
  H   H1046     1.0  0.62190  0.80329  0.62770  1.0000
  C   C607      1.0  0.40343  0.96876  0.63363  1.0000
  C   C608      1.0  0.56091  0.50768  0.80232  1.0000
  H   H1047     1.0  0.45170  0.63478  0.94145  1.0000
  H   H1048     1.0  0.37315  0.68855  0.91687  1.0000
  H   H1049     1.0  0.55293  0.89958  0.54444  1.0000
  H   H1050     1.0  0.33270  0.75748  0.67111  1.0000
  H   H1051     1.0  0.38218  0.96541  0.63033  1.0000
  C   C609      1.0  0.36633  0.95987  0.56119  1.0000
  H   H1052     1.0  0.59849  0.96115  0.54813  1.0000
  C   C610      1.0  0.40539  0.51808  0.80368  1.0000
  C   C611      1.0  0.42124  0.81251  0.78400  1.0000
  H   H1053     1.0  0.54224  0.66516  0.79120  1.0000
  H   H1054     1.0  0.46846  0.57779  0.91578  1.0000
  C   C612      1.0  0.52600  0.51814  0.87490  1.0000
  H   H1055     1.0  0.59001  0.72073  0.79681  1.0000
  C   C613      1.0  0.39745  0.93075  0.53591  1.0000
  H   H1056     1.0  0.40774  0.96821  0.65495  1.0000
  N   N33       1.0  0.41184  0.62406  0.95168  1.0000
  H   H1057     1.0  0.39308  0.93252  0.57857  1.0000
  H   H1058     1.0  0.44963  0.85238  0.56897  1.0000
  H   H1059     1.0  0.53482  0.86584  0.51382  1.0000
  C   C614      1.0  0.53165  0.89823  0.53997  1.0000
  H   H1060     1.0  0.43641  0.82799  0.78177  1.0000
  H   H1061     1.0  0.41435  0.95250  0.62435  1.0000
  H   H1062     1.0  0.58964  0.78784  0.81967  1.0000
  H   H1063     1.0  0.60437  0.65182  0.92735  1.0000
  C   C615      1.0  0.40403  0.65128  0.94305  1.0000
  H   H1064     1.0  0.61432  0.73784  0.84448  1.0000
  H   H1065     1.0  0.64485  0.54251  0.94584  1.0000
  H   H1066     1.0  0.53559  0.64694  0.97676  1.0000
  C   C616      1.0  0.50745  0.53595  0.88994  1.0000
  N   N34       1.0  0.40069  0.80817  0.71004  1.0000
  C   C617      1.0  0.41892  0.80416  0.68738  1.0000
  C   C618      1.0  0.38846  0.83523  0.70883  1.0000
  C   C619      1.0  0.41698  0.80664  0.73484  1.0000
  C   C620      1.0  0.37992  0.78714  0.71131  1.0000
  C   C621      1.0  0.36244  0.78378  0.68668  1.0000
  C   C622      1.0  0.43200  0.77679  0.68549  1.0000
  C   C623      1.0  0.40244  0.81275  0.76063  1.0000
  C   C624      1.0  0.38227  0.84696  0.68143  1.0000
  C   C625      1.0  0.39149  0.68311  0.90685  1.0000
  H   H1067     1.0  0.36577  0.97531  0.54583  1.0000
  C   C626      1.0  0.44959  0.77523  0.66161  1.0000
  H   H1068     1.0  0.43475  0.81925  0.68790  1.0000
  H   H1069     1.0  0.40878  0.80725  0.66838  1.0000
  H   H1070     1.0  0.37013  0.83560  0.72036  1.0000
  H   H1071     1.0  0.40165  0.85000  0.71826  1.0000
  H   H1072     1.0  0.43403  0.82032  0.73358  1.0000
  H   H1073     1.0  0.42542  0.78672  0.73752  1.0000
  H   H1074     1.0  0.38889  0.76784  0.71629  1.0000
  H   H1075     1.0  0.36623  0.79112  0.72752  1.0000
  H   H1076     1.0  0.37405  0.78208  0.66863  1.0000
  H   H1077     1.0  0.41692  0.60301  0.98821  1.0000
  H   H1078     1.0  0.44439  0.77257  0.70283  1.0000
  H   H1079     1.0  0.41708  0.76106  0.68352  1.0000
  H   H1080     1.0  0.38719  0.79776  0.76450  1.0000
  H   H1081     1.0  0.39309  0.83235  0.76004  1.0000
  H   H1082     1.0  0.40078  0.85224  0.67161  1.0000
  H   H1083     1.0  0.37156  0.83315  0.66856  1.0000
  C   C627      1.0  0.61847  0.79245  0.58660  1.0000
  C   C628      1.0  0.45965  0.89042  0.55214  1.0000
  H   H1084     1.0  0.61300  0.50549  0.94887  1.0000
  H   H1085     1.0  0.62344  0.74310  0.49646  1.0000
  N   N35       1.0  0.65947  0.78371  0.55810  1.0000
  N   N36       1.0  0.42602  0.50873  0.82289  1.0000
  H   H1086     1.0  0.45886  0.75558  0.66071  1.0000
  H   H1087     1.0  0.43803  0.77837  0.64336  1.0000
  H   H1088     1.0  0.46529  0.79030  0.66276  1.0000
  H   H1089     1.0  0.43084  0.79306  0.78595  1.0000
  H   H1090     1.0  0.40195  0.55912  0.81741  1.0000
  H   H1091     1.0  0.57508  0.67552  0.78391  1.0000
  N   N37       1.0  0.56757  0.75175  0.81494  1.0000
  H   H1092     1.0  0.38641  0.65798  0.95368  1.0000
  H   H1093     1.0  0.64795  0.55805  0.98975  1.0000
  C   C629      1.0  0.54945  0.75400  0.83789  1.0000
  C   C630      1.0  0.55415  0.76359  0.79134  1.0000
  C   C631      1.0  0.56897  0.76146  0.76518  1.0000
  H   H1094     1.0  0.43908  0.57623  0.95308  1.0000
  C   C632      1.0  0.54442  0.78223  0.84807  1.0000
  C   C633      1.0  0.57366  0.72309  0.81077  1.0000
  C   C634      1.0  0.36326  0.60877  0.94935  1.0000
  C   C635      1.0  0.55217  0.77170  0.74248  1.0000
  H   H1095     1.0  0.50789  0.77235  0.86759  1.0000
  H   H1096     1.0  0.58083  0.71402  0.82933  1.0000
  C   C636      1.0  0.59290  0.76623  0.81980  1.0000
  H   H1097     1.0  0.60667  0.76270  0.80352  1.0000
  C   C637      1.0  0.39229  0.60379  0.94232  1.0000
  H   H1098     1.0  0.65838  0.80349  0.59554  1.0000
  H   H1099     1.0  0.52989  0.74569  0.83278  1.0000
  H   H1100     1.0  0.53443  0.75483  0.78855  1.0000
  H   H1101     1.0  0.55052  0.78487  0.79440  1.0000
  H   H1102     1.0  0.57421  0.74088  0.76071  1.0000
  H   H1103     1.0  0.58712  0.77344  0.76584  1.0000
  H   H1104     1.0  0.40802  0.96133  0.56506  1.0000
  H   H1105     1.0  0.54284  0.71230  0.78202  1.0000
  H   H1106     1.0  0.53447  0.79433  0.83294  1.0000
  H   H1107     1.0  0.39328  0.60145  0.92075  1.0000
  H   H1108     1.0  0.53441  0.70609  0.81550  1.0000
  H   H1109     1.0  0.53667  0.77085  0.88838  1.0000
  C   C638      1.0  0.52701  0.78176  0.87214  1.0000
  H   H1110     1.0  0.53452  0.75919  0.73982  1.0000
  H   H1111     1.0  0.65228  0.60836  0.90788  1.0000
  H   H1112     1.0  0.56354  0.77125  0.72414  1.0000
  H   H1113     1.0  0.48666  0.56947  0.94492  1.0000
  H   H1114     1.0  0.54595  0.79227  0.74606  1.0000
  C   C639      1.0  0.55055  0.70569  0.80126  1.0000
  C   C640      1.0  0.63239  0.77560  0.84880  1.0000
  H   H1115     1.0  0.52330  0.80215  0.87873  1.0000
  H   H1116     1.0  0.61131  0.82961  0.60648  1.0000
  H   H1117     1.0  0.41035  0.81644  0.80222  1.0000
  H   H1118     1.0  0.43588  0.61430  0.91866  1.0000
  H   H1119     1.0  0.35120  0.56767  0.94602  1.0000
  Fe  Fe71      1.0  0.63553  0.52229  0.86151  1.0000
  Fe  Fe72      1.0  0.62998  0.86253  0.51155  1.0000
  H   H1120     1.0  0.55592  0.60523  0.99211  1.0000
  C   C641      1.0  0.37117  0.55159  0.78984  1.0000
  H   H1121     1.0  0.35798  0.53545  0.78338  1.0000
  H   H1122     1.0  0.59392  0.52184  0.92353  1.0000
  H   H1123     1.0  0.47596  0.52089  0.79738  1.0000
  C   C642      1.0  0.60793  0.75862  0.84521  1.0000
  C   C643      1.0  0.45232  0.59340  0.95168  1.0000
  H   H1124     1.0  0.41693  0.65020  0.90221  1.0000
  H   H1125     1.0  0.39107  0.50197  0.79985  1.0000
  H   H1126     1.0  0.35624  0.62774  0.94131  1.0000
  H   H1127     1.0  0.41749  0.88515  0.55166  1.0000
  H   H1128     1.0  0.50555  0.96392  0.51055  1.0000
  C   C644      1.0  0.38921  0.54233  0.81197  1.0000
  H   H1129     1.0  0.43320  0.96308  0.52563  1.0000
  H   H1130     1.0  0.41247  0.88990  0.50576  1.0000
  H   H1131     1.0  0.39058  0.94374  0.51978  1.0000
  H   H1132     1.0  0.56408  0.52613  0.81342  1.0000
  H   H1133     1.0  0.41392  0.52268  0.78441  1.0000
  H   H1134     1.0  0.35892  0.56806  0.79687  1.0000
  N   N38       1.0  0.42508  0.92157  0.53115  1.0000
  H   H1135     1.0  0.40662  0.52256  0.85750  1.0000
  C   C645      1.0  0.46332  0.53741  0.80341  1.0000
  H   H1136     1.0  0.52871  0.52701  0.85531  1.0000
  H   H1137     1.0  0.48821  0.53741  0.87979  1.0000
  H   H1138     1.0  0.58608  0.64667  0.95698  1.0000
  H   H1139     1.0  0.49381  0.56526  0.79306  1.0000
  H   H1140     1.0  0.62723  0.63400  0.98028  1.0000
  H   H1141     1.0  0.64293  0.76962  0.86694  1.0000
  H   H1142     1.0  0.34663  0.58688  0.91652  1.0000
  C   C646      1.0  0.42515  0.90778  0.50508  1.0000
  H   H1143     1.0  0.49463  0.96239  0.54386  1.0000
  S   S141      1.0  0.64120  0.49790  0.89745  1.0000
  H   H1144     1.0  0.44797  0.49879  0.87395  1.0000
  H   H1145     1.0  0.47411  0.90604  0.55677  1.0000
  S   S142      1.0  0.34320  0.50461  0.87533  1.0000
  C   C647      1.0  0.59709  0.51983  0.94496  1.0000
  H   H1146     1.0  0.61739  0.98320  0.52814  1.0000
  H   H1147     1.0  0.60108  0.99167  0.58526  1.0000
  C   C648      1.0  0.60970  0.80822  0.61031  1.0000
  H   H1148     1.0  0.64944  0.74774  0.57828  1.0000
  H   H1149     1.0  0.60385  0.79558  0.57071  1.0000
  H   H1150     1.0  0.61786  0.77146  0.59216  1.0000
  H   H1151     1.0  0.56200  0.90357  0.49690  1.0000
  H   H1152     1.0  0.47870  0.92437  0.51750  1.0000
  C   C649      1.0  0.36609  0.87203  0.68353  1.0000
  H   H1153     1.0  0.33294  0.75993  0.70623  1.0000
  H   H1154     1.0  0.64532  0.63896  0.95040  1.0000
  H   H1155     1.0  0.43347  0.99649  0.62481  1.0000
  H   H1156     1.0  0.55328  0.51290  0.78260  1.0000
  S   S143      1.0  0.33574  0.58040  0.85762  1.0000
  C   C650      1.0  0.34552  0.75908  0.68870  1.0000
  H   H1157     1.0  0.45253  0.64163  0.98485  1.0000
  H   H1158     1.0  0.66008  0.57393  0.90458  1.0000
  H   H1159     1.0  0.52297  0.50129  0.81908  1.0000
  H   H1160     1.0  0.39382  0.62860  0.98944  1.0000
  H   H1161     1.0  0.44480  0.90003  0.50059  1.0000
  H   H1162     1.0  0.50558  0.63818  0.99321  1.0000
  H   H1163     1.0  0.44088  0.70884  0.99356  1.0000
  C   C651      1.0  0.43305  0.64240  0.99406  1.0000
  N   N39       1.0  0.84035  0.20737  0.44485  1.0000
  S   S144      1.0  0.68638  0.47387  0.12330  1.0000
  H   H1164     1.0  0.92365  0.45244  0.33094  1.0000
  H   H1165     1.0  0.86823  0.36552  0.17152  1.0000
  H   H1166     1.0  0.95267  0.48011  0.34686  1.0000
  H   H1167     1.0  0.87420  0.43731  0.18777  1.0000
  C   C652      1.0  0.81493  0.41816  0.44747  1.0000
  H   H1168     1.0  0.88876  0.21224  0.41246  1.0000
  H   H1169     1.0  0.79868  0.24412  0.42751  1.0000
  H   H1170     1.0  0.84252  0.48321  0.22946  1.0000
  S   S145      1.0  0.87575  0.46301  0.38756  1.0000
  S   S146      1.0  0.86871  0.46760  0.30810  1.0000
  Fe  Fe73      1.0  0.85737  0.33240  0.45853  1.0000
  S   S147      1.0  0.86791  0.29152  0.47206  1.0000
  S   S148      1.0  0.85306  0.34383  0.41574  1.0000
  H   H1171     1.0  0.98757  0.40217  0.34462  1.0000
  H   H1172     1.0  0.97094  0.42351  0.45029  1.0000
  C   C653      1.0  0.81438  0.45289  0.18449  1.0000
  H   H1173     1.0  0.89379  0.21448  0.44712  1.0000
  H   H1174     1.0  0.92653  0.43128  0.37399  1.0000
  H   H1175     1.0  0.82575  0.41598  0.29468  1.0000
  H   H1176     1.0  0.84077  0.47635  0.46917  1.0000
  C   C654      1.0  0.84986  0.43413  0.24924  1.0000
  C   C655      1.0  0.84603  0.21676  0.47231  1.0000
  C   C656      1.0  0.87100  0.42921  0.39327  1.0000
  C   C657      1.0  0.88170  0.41830  0.41614  1.0000
  C   C658      1.0  0.87652  0.39213  0.42298  1.0000
  C   C659      1.0  0.86095  0.37641  0.40676  1.0000
  C   C660      1.0  0.85118  0.38697  0.38321  1.0000
  C   C661      1.0  0.85597  0.41342  0.37657  1.0000
  H   H1177     1.0  0.89378  0.43022  0.42885  1.0000
  H   H1178     1.0  0.88464  0.38415  0.44081  1.0000
  H   H1179     1.0  0.83926  0.37485  0.37045  1.0000
  H   H1180     1.0  0.84765  0.42166  0.35885  1.0000
  H   H1181     1.0  0.85958  0.40563  0.29488  1.0000
  H   H1182     1.0  0.89110  0.37702  0.19597  1.0000
  C   C662      1.0  0.98982  0.44446  0.35391  1.0000
  C   C663      1.0  0.96851  0.41305  0.40900  1.0000
  C   C664      1.0  0.95599  0.47485  0.36776  1.0000
  C   C665      1.0  0.87693  0.38334  0.18062  1.0000
  H   H1183     1.0  0.99066  0.46152  0.28126  1.0000
  H   H1184     1.0  0.69273  0.24506  0.48248  1.0000
  H   H1185     1.0  0.77357  0.26733  0.46827  1.0000
  H   H1186     1.0  0.85454  0.18038  0.41575  1.0000
  H   H1187     1.0  0.82568  0.40405  0.46029  1.0000
  N   N40       1.0  0.96561  0.44691  0.37033  1.0000
  S   S149      1.0  0.88515  0.35253  0.48616  1.0000
  H   H1188     1.0  0.78363  0.45432  0.15494  1.0000
  C   C666      1.0  0.96582  0.32156  0.47807  1.0000
  H   H1189     1.0  0.87028  0.43564  0.25678  1.0000
  H   H1190     1.0  0.84496  0.38783  0.20694  1.0000
  C   C667      1.0  0.93390  0.43336  0.33266  1.0000
  H   H1191     1.0  0.84196  0.28499  0.41850  1.0000
  H   H1192     1.0  0.93665  0.47687  0.37747  1.0000
  H   H1193     1.0  0.76815  0.48101  0.40087  1.0000
  N   N41       1.0  0.81372  0.44481  0.46016  1.0000
  S   S150      1.0  0.82250  0.33510  0.48480  1.0000
  H   H1194     1.0  0.85663  0.47727  0.19848  1.0000
  H   H1195     1.0  0.77215  0.37026  0.42258  1.0000
  C   C668      1.0  0.88573  0.45466  0.48536  1.0000
  C   C669      1.0  0.91427  0.41216  0.32456  1.0000
  H   H1196     1.0  0.77546  0.41808  0.42910  1.0000
  H   H1197     1.0  0.94941  0.40811  0.36266  1.0000
  C   C670      1.0  0.84116  0.45547  0.46301  1.0000
  C   C671      1.0  0.90946  0.17972  0.42934  1.0000
  C   C672      1.0  0.94379  0.42905  0.36105  1.0000
  H   H1198     1.0  0.77229  0.44632  0.18713  1.0000
  C   C673      1.0  0.74012  0.21039  0.48186  1.0000
  H   H1199     1.0  0.82651  0.41905  0.42925  1.0000
  H   H1200     1.0  0.99160  0.34032  0.45054  1.0000
  H   H1201     1.0  0.89923  0.46285  0.22385  1.0000
  S   S151      1.0  0.66709  0.13153  0.45150  1.0000
  H   H1202     1.0  0.92873  0.18908  0.42568  1.0000
  C   C674      1.0  0.86083  0.18873  0.43493  1.0000
  C   C675      1.0  0.84000  0.40221  0.28591  1.0000
  H   H1203     1.0  0.78947  0.42201  0.16827  1.0000
  H   H1204     1.0  0.80922  0.18912  0.42240  1.0000
  C   C676      1.0  0.81851  0.25181  0.43211  1.0000
  H   H1205     1.0  0.92342  0.39242  0.32539  1.0000
  H   H1206     1.0  0.89701  0.41248  0.33752  1.0000
  H   H1207     1.0  0.90753  0.41592  0.30420  1.0000
  H   H1208     1.0  0.77675  0.45905  0.44441  1.0000
  H   H1209     1.0  0.85109  0.45559  0.44381  1.0000
  C   C677      1.0  0.68134  0.00367  0.46376  1.0000
  H   H1210     1.0  0.80742  0.29114  0.41993  1.0000
  H   H1211     1.0  0.82754  0.22271  0.48163  1.0000
  H   H1212     1.0  0.80064  0.38349  0.40687  1.0000
  C   C678      1.0  0.85959  0.44037  0.48200  1.0000
  H   H1213     1.0  0.82545  0.15483  0.45769  1.0000
  H   H1214     1.0  0.86295  0.17146  0.44798  1.0000
  H   H1215     1.0  0.85829  0.23485  0.47212  1.0000
  C   C679      1.0  0.79151  0.37960  0.42607  1.0000
  H   H1216     1.0  0.80338  0.44723  0.40426  1.0000
  C   C680      1.0  0.79798  0.46386  0.44375  1.0000
  H   H1217     1.0  0.95020  0.43291  0.31858  1.0000
  H   H1218     1.0  0.68749  0.10330  0.39686  1.0000
  H   H1219     1.0  0.77773  0.40023  0.45947  1.0000
  H   H1220     1.0  0.88435  0.42038  0.21627  1.0000
  H   H1221     1.0  0.94822  0.32989  0.46961  1.0000
  C   C681      1.0  0.97451  0.49651  0.37880  1.0000
  H   H1222     1.0  0.83813  0.44802  0.26108  1.0000
  C   C682      1.0  0.82023  0.44041  0.21162  1.0000
  C   C683      1.0  0.99194  0.48178  0.28743  1.0000
  C   C684      1.0  0.78812  0.40513  0.44117  1.0000
  C   C685      1.0  0.84092  0.40597  0.25627  1.0000
  H   H1223     1.0  0.68424  0.00450  0.44292  1.0000
  H   H1224     1.0  0.80868  0.17520  0.48105  1.0000
  H   H1225     1.0  0.88395  0.47677  0.25209  1.0000
  H   H1226     1.0  0.97953  0.49298  0.39963  1.0000
  H   H1227     1.0  0.82110  0.40150  0.24854  1.0000
  H   H1228     1.0  0.82023  0.27114  0.39405  1.0000
  H   H1229     1.0  0.73255  0.47952  0.20747  1.0000
  C   C686      1.0  0.88842  0.20087  0.43102  1.0000
  H   H1230     1.0  0.86363  0.42036  0.47457  1.0000
  C   C687      1.0  0.83975  0.23086  0.42667  1.0000
  C   C688      1.0  0.76340  0.48513  0.23637  1.0000
  H   H1231     1.0  0.85508  0.39151  0.24866  1.0000
  H   H1232     1.0  0.80391  0.36567  0.43733  1.0000
  H   H1233     1.0  0.76727  0.16959  0.45502  1.0000
  H   H1234     1.0  0.73744  0.23927  0.45110  1.0000
  C   C689      1.0  0.86663  0.42566  0.20455  1.0000
  Fe  Fe74      1.0  0.90059  0.49722  0.30083  1.0000
  H   H1235     1.0  0.88744  0.39455  0.16530  1.0000
  C   C690      1.0  0.82234  0.27617  0.41506  1.0000
  C   C691      1.0  0.80974  0.16946  0.46017  1.0000
  H   H1236     1.0  0.95866  0.45348  0.41157  1.0000
  H   H1237     1.0  0.79821  0.20785  0.44940  1.0000
  H   H1238     1.0  0.81924  0.25809  0.45282  1.0000
  H   H1239     1.0  0.83719  0.22436  0.40601  1.0000
  H   H1240     1.0  0.85874  0.24158  0.42758  1.0000
  C   C692      1.0  0.97179  0.44170  0.39890  1.0000
  S   S152      1.0  0.68200  0.05772  0.46131  1.0000
  H   H1241     1.0  0.83378  0.38184  0.29055  1.0000
  C   C693      1.0  0.99044  0.32749  0.46735  1.0000
  C   C694      1.0  0.78393  0.15582  0.45319  1.0000
  C   C695      1.0  0.85675  0.47047  0.21915  1.0000
  H   H1242     1.0  0.78061  0.13905  0.46667  1.0000
  H   H1243     1.0  0.97787  0.39851  0.39616  1.0000
  C   C696      1.0  0.98019  0.40972  0.43642  1.0000
  H   H1244     1.0  0.83002  0.44852  0.17033  1.0000
  C   C697      1.0  0.78835  0.44321  0.17309  1.0000
  Fe  Fe75      1.0  0.67358  0.09770  0.47937  1.0000
  C   C698      1.0  0.81385  0.19423  0.44311  1.0000
  S   S153      1.0  0.71355  0.19139  0.46885  1.0000
  C   C699      1.0  0.85532  0.40004  0.19246  1.0000
  N   N42       1.0  0.84835  0.44202  0.22082  1.0000
  C   C700      1.0  0.75038  0.49000  0.21231  1.0000
  H   H1245     1.0  0.81311  0.41986  0.21121  1.0000
  H   H1246     1.0  0.91085  0.16858  0.44799  1.0000
  H   H1247     1.0  0.80726  0.45029  0.22588  1.0000
  H   H1248     1.0  0.75528  0.47093  0.24980  1.0000
  H   H1249     1.0  0.84117  0.40475  0.17655  1.0000
  H   H1250     1.0  0.98604  0.45200  0.33382  1.0000
  C   C701      1.0  0.86021  0.19753  0.49127  1.0000
  H   H1251     1.0  0.97666  0.38936  0.44343  1.0000
  C   C702      1.0  0.88431  0.47705  0.23044  1.0000
  H   H1252     1.0  0.99204  0.44834  0.40376  1.0000
  S   S154      1.0  0.93817  0.48158  0.28338  1.0000
  C   C703      1.0  0.80070  0.44184  0.48630  1.0000
  H   H1253     1.0  0.88090  0.19500  0.48553  1.0000
  H   H1254     1.0  0.68428  0.27836  0.49026  1.0000
  H   H1255     1.0  0.94736  0.40801  0.41007  1.0000
  C   C704      1.0  0.76838  0.24943  0.47838  1.0000
  Fe  Fe76      1.0  0.68709  0.15710  0.48198  1.0000
  Fe  Fe77      1.0  0.86807  0.48346  0.34882  1.0000
  C   C705      1.0  0.80588  0.46617  0.41463  1.0000
  C   C706      1.0  0.74779  0.23347  0.46872  1.0000
  H   H1256     1.0  0.90500  0.16595  0.41310  1.0000
  S   S155      1.0  0.66694  0.48823  0.04815  1.0000
  H   H1257     1.0  0.81310  0.47456  0.18644  1.0000
  C   C707      1.0  0.67980  0.02715  0.47805  1.0000
  H   H1258     1.0  0.77970  0.43665  0.48360  1.0000
  H   H1259     1.0  0.85100  0.17789  0.49157  1.0000
  H   H1260     1.0  0.89529  0.45766  0.46622  1.0000
  S   S156      1.0  0.80321  0.48951  0.27315  1.0000
  H   H1261     1.0  0.78434  0.14823  0.43289  1.0000
  H   H1262     1.0  0.68064  0.10101  0.36211  1.0000
  H   H1263     1.0  0.67521  0.13139  0.37920  1.0000
  H   H1264     1.0  0.82650  0.47250  0.41288  1.0000
  H   H1265     1.0  0.79954  0.48398  0.45201  1.0000
  C   C708      1.0  0.67410  0.10966  0.38081  1.0000
  C   C709      1.0  0.78917  0.48652  0.40025  1.0000
  H   H1266     1.0  0.79515  0.48755  0.37947  1.0000
  C   C710      1.0  0.96886  0.49632  0.29069  1.0000
  H   H1267     1.0  0.79199  0.48338  0.49465  1.0000
  H   H1268     1.0  0.74442  0.15448  0.57777  1.0000
  Fe  Fe78      1.0  0.89339  0.31219  0.50175  1.0000
  Fe  Fe79      1.0  0.85509  0.46828  0.65976  1.0000
  S   S157      1.0  0.85129  0.42510  0.65008  1.0000
  H   H1269     1.0  0.89890  0.44274  0.49804  1.0000
  H   H1270     1.0  0.78904  0.47825  0.54288  1.0000
  S   S158      1.0  0.69651  0.12255  0.50818  1.0000
  Fe  Fe80      1.0  0.85109  0.35284  0.51356  1.0000
  S   S159      1.0  0.86124  0.31389  0.53160  1.0000
  S   S160      1.0  0.84108  0.39265  0.53059  1.0000
  H   H1271     1.0  0.85985  0.45539  0.75354  1.0000
  H   H1272     1.0  0.69848  0.06006  0.60172  1.0000
  H   H1273     1.0  0.83998  0.20971  0.52650  1.0000
  C   C711      1.0  0.67716  0.02573  0.50516  1.0000
  H   H1274     1.0  0.98070  0.39671  0.52983  1.0000
  C   C712      1.0  0.67248  0.49628  0.96930  1.0000
  H   H1275     1.0  0.95286  0.36068  0.51370  1.0000
  H   H1276     1.0  0.67554  0.00007  0.53886  1.0000
  C   C713      1.0  0.84963  0.41626  0.61673  1.0000
  C   C714      1.0  0.84639  0.43528  0.59722  1.0000
  C   C715      1.0  0.84425  0.42772  0.57089  1.0000
  C   C716      1.0  0.84547  0.40113  0.56380  1.0000
  C   C717      1.0  0.84913  0.38212  0.58324  1.0000
  C   C718      1.0  0.85103  0.38968  0.60965  1.0000
  H   H1277     1.0  0.84521  0.45577  0.60248  1.0000
  H   H1278     1.0  0.84163  0.44255  0.55597  1.0000
  H   H1279     1.0  0.85006  0.36160  0.57798  1.0000
  H   H1280     1.0  0.85359  0.37487  0.62462  1.0000
  H   H1281     1.0  0.68799  0.22823  0.60050  1.0000
  H   H1282     1.0  0.71703  0.14579  0.55714  1.0000
  H   H1283     1.0  0.88338  0.43505  0.73730  1.0000
  N   N43       1.0  0.67856  0.21816  0.56049  1.0000
  C   C719      1.0  0.95080  0.36752  0.53411  1.0000
  C   C720      1.0  0.86418  0.43502  0.74724  1.0000
  H   H1284     1.0  0.74887  0.18503  0.51430  1.0000
  H   H1285     1.0  0.68722  0.09279  0.59365  1.0000
  C   C721      1.0  0.72360  0.26635  0.60069  1.0000
  H   H1286     1.0  0.87139  0.19466  0.53225  1.0000
  N   N44       1.0  0.79311  0.41498  0.72530  1.0000
  C   C722      1.0  0.77020  0.41102  0.74330  1.0000
  C   C723      1.0  0.80075  0.38927  0.71272  1.0000
  C   C724      1.0  0.81593  0.42428  0.74194  1.0000
  C   C725      1.0  0.78778  0.43570  0.70479  1.0000
  C   C726      1.0  0.76319  0.43154  0.68737  1.0000
  C   C727      1.0  0.76023  0.43592  0.75740  1.0000
  C   C728      1.0  0.84296  0.42507  0.72844  1.0000
  C   C729      1.0  0.77853  0.36953  0.70590  1.0000
  C   C730      1.0  0.78848  0.34750  0.68843  1.0000
  C   C731      1.0  0.75763  0.45557  0.67031  1.0000
  C   C732      1.0  0.73688  0.42953  0.77470  1.0000
  H   H1287     1.0  0.67975  0.17658  0.55245  1.0000
  H   H1288     1.0  0.77532  0.39616  0.75853  1.0000
  H   H1289     1.0  0.75305  0.40268  0.73280  1.0000
  H   H1290     1.0  0.81228  0.39308  0.69469  1.0000
  H   H1291     1.0  0.81406  0.37797  0.72597  1.0000
  H   H1292     1.0  0.81810  0.41162  0.75964  1.0000
  H   H1293     1.0  0.81247  0.44452  0.74925  1.0000
  H   H1294     1.0  0.78658  0.45547  0.71395  1.0000
  H   H1295     1.0  0.80448  0.43720  0.69111  1.0000
  H   H1296     1.0  0.74549  0.42788  0.69910  1.0000
  H   H1297     1.0  0.76641  0.41490  0.67389  1.0000
  H   H1298     1.0  0.77557  0.44462  0.77018  1.0000
  H   H1299     1.0  0.75372  0.45086  0.74299  1.0000
  H   H1300     1.0  0.84241  0.43827  0.71127  1.0000
  H   H1301     1.0  0.84908  0.40537  0.72172  1.0000
  H   H1302     1.0  0.77110  0.36038  0.72412  1.0000
  H   H1303     1.0  0.76177  0.37886  0.69579  1.0000
  H   H1304     1.0  0.80492  0.33693  0.69811  1.0000
  H   H1305     1.0  0.77247  0.33325  0.68445  1.0000
  H   H1306     1.0  0.79524  0.35560  0.66946  1.0000
  C   C733      1.0  0.96404  0.30485  0.49971  1.0000
  C   C734      1.0  0.77450  0.21907  0.51415  1.0000
  H   H1307     1.0  0.73914  0.45253  0.65913  1.0000
  H   H1308     1.0  0.74240  0.41496  0.78995  1.0000
  H   H1309     1.0  0.67362  0.04197  0.56429  1.0000
  H   H1310     1.0  0.72030  0.42175  0.76284  1.0000
  S   S161      1.0  0.80855  0.26132  0.51422  1.0000
  H   H1311     1.0  0.86565  0.42212  0.76471  1.0000
  H   H1312     1.0  0.82184  0.47177  0.50945  1.0000
  H   H1313     1.0  0.70782  0.07531  0.57139  1.0000
  C   C735      1.0  0.78193  0.24235  0.50121  1.0000
  H   H1314     1.0  0.74266  0.27607  0.59681  1.0000
  H   H1315     1.0  0.97208  0.38940  0.56296  1.0000
  C   C736      1.0  0.75388  0.20313  0.50449  1.0000
  C   C737      1.0  0.78717  0.46098  0.52979  1.0000
  H   H1316     1.0  0.98595  0.28091  0.52691  1.0000
  C   C738      1.0  0.97609  0.38061  0.54358  1.0000
  C   C739      1.0  0.96474  0.49113  0.68787  1.0000
  C   C740      1.0  0.71482  0.25093  0.57657  1.0000
  H   H1317     1.0  0.99262  0.34709  0.56224  1.0000
  H   H1318     1.0  0.86470  0.49310  0.57099  1.0000
  C   C741      1.0  0.71693  0.18624  0.57092  1.0000
  C   C742      1.0  0.72306  0.15712  0.57468  1.0000
  H   H1319     1.0  0.67874  0.18419  0.58625  1.0000
  S   S162      1.0  0.87620  0.47998  0.69680  1.0000
  H   H1320     1.0  0.93444  0.38179  0.53464  1.0000
  H   H1321     1.0  0.80917  0.42498  0.49735  1.0000
  H   H1322     1.0  0.70972  0.22597  0.53288  1.0000
  H   H1323     1.0  0.66280  0.07427  0.55508  1.0000
  H   H1324     1.0  0.78496  0.21318  0.53168  1.0000
  S   S163      1.0  0.69632  0.47713  0.87205  1.0000
  C   C743      1.0  0.86029  0.20813  0.51918  1.0000
  H   H1325     1.0  0.76607  0.45722  0.52593  1.0000
  C   C744      1.0  0.98713  0.29403  0.51032  1.0000
  H   H1326     1.0  0.71384  0.26498  0.56000  1.0000
  H   H1327     1.0  0.73034  0.23663  0.57208  1.0000
  H   H1328     1.0  0.73023  0.44766  0.78462  1.0000
  H   H1329     1.0  0.79568  0.44367  0.54002  1.0000
  C   C745      1.0  0.80148  0.46631  0.50426  1.0000
  H   H1330     1.0  0.67642  0.04364  0.51635  1.0000
  H   H1331     1.0  0.72795  0.19322  0.55381  1.0000
  H   H1332     1.0  0.72412  0.19657  0.58867  1.0000
  C   C746      1.0  0.69172  0.07310  0.58562  1.0000
  H   H1333     1.0  0.71266  0.14911  0.59193  1.0000
  H   H1334     1.0  0.68327  0.20859  0.51956  1.0000
  S   S164      1.0  0.93364  0.29720  0.51444  1.0000
  H   H1335     1.0  0.70907  0.28172  0.60547  1.0000
  H   H1336     1.0  0.86967  0.22784  0.51997  1.0000
  H   H1337     1.0  0.77360  0.45852  0.65607  1.0000
  H   H1338     1.0  0.85108  0.43857  0.50166  1.0000
  S   S165      1.0  0.81886  0.49097  0.66884  1.0000
  C   C747      1.0  0.68721  0.19067  0.56742  1.0000
  C   C748      1.0  0.68772  0.23769  0.58085  1.0000
  H   H1339     1.0  0.94567  0.35050  0.54671  1.0000
  Fe  Fe81      1.0  0.83486  0.29570  0.50067  1.0000
  H   H1340     1.0  0.75554  0.47345  0.68248  1.0000
  H   H1341     1.0  0.72616  0.25299  0.61770  1.0000
  C   C749      1.0  0.68809  0.22476  0.53341  1.0000
  H   H1342     1.0  0.71335  0.26406  0.50446  1.0000
  C   C750      1.0  0.69286  0.25998  0.49825  1.0000
  H   H1343     1.0  0.94744  0.48210  0.69595  1.0000
  C   C751      1.0  0.66772  0.06137  0.57189  1.0000
  H   H1344     1.0  0.67576  0.26633  0.53589  1.0000
  C   C752      1.0  0.98952  0.47972  0.69220  1.0000
  C   C753      1.0  0.67654  0.00108  0.51782  1.0000
  H   H1345     1.0  0.67353  0.25415  0.58251  1.0000
  H   H1346     1.0  0.66445  0.48635  0.95238  1.0000
  C   C754      1.0  0.67672  0.25034  0.52129  1.0000
  H   H1347     1.0  0.99109  0.46185  0.70355  1.0000
  C   C755      1.0  0.66521  0.48833  0.99459  1.0000
  H   H1348     1.0  0.88279  0.47401  0.49481  1.0000
  H   H1349     1.0  0.95461  0.58528  0.38046  1.0000
  S   S166      1.0  0.69635  0.53560  0.10850  1.0000
  Fe  Fe82      1.0  0.67479  0.50149  0.09031  1.0000
  C   C756      1.0  0.86336  0.85457  0.42229  1.0000
  C   C757      1.0  0.73876  0.59354  0.23949  1.0000
  Fe  Fe83      1.0  0.84041  0.50017  0.29718  1.0000
  H   H1350     1.0  0.75314  0.58605  0.22531  1.0000
  Fe  Fe84      1.0  0.84016  0.65671  0.47042  1.0000
  S   S167      1.0  0.85131  0.69764  0.45833  1.0000
  S   S168      1.0  0.82111  0.62539  0.44523  1.0000
  H   H1351     1.0  0.76579  0.57307  0.16145  1.0000
  H   H1352     1.0  0.70232  0.53048  0.03065  1.0000
  H   H1353     1.0  0.66754  0.58305  0.18072  1.0000
  S   S169      1.0  0.92799  0.69854  0.45952  1.0000
  H   H1354     1.0  0.97196  0.60931  0.48586  1.0000
  H   H1355     1.0  0.83362  0.78609  0.41228  1.0000
  H   H1356     1.0  0.97510  0.53853  0.38546  1.0000
  C   C758      1.0  0.74964  0.58277  0.15045  1.0000
  H   H1357     1.0  0.90224  0.74576  0.47835  1.0000
  H   H1358     1.0  0.74058  0.60992  0.18073  1.0000
  H   H1359     1.0  0.73429  0.57796  0.25394  1.0000
  C   C759      1.0  0.71325  0.60291  0.22589  1.0000
  S   S170      1.0  0.68427  0.88886  0.46532  1.0000
  H   H1360     1.0  0.87574  0.56251  0.45731  1.0000
  S   S171      1.0  0.83731  0.51369  0.33934  1.0000
  H   H1361     1.0  0.92931  0.72650  0.40998  1.0000
  H   H1362     1.0  0.84179  0.55784  0.44875  1.0000
  H   H1363     1.0  0.71478  0.60453  0.15692  1.0000
  C   C760      1.0  0.70637  0.53589  0.22741  1.0000
  Fe  Fe85      1.0  0.87105  0.54022  0.32976  1.0000
  S   S172      1.0  0.87948  0.58088  0.34567  1.0000
  S   S173      1.0  0.87268  0.52876  0.28710  1.0000
  Fe  Fe86      1.0  0.70491  0.50913  0.14342  1.0000
  C   C761      1.0  0.97077  0.52255  0.29847  1.0000
  H   H1364     1.0  0.95318  0.53404  0.30082  1.0000
  C   C762      1.0  0.69460  0.51668  0.24708  1.0000
  C   C763      1.0  0.83462  0.76842  0.42490  1.0000
  N   N45       1.0  0.87937  0.78256  0.44450  1.0000
  C   C764      1.0  0.83832  0.61246  0.41841  1.0000
  C   C765      1.0  0.86157  0.62391  0.40976  1.0000
  C   C766      1.0  0.87414  0.61386  0.38761  1.0000
  C   C767      1.0  0.86390  0.59199  0.37428  1.0000
  C   C768      1.0  0.84109  0.58005  0.38345  1.0000
  C   C769      1.0  0.82821  0.59044  0.40525  1.0000
  H   H1365     1.0  0.86951  0.64090  0.41972  1.0000
  H   H1366     1.0  0.89173  0.62325  0.38060  1.0000
  H   H1367     1.0  0.83292  0.56335  0.37323  1.0000
  H   H1368     1.0  0.81017  0.58157  0.41174  1.0000
  C   C770      1.0  0.93498  0.74724  0.40632  1.0000
  C   C771      1.0  0.71772  0.57358  0.18709  1.0000
  H   H1369     1.0  0.87853  0.51942  0.22794  1.0000
  C   C772      1.0  0.85932  0.54823  0.45725  1.0000
  Fe  Fe87      1.0  0.88942  0.68940  0.47934  1.0000
  C   C773      1.0  0.98319  0.59454  0.35030  1.0000
  H   H1370     1.0  0.85731  0.85024  0.40184  1.0000
  C   C774      1.0  0.76444  0.75473  0.48859  1.0000
  H   H1371     1.0  0.85245  0.75407  0.46014  1.0000
  C   C775      1.0  0.85194  0.77309  0.44955  1.0000
  H   H1372     1.0  0.75813  0.59832  0.13787  1.0000
  N   N46       1.0  0.69981  0.58330  0.20825  1.0000
  H   H1373     1.0  0.95798  0.52883  0.35610  1.0000
  C   C776      1.0  0.79712  0.51626  0.22526  1.0000
  C   C777      1.0  0.78415  0.52102  0.20112  1.0000
  H   H1374     1.0  0.81515  0.52645  0.22994  1.0000
  H   H1375     1.0  0.79250  0.53485  0.18745  1.0000
  C   C778      1.0  0.86650  0.52597  0.43869  1.0000
  H   H1376     1.0  0.78457  0.60966  0.48645  1.0000
  H   H1377     1.0  0.70701  0.55959  0.17417  1.0000
  C   C779      1.0  0.76068  0.50794  0.19438  1.0000
  H   H1378     1.0  0.92796  0.75310  0.38656  1.0000
  C   C780      1.0  0.69376  0.52108  0.01367  1.0000
  C   C781      1.0  0.67973  0.97903  0.47630  1.0000
  H   H1379     1.0  0.88371  0.86226  0.42253  1.0000
  H   H1380     1.0  0.67475  0.51040  0.24058  1.0000
  H   H1381     1.0  0.79744  0.77763  0.44310  1.0000
  H   H1382     1.0  0.89597  0.50544  0.20075  1.0000
  H   H1383     1.0  0.66439  0.57034  0.03502  1.0000
  H   H1384     1.0  0.87374  0.80411  0.40823  1.0000
  H   H1385     1.0  0.76994  0.60861  0.26437  1.0000
  H   H1386     1.0  0.93305  0.76025  0.44608  1.0000
  H   H1387     1.0  0.98218  0.60177  0.32980  1.0000
  H   H1388     1.0  0.75765  0.63200  0.24085  1.0000
  H   H1389     1.0  0.67051  0.55295  0.21498  1.0000
  C   C782      1.0  0.96180  0.52356  0.37687  1.0000
  H   H1390     1.0  0.99288  0.49753  0.36749  1.0000
  C   C783      1.0  0.74094  0.76885  0.48433  1.0000
  H   H1391     1.0  0.87169  0.52656  0.49110  1.0000
  H   H1392     1.0  0.73422  0.56208  0.19537  1.0000
  C   C784      1.0  0.98168  0.69748  0.46194  1.0000
  C   C785      1.0  0.87927  0.80782  0.42899  1.0000
  H   H1393     1.0  0.84042  0.82379  0.43895  1.0000
  H   H1394     1.0  0.69345  0.52584  0.26669  1.0000
  C   C786      1.0  0.92358  0.76528  0.42709  1.0000
  H   H1395     1.0  0.70000  0.60888  0.24189  1.0000
  H   H1396     1.0  0.84163  0.78658  0.46305  1.0000
  H   H1397     1.0  0.82486  0.58204  0.47825  1.0000
  H   H1398     1.0  0.72647  0.54073  0.23404  1.0000
  C   C787      1.0  0.72998  0.59484  0.16916  1.0000
  C   C788      1.0  0.89348  0.76192  0.42894  1.0000
  C   C789      1.0  0.95509  0.59288  0.36013  1.0000
  C   C790      1.0  0.86125  0.82994  0.43925  1.0000
  C   C791      1.0  0.80665  0.76124  0.43233  1.0000
  H   H1399     1.0  0.94560  0.61247  0.35944  1.0000
  H   H1400     1.0  0.86894  0.59056  0.48963  1.0000
  H   H1401     1.0  0.70766  0.52551  0.20844  1.0000
  Fe  Fe88      1.0  0.68392  0.85035  0.48782  1.0000
  S   S174      1.0  0.70877  0.81250  0.48437  1.0000
  H   H1402     1.0  0.85026  0.87003  0.42999  1.0000
  H   H1403     1.0  0.73870  0.62391  0.26951  1.0000
  H   H1404     1.0  0.73986  0.56805  0.13766  1.0000
  C   C792      1.0  0.68897  0.56056  0.22404  1.0000
  H   H1405     1.0  0.94348  0.57937  0.34750  1.0000
  H   H1406     1.0  0.80643  0.74330  0.44472  1.0000
  H   H1407     1.0  0.92908  0.78568  0.42197  1.0000
  C   C793      1.0  0.89291  0.78755  0.47034  1.0000
  H   H1408     1.0  0.99071  0.63313  0.36435  1.0000
  H   H1409     1.0  0.67878  0.60231  0.03939  1.0000
  C   C794      1.0  0.75197  0.61598  0.25443  1.0000
  H   H1410     1.0  0.84248  0.75193  0.41325  1.0000
  S   S175      1.0  0.66798  0.52042  0.16411  1.0000
  H   H1411     1.0  0.89934  0.81622  0.42820  1.0000
  C   C795      1.0  0.95844  0.69810  0.47635  1.0000
  H   H1412     1.0  0.88557  0.76125  0.40861  1.0000
  H   H1413     1.0  0.71740  0.62141  0.21508  1.0000
  S   S176      1.0  0.90133  0.51108  0.34194  1.0000
  H   H1414     1.0  0.79483  0.75734  0.41444  1.0000
  H   H1415     1.0  0.94307  0.52393  0.38768  1.0000
  H   H1416     1.0  0.79196  0.50628  0.40901  1.0000
  C   C796      1.0  0.67601  0.50040  0.01693  1.0000
  H   H1417     1.0  0.86663  0.83555  0.45951  1.0000
  H   H1418     1.0  0.84996  0.51197  0.43646  1.0000
  H   H1419     1.0  0.68103  0.96115  0.46503  1.0000
  H   H1420     1.0  0.88965  0.74188  0.43685  1.0000
  H   H1421     1.0  0.98067  0.69701  0.44084  1.0000
  C   C797      1.0  0.85401  0.53772  0.48524  1.0000
  H   H1422     1.0  0.87083  0.53424  0.41907  1.0000
  C   C798      1.0  0.78694  0.49807  0.24306  1.0000
  C   C799      1.0  0.73936  0.79598  0.48948  1.0000
  H   H1423     1.0  0.88410  0.51533  0.44586  1.0000
  C   C800      1.0  0.89317  0.50450  0.22220  1.0000
  S   S177      1.0  0.74579  0.51407  0.16305  1.0000
  H   H1424     1.0  0.99330  0.63128  0.46830  1.0000
  H   H1425     1.0  0.68348  0.61396  0.18335  1.0000
  H   H1426     1.0  0.83803  0.52287  0.48370  1.0000
  H   H1427     1.0  0.80682  0.55555  0.49184  1.0000
  H   H1428     1.0  0.68334  0.56725  0.24389  1.0000
  H   H1429     1.0  0.95666  0.74855  0.40688  1.0000
  H   H1430     1.0  0.91267  0.79619  0.46729  1.0000
  H   H1431     1.0  0.99130  0.57445  0.35012  1.0000
  C   C801      1.0  0.66428  0.59500  0.00004  1.0000
  C   C802      1.0  0.67695  0.59675  0.19496  1.0000
  H   H1432     1.0  0.72383  0.75863  0.47699  1.0000
  C   C803      1.0  0.89551  0.76344  0.48872  1.0000
  S   S178      1.0  0.87920  0.64766  0.48812  1.0000
  H   H1433     1.0  0.76520  0.73393  0.48449  1.0000
  C   C804      1.0  0.98387  0.62751  0.48739  1.0000
  H   H1434     1.0  0.91208  0.50930  0.23201  1.0000
  H   H1435     1.0  0.70710  0.49897  0.24871  1.0000
  H   H1436     1.0  0.91672  0.59911  0.49368  1.0000
  H   H1437     1.0  0.97075  0.64425  0.49159  1.0000
  H   H1438     1.0  0.88213  0.80245  0.48175  1.0000
  H   H1439     1.0  0.66272  0.62475  0.22413  1.0000
  C   C805      1.0  0.66256  0.59143  0.02964  1.0000
  H   H1440     1.0  0.66312  0.61622  0.99566  1.0000
  H   H1441     1.0  0.79432  0.55837  0.74783  1.0000
  S   S179      1.0  0.67114  0.86974  0.52532  1.0000
  N   N47       1.0  0.79080  0.58767  0.71717  1.0000
  S   S180      1.0  0.93250  0.53189  0.67117  1.0000
  C   C806      1.0  0.76767  0.50499  0.74425  1.0000
  C   C807      1.0  0.95033  0.53000  0.74935  1.0000
  H   H1442     1.0  0.79092  0.62385  0.73935  1.0000
  H   H1443     1.0  0.95863  0.59653  0.57022  1.0000
  H   H1444     1.0  0.70720  0.58384  0.91017  1.0000
  H   H1445     1.0  0.69272  0.60132  0.88306  1.0000
  S   S181      1.0  0.67744  0.94711  0.52047  1.0000
  H   H1446     1.0  0.76283  0.63587  0.77729  1.0000
  H   H1447     1.0  0.86199  0.59368  0.52307  1.0000
  Fe  Fe89      1.0  0.83879  0.52438  0.64805  1.0000
  S   S182      1.0  0.81560  0.55018  0.62016  1.0000
  S   S183      1.0  0.85787  0.53982  0.68461  1.0000
  Fe  Fe90      1.0  0.86217  0.66279  0.52528  1.0000
  S   S184      1.0  0.87508  0.70433  0.51768  1.0000
  S   S185      1.0  0.87662  0.64135  0.56160  1.0000
  C   C808      1.0  0.72776  0.81866  0.55678  1.0000
  C   C809      1.0  0.81564  0.62643  0.65591  1.0000
  H   H1448     1.0  0.90867  0.78601  0.52258  1.0000
  H   H1449     1.0  0.70561  0.72343  0.58972  1.0000
  H   H1450     1.0  0.74063  0.82754  0.57199  1.0000
  C   C810      1.0  0.82182  0.57079  0.49653  1.0000
  H   H1451     1.0  0.80570  0.63580  0.63890  1.0000
  H   H1452     1.0  0.85194  0.50350  0.52591  1.0000
  C   C811      1.0  0.83268  0.57551  0.60402  1.0000
  C   C812      1.0  0.81889  0.59315  0.58793  1.0000
  C   C813      1.0  0.83211  0.61338  0.57466  1.0000
  C   C814      1.0  0.85920  0.61608  0.57747  1.0000
  C   C815      1.0  0.87292  0.59858  0.59379  1.0000
  C   C816      1.0  0.85974  0.57834  0.60699  1.0000
  H   H1453     1.0  0.79790  0.59124  0.58580  1.0000
  H   H1454     1.0  0.82132  0.62717  0.56264  1.0000
  H   H1455     1.0  0.89386  0.60072  0.59627  1.0000
  H   H1456     1.0  0.87055  0.56496  0.61949  1.0000
  H   H1457     1.0  0.76766  0.52003  0.65770  1.0000
  H   H1458     1.0  0.99005  0.56191  0.74023  1.0000
  C   C817      1.0  0.75936  0.53526  0.67066  1.0000
  C   C818      1.0  0.85378  0.51149  0.56687  1.0000
  H   H1459     1.0  0.69402  0.82492  0.58022  1.0000
  N   N48       1.0  0.84699  0.55795  0.50554  1.0000
  Fe  Fe91      1.0  0.66816  0.90745  0.50177  1.0000
  H   H1460     1.0  0.80233  0.80489  0.51070  1.0000
  H   H1461     1.0  0.86097  0.52684  0.58056  1.0000
  C   C819      1.0  0.80942  0.59059  0.51573  1.0000
  H   H1462     1.0  0.76350  0.61991  0.71849  1.0000
  C   C820      1.0  0.70115  0.52898  0.98831  1.0000
  H   H1463     1.0  0.87624  0.75898  0.49750  1.0000
  C   C821      1.0  0.80877  0.60045  0.69763  1.0000
  H   H1464     1.0  0.79468  0.55777  0.67062  1.0000
  C   C822      1.0  0.95998  0.69884  0.50363  1.0000
  H   H1465     1.0  0.67119  0.72990  0.54062  1.0000
  C   C823      1.0  0.80703  0.57082  0.73535  1.0000
  C   C824      1.0  0.84205  0.56646  0.77058  1.0000
  C   C825      1.0  0.85815  0.52003  0.53862  1.0000
  H   H1466     1.0  0.95191  0.60781  0.61673  1.0000
  H   H1467     1.0  0.73470  0.63408  0.75549  1.0000
  H   H1468     1.0  0.67650  0.81575  0.53663  1.0000
  H   H1469     1.0  0.82204  0.60820  0.51786  1.0000
  C   C826      1.0  0.68340  0.73865  0.55637  1.0000
  H   H1470     1.0  0.77468  0.61448  0.51968  1.0000
  H   H1471     1.0  0.74357  0.58663  0.74815  1.0000
  S   S186      1.0  0.81718  0.75092  0.50431  1.0000
  H   H1472     1.0  0.81654  0.59943  0.76645  1.0000
  Fe  Fe92      1.0  0.68273  0.51117  0.89661  1.0000
  H   H1473     1.0  0.82146  0.61530  0.70743  1.0000
  H   H1474     1.0  0.82871  0.61084  0.64842  1.0000
  H   H1475     1.0  0.69417  0.78654  0.53394  1.0000
  H   H1476     1.0  0.82125  0.53859  0.53322  1.0000
  H   H1477     1.0  0.67972  0.57374  0.94963  1.0000
  C   C827      1.0  0.96256  0.51474  0.67399  1.0000
  S   S187      1.0  0.82184  0.66927  0.50841  1.0000
  Fe  Fe93      1.0  0.89165  0.51383  0.67335  1.0000
  C   C828      1.0  0.82670  0.58563  0.75333  1.0000
  H   H1478     1.0  0.70117  0.74761  0.54790  1.0000
  S   S188      1.0  0.70793  0.50584  0.79700  1.0000
  S   S189      1.0  0.82253  0.50324  0.74600  1.0000
  C   C829      1.0  0.78150  0.54926  0.68535  1.0000
  H   H1479     1.0  0.80510  0.50183  0.79926  1.0000
  H   H1480     1.0  0.95011  0.57295  0.61118  1.0000
  H   H1481     1.0  0.84108  0.59682  0.74163  1.0000
  C   C830      1.0  0.69079  0.51643  0.96600  1.0000
  H   H1482     1.0  0.82767  0.64151  0.66611  1.0000
  C   C831      1.0  0.74744  0.62274  0.76910  1.0000
  H   H1483     1.0  0.98248  0.52337  0.77566  1.0000
  S   S190      1.0  0.67659  0.53817  0.86186  1.0000
  C   C832      1.0  0.78525  0.79467  0.50327  1.0000
  H   H1484     1.0  0.77143  0.58844  0.76978  1.0000
  H   H1485     1.0  0.93480  0.77216  0.50328  1.0000
  H   H1486     1.0  0.82264  0.58587  0.68953  1.0000
  H   H1487     1.0  0.81874  0.55662  0.72396  1.0000
  H   H1488     1.0  0.87939  0.52303  0.53602  1.0000
  C   C833      1.0  0.78681  0.76752  0.49824  1.0000
  C   C834      1.0  0.89532  0.56981  0.51623  1.0000
  H   H1489     1.0  0.93746  0.51568  0.75942  1.0000
  H   H1490     1.0  0.78278  0.63096  0.68119  1.0000
  C   C835      1.0  0.77063  0.57049  0.70390  1.0000
  H   H1491     1.0  0.72329  0.83385  0.54177  1.0000
  C   C836      1.0  0.66549  0.58939  0.94436  1.0000
  C   C837      1.0  0.74011  0.50501  0.78344  1.0000
  C   C838      1.0  0.99228  0.62108  0.53587  1.0000
  H   H1492     1.0  0.75896  0.55963  0.71865  1.0000
  H   H1493     1.0  0.85383  0.55301  0.75837  1.0000
  Fe  Fe94      1.0  0.68725  0.50303  0.83705  1.0000
  H   H1494     1.0  0.75620  0.58264  0.69284  1.0000
  C   C839      1.0  0.96342  0.59025  0.61122  1.0000
  H   H1495     1.0  0.73526  0.61544  0.78545  1.0000
  C   C840      1.0  0.75975  0.59948  0.75508  1.0000
  H   H1496     1.0  0.94224  0.69949  0.51493  1.0000
  H   H1497     1.0  0.69977  0.61848  0.91311  1.0000
  C   C841      1.0  0.98529  0.52630  0.66380  1.0000
  C   C842      1.0  0.68305  0.79838  0.54811  1.0000
  H   H1498     1.0  0.93480  0.58502  0.52066  1.0000
  H   H1499     1.0  0.85557  0.57746  0.78369  1.0000
  H   H1500     1.0  0.79267  0.53438  0.69661  1.0000
  H   H1501     1.0  0.80638  0.58171  0.53521  1.0000
  H   H1502     1.0  0.74834  0.54941  0.65824  1.0000
  Fe  Fe95      1.0  0.83575  0.71012  0.49755  1.0000
  H   H1503     1.0  0.98580  0.57563  0.57912  1.0000
  C   C843      1.0  0.97898  0.52294  0.75435  1.0000
  C   C844      1.0  0.77679  0.60891  0.73190  1.0000
  H   H1504     1.0  0.67412  0.60762  0.95252  1.0000
  H   H1505     1.0  0.71536  0.54456  0.98599  1.0000
  H   H1506     1.0  0.82857  0.55461  0.78280  1.0000
  H   H1507     1.0  0.73849  0.80224  0.54760  1.0000
  C   C845      1.0  0.74280  0.50584  0.75605  1.0000
  C   C846      1.0  0.67760  0.97760  0.50347  1.0000
  H   H1508     1.0  0.83270  0.50784  0.57052  1.0000
  C   C847      1.0  0.69307  0.59952  0.90469  1.0000
  H   H1509     1.0  0.98383  0.54458  0.65313  1.0000
  H   H1510     1.0  0.70374  0.70173  0.56207  1.0000
  H   H1511     1.0  0.84501  0.55941  0.54786  1.0000
  C   C848      1.0  0.98458  0.69933  0.51631  1.0000
  H   H1512     1.0  0.76916  0.50502  0.72326  1.0000
  C   C849      1.0  0.84206  0.54498  0.53174  1.0000
  C   C850      1.0  0.70269  0.80842  0.56916  1.0000
  C   C851      1.0  0.76183  0.80882  0.49883  1.0000
  C   C852      1.0  0.97524  0.59389  0.58413  1.0000
  H   H1513     1.0  0.89524  0.56339  0.53696  1.0000
  H   H1514     1.0  0.72542  0.50683  0.74386  1.0000
  C   C853      1.0  0.91488  0.76873  0.51104  1.0000
  H   H1515     1.0  0.70831  0.79266  0.58305  1.0000
  H   H1516     1.0  0.78303  0.60108  0.66255  1.0000
  C   C854      1.0  0.79530  0.61472  0.67429  1.0000
  C   C855      1.0  0.69257  0.71603  0.57386  1.0000
  H   H1517     1.0  0.91571  0.75138  0.52421  1.0000
  S   S191      1.0  0.70102  0.52663  0.93444  1.0000
  H   H1518     1.0  0.97900  0.58682  0.62612  1.0000
  H   H1519     1.0  0.74578  0.52564  0.68452  1.0000
  C   C856      1.0  0.91528  0.59210  0.51418  1.0000
  H   H1520     1.0  0.98557  0.70049  0.53737  1.0000
  C   C857      1.0  0.86762  0.57906  0.50807  1.0000
  S   S192      1.0  0.87309  0.50032  0.63563  1.0000
  H   H1521     1.0  0.94606  0.54995  0.75684  1.0000
  C   C858      1.0  0.79041  0.50368  0.75966  1.0000
  H   H1522     1.0  0.90967  0.60876  0.52687  1.0000
  H   H1523     1.0  0.99472  0.53545  0.71835  1.0000
  H   H1524     1.0  0.66826  0.75841  0.50920  1.0000
  H   H1525     1.0  0.94566  0.52935  0.72814  1.0000
  C   C859      1.0  0.78274  0.59996  0.50579  1.0000
  Fe  Fe96      1.0  0.84030  0.50444  0.70474  1.0000
  H   H1526     1.0  0.98141  0.63593  0.58589  1.0000
  H   H1527     1.0  0.97730  0.63678  0.53822  1.0000
  H   H1528     1.0  0.67787  0.76310  0.59047  1.0000
  H   H1529     1.0  0.90229  0.55359  0.50378  1.0000
  H   H1530     1.0  0.76885  0.58325  0.50413  1.0000
  H   H1531     1.0  0.67559  0.70569  0.58256  1.0000
  C   C860      1.0  0.76285  0.50343  0.79883  1.0000
  H   H1532     1.0  0.76111  0.82963  0.50286  1.0000
  C   C861      1.0  0.66573  0.59253  0.91429  1.0000
  C   C862      1.0  0.99377  0.61811  0.58336  1.0000
  C   C863      1.0  0.78775  0.50290  0.78702  1.0000
  H   H1533     1.0  0.98181  0.50236  0.74775  1.0000
  C   C864      1.0  0.66712  0.75865  0.57200  1.0000
  H   H1534     1.0  0.76127  0.50272  0.81988  1.0000
  H   H1535     1.0  0.98136  0.60226  0.53442  1.0000
  H   H1536     1.0  0.68392  0.58801  0.99412  1.0000
