data_image0
_chemical_formula_structural       FeS2FeSCFeSFeHS2FeS2FeS2FeHFeHS2H3CH4CH6C6H6CHCH6SCHC3H2C4NHCHSHC2H2NCH3C2H4CH3NH2C2SCH6C2H3C2H3C3H2C2HCH4CHC4HC2H2CH3CH5CHC2H2CH2CHCHSHCH2CH4CHCH4CH3C3H3CH3CHCH3CH2C5H10CH4CH3CH4NH2CH3CHCHCHFeSCFeS2FeCFeS3FeSHFeS2FeSFeS3HC2H4CH4C3HC3H2C6H6CH3CH2CH3CH2C2HC2NH3CH3C6H6CNH12C3H2SC2H4C2H2CH5CHCH4C2HCH2C4NCH2CHC2H2CH3CH5CH3CH3C4HCH2CH5C2H4CH3CHCHNH3SFeSHFeSHFeSFeHS2FeSCFeS2FeSFeS3HCH4CH2C2H2CHC6H4C6H5CHCHC5SC4H4CH9NH6CH3C2H2CHC2H3CHCHNSHCH3CNCH2C2HC2H2CHCH3C2HC4HCH2C4H11SCNHCHCH2CHCH2SHCNH3FeH2CHC2H5C2H5CH3SH2C2H6C3H7CH2CH7C2HC2H2C2H8SCH2S2H2FeSH3FeCFeSHSHCHFeS2HFe2HSHSCHC2H2C7H4SCHCH4C4H2C2H3C3H5CH4CSHCH8CH2FeH2CHC2NHC2H2SH5SCH3C2H3C2HCHNH2CH5CH5CHCH2CHCH8CH3CH3C2HC2H2CH4C2HCHCHCNH2CHCH5CHCH7CH2CH5C2H4C2HCH7CHCHNHCH7FeSCFeSFeSFeSCSC2FeSHFeHFeS3HC2H4CHC6H5CHCH2CHCH3SCHCHCH6C2HCHCHCHFeCNHSHNC3H7CH7CSHCHCHCH4CHCH2CH5CHCH3CHCSC2HSH3C3FeS2FeS2FeSFeS3FeS2FeS2FeHFeHS2HCHC6H5CHC2HCNCH2C6H2SHCH2CHCH3CNH2C2HSCH4CH2C2H7CH4CH4SH3CHCHCH9CHCHCHSCHC2HCHC4H5CH2CHCHCHCH8CHCSCHC2HCHNH7CHCH4C3H3CHNC3HCH3CH2CH6CHCHSCH2NC2H2CHCHCHCHCH3CHC2H3CH5SCHCH10CHCH3CSCHCH3C3HCH2CHSCH2CHC2H4C2H7CH2CFeC2H3CH4CH6CHCSFeC3FeS2FeSH2CHSCFeSCFeSFeCSHFeS2FeSHFeHSH2CHC2H2SH3C2H3C2H3NHFeH2C7HS2HC3HNCH2CH6CHC2HSCHC2H2CHC2H2NH3CHCHCHCH2C3HCHCHC4H2CHCH4FeCHC2H3CH2FeH6CFeHCHSC5HCH2SC2HFeCH2C2H5CH2NC2H3CSH3NC2SH2CH2SH2SH3CH6CHFeCH4NCH7C2HS2HCHS2H3SHCHC3H3C2H4SH4CHCH4C3H3C3HCH6NC3H3C2H2CHCHCH3CH5CHCH6CH2CH3SHC2H3C2H5C4HCH12CH2CHC2N
_chemical_formula_sum              "Fe64 S128 C576 H1024 N32"
_cell_length_a       37.6334
_cell_length_b       37.5707
_cell_length_c       46.3203
_cell_angle_alpha    90.7137
_cell_angle_beta     89.9389
_cell_angle_gamma    90.2733

_space_group_name_H-M_alt    "P 1"
_space_group_IT_number       1

loop_
  _space_group_symop_operation_xyz
  'x, y, z'

loop_
  _atom_site_type_symbol
  _atom_site_label
  _atom_site_symmetry_multiplicity
  _atom_site_fract_x
  _atom_site_fract_y
  _atom_site_fract_z
  _atom_site_occupancy
  Fe  Fe1       1.0  0.42820  0.44114  0.09483  1.0000
  S   S1        1.0  0.37053  0.42946  0.08836  1.0000
  S   S2        1.0  0.46523  0.43796  0.05622  1.0000
  Fe  Fe2       1.0  0.42062  0.44472  0.16133  1.0000
  S   S3        1.0  0.36192  0.43223  0.15877  1.0000
  C   C1        1.0  0.39340  0.01704  0.23801  1.0000
  Fe  Fe3       1.0  0.37695  0.39135  0.12484  1.0000
  S   S4        1.0  0.35183  0.33655  0.11979  1.0000
  Fe  Fe4       1.0  0.36124  0.47120  0.12243  1.0000
  H   H1        1.0  0.34251  0.36651  0.21468  1.0000
  S   S5        1.0  0.43527  0.40078  0.12979  1.0000
  S   S6        1.0  0.41923  0.48615  0.12665  1.0000
  Fe  Fe5       1.0  0.41985  0.13790  0.10717  1.0000
  S   S7        1.0  0.45876  0.09304  0.09927  1.0000
  S   S8        1.0  0.44222  0.19359  0.11577  1.0000
  Fe  Fe6       1.0  0.35612  0.08943  0.09668  1.0000
  S   S9        1.0  0.39013  0.04194  0.08794  1.0000
  S   S10       1.0  0.29602  0.08900  0.09304  1.0000
  Fe  Fe7       1.0  0.42140  0.06032  0.12689  1.0000
  H   H2        1.0  0.37243  0.32647  0.05601  1.0000
  Fe  Fe8       1.0  0.42435  0.07842  0.06108  1.0000
  H   H3        1.0  0.47019  0.37950  0.23747  1.0000
  S   S11       1.0  0.38506  0.10618  0.13724  1.0000
  S   S12       1.0  0.38779  0.12505  0.06757  1.0000
  H   H4        1.0  0.39100  0.31480  0.18132  1.0000
  H   H5        1.0  0.29989  0.39582  0.09713  1.0000
  H   H6        1.0  0.37551  0.03383  0.25030  1.0000
  C   C2        1.0  0.40452  0.02776  0.21030  1.0000
  H   H7        1.0  0.44510  0.36559  0.04263  1.0000
  H   H8        1.0  0.47833  0.29877  0.06897  1.0000
  H   H9        1.0  0.30503  0.05914  0.15073  1.0000
  H   H10       1.0  0.22484  0.50026  0.07256  1.0000
  C   C3        1.0  0.27157  0.04882  0.09394  1.0000
  H   H11       1.0  0.07833  0.01535  0.25895  1.0000
  H   H12       1.0  0.22104  0.07556  0.09457  1.0000
  H   H13       1.0  0.09399  0.11238  0.05120  1.0000
  H   H14       1.0  0.00792  0.48619  0.01472  1.0000
  H   H15       1.0  0.39757  0.32481  0.23856  1.0000
  H   H16       1.0  0.42879  0.34030  0.07170  1.0000
  C   C4        1.0  0.37730  0.29701  0.11832  1.0000
  C   C5        1.0  0.41432  0.29779  0.12071  1.0000
  C   C6        1.0  0.43377  0.26588  0.11982  1.0000
  C   C7        1.0  0.41644  0.23287  0.11651  1.0000
  C   C8        1.0  0.37944  0.23207  0.11377  1.0000
  C   C9        1.0  0.35998  0.26404  0.11471  1.0000
  H   H17       1.0  0.42800  0.32293  0.12316  1.0000
  H   H18       1.0  0.46241  0.26670  0.12173  1.0000
  H   H19       1.0  0.36580  0.20681  0.11116  1.0000
  H   H20       1.0  0.33133  0.26315  0.11282  1.0000
  H   H21       1.0  0.32145  0.07973  0.18331  1.0000
  H   H22       1.0  0.33581  0.43043  0.21873  1.0000
  C   C10       1.0  0.39876  0.21396  0.03260  1.0000
  H   H23       1.0  0.36598  0.49414  0.25277  1.0000
  C   C11       1.0  0.21875  0.49094  0.05018  1.0000
  H   H24       1.0  0.32089  0.02275  0.20821  1.0000
  H   H25       1.0  0.33921  0.31840  0.21406  1.0000
  H   H26       1.0  0.33860  0.02461  0.04081  1.0000
  H   H27       1.0  0.44582  0.26588  0.02842  1.0000
  H   H28       1.0  0.08692  0.06796  0.03672  1.0000
  H   H29       1.0  0.31346  0.48763  0.20158  1.0000
  S   S13       1.0  0.44059  0.01734  0.15807  1.0000
  C   C12       1.0  0.27065  0.39921  0.09716  1.0000
  H   H30       1.0  0.39940  0.46725  0.03421  1.0000
  C   C13       1.0  0.37478  0.36919  0.02486  1.0000
  C   C14       1.0  0.23429  0.05006  0.09432  1.0000
  C   C15       1.0  0.22754  0.48720  0.15072  1.0000
  H   H31       1.0  0.33181  0.34316  0.18163  1.0000
  H   H32       1.0  0.39083  0.38726  0.03870  1.0000
  C   C16       1.0  0.41379  0.45534  0.01635  1.0000
  C   C17       1.0  0.03515  0.49108  0.00834  1.0000
  C   C18       1.0  0.46380  0.34250  0.18982  1.0000
  C   C19       1.0  0.02750  0.01587  0.02148  1.0000
  N   N1        1.0  0.44939  0.33062  0.21859  1.0000
  H   H33       1.0  0.44843  0.33078  0.17170  1.0000
  C   C20       1.0  0.45076  0.22756  0.20398  1.0000
  H   H34       1.0  0.20530  0.40646  0.07684  1.0000
  S   S14       1.0  0.44698  0.44600  0.20601  1.0000
  H   H35       1.0  0.25823  0.37271  0.09326  1.0000
  C   C21       1.0  0.25249  0.49677  0.03137  1.0000
  C   C22       1.0  0.26324  0.48642  0.14160  1.0000
  H   H36       1.0  0.26805  0.41360  0.05267  1.0000
  H   H37       1.0  0.20013  0.40516  0.02510  1.0000
  N   N2        1.0  0.41862  0.31663  0.02943  1.0000
  C   C23       1.0  0.38725  0.33948  0.19411  1.0000
  H   H38       1.0  0.43910  0.21016  0.18681  1.0000
  H   H39       1.0  0.10489  0.49967  0.07445  1.0000
  H   H40       1.0  0.39403  0.36218  0.17996  1.0000
  C   C24       1.0  0.21940  0.43253  0.07499  1.0000
  C   C25       1.0  0.44180  0.33780  0.05016  1.0000
  H   H41       1.0  0.44837  0.27354  0.17768  1.0000
  H   H42       1.0  0.28014  0.46443  0.14737  1.0000
  H   H43       1.0  0.33906  0.14357  0.01278  1.0000
  H   H44       1.0  0.31714  0.01449  0.09319  1.0000
  C   C26       1.0  0.50344  0.33397  0.18372  1.0000
  H   H45       1.0  0.35062  0.08036  0.02176  1.0000
  H   H46       1.0  0.47008  0.36264  0.31689  1.0000
  H   H47       1.0  0.49328  0.31574  0.03496  1.0000
  N   N3        1.0  0.20342  0.45364  0.05072  1.0000
  H   H48       1.0  0.50366  0.09997  0.02219  1.0000
  H   H49       1.0  0.32731  0.44225  0.25603  1.0000
  C   C27       1.0  0.38927  0.25316  0.02893  1.0000
  C   C28       1.0  0.10254  0.09293  0.03435  1.0000
  S   S15       1.0  0.43626  0.06059  0.01427  1.0000
  C   C29       1.0  0.47020  0.35030  0.24176  1.0000
  H   H50       1.0  0.48264  0.28478  0.22626  1.0000
  H   H51       1.0  0.44152  0.21783  0.22527  1.0000
  H   H52       1.0  0.21566  0.44663  0.09602  1.0000
  H   H53       1.0  0.48965  0.36038  0.09097  1.0000
  H   H54       1.0  0.40960  0.26598  0.19998  1.0000
  H   H55       1.0  0.31878  0.36372  0.01352  1.0000
  C   C30       1.0  0.42096  0.27774  0.03732  1.0000
  C   C31       1.0  0.32445  0.50292  0.22041  1.0000
  H   H56       1.0  0.18527  0.01974  0.09487  1.0000
  H   H57       1.0  0.38052  0.25682  0.00642  1.0000
  H   H58       1.0  0.48015  0.22539  0.20265  1.0000
  C   C32       1.0  0.50314  0.35016  0.07125  1.0000
  C   C33       1.0  0.47808  0.47704  0.25411  1.0000
  H   H59       1.0  0.01701  0.04466  0.32727  1.0000
  H   H60       1.0  0.42294  0.27509  0.06116  1.0000
  H   H61       1.0  0.37517  0.19707  0.02780  1.0000
  C   C34       1.0  0.34707  0.44364  0.23824  1.0000
  C   C35       1.0  0.15253  0.47075  0.08623  1.0000
  C   C36       1.0  0.30474  0.05763  0.17462  1.0000
  H   H62       1.0  0.22825  0.03677  0.00455  1.0000
  H   H63       1.0  0.05906  0.46438  0.17971  1.0000
  C   C37       1.0  0.28850  0.01578  0.09355  1.0000
  C   C38       1.0  0.16383  0.45593  0.05621  1.0000
  H   H64       1.0  0.30413  0.50126  0.23779  1.0000
  C   C39       1.0  0.45720  0.34507  0.27329  1.0000
  H   H65       1.0  0.40863  0.36932  0.22935  1.0000
  H   H66       1.0  0.44094  0.28289  0.24352  1.0000
  H   H67       1.0  0.27478  0.45042  0.07772  1.0000
  H   H68       1.0  0.46041  0.37181  0.18773  1.0000
  C   C40       1.0  0.44657  0.43916  0.02119  1.0000
  H   H69       1.0  0.24561  0.49520  0.00811  1.0000
  C   C41       1.0  0.41074  0.34111  0.22166  1.0000
  C   C42       1.0  0.34781  0.34210  0.20172  1.0000
  C   C43       1.0  0.31979  0.02205  0.18429  1.0000
  C   C44       1.0  0.35683  0.48232  0.23203  1.0000
  H   H70       1.0  0.36181  0.01957  0.00774  1.0000
  C   C45       1.0  0.20849  0.43347  0.02260  1.0000
  C   C46       1.0  0.11248  0.47662  0.08776  1.0000
  H   H71       1.0  0.21698  0.46564  0.16346  1.0000
  H   H72       1.0  0.49856  0.34213  0.24146  1.0000
  C   C47       1.0  0.43905  0.26597  0.19938  1.0000
  H   H73       1.0  0.39531  0.05264  0.20156  1.0000
  H   H74       1.0  0.30692  0.12651  0.03781  1.0000
  H   H75       1.0  0.15093  0.47324  0.03997  1.0000
  C   C48       1.0  0.46309  0.48309  0.22677  1.0000
  H   H76       1.0  0.37129  0.42899  0.24478  1.0000
  H   H77       1.0  0.04717  0.12937  0.01776  1.0000
  H   H78       1.0  0.15118  0.42917  0.05356  1.0000
  H   H79       1.0  0.00764  0.49797  0.16307  1.0000
  H   H80       1.0  0.13102  0.08673  0.03790  1.0000
  C   C49       1.0  0.33578  0.37934  0.02868  1.0000
  H   H81       1.0  0.42910  0.35328  0.27601  1.0000
  C   C50       1.0  0.45405  0.29117  0.22314  1.0000
  C   C51       1.0  0.25982  0.42530  0.07366  1.0000
  H   H82       1.0  0.26263  0.40928  0.11884  1.0000
  H   H83       1.0  0.10479  0.48233  0.11046  1.0000
  C   C52       1.0  0.31632  0.12495  0.01510  1.0000
  H   H84       1.0  0.28766  0.06245  0.03382  1.0000
  H   H85       1.0  0.27712  0.06121  0.18255  1.0000
  C   C53       1.0  0.38104  0.32986  0.03314  1.0000
  H   H86       1.0  0.15901  0.45159  0.10348  1.0000
  C   C54       1.0  0.09753  0.10819  0.00418  1.0000
  H   H87       1.0  0.32701  0.37435  0.05117  1.0000
  S   S16       1.0  0.03646  0.00832  0.05863  1.0000
  H   H88       1.0  0.33245  0.40809  0.02408  1.0000
  C   C55       1.0  0.29679  0.06034  0.01097  1.0000
  H   H89       1.0  0.36630  0.25895  0.04337  1.0000
  H   H90       1.0  0.50193  0.50031  0.29262  1.0000
  C   C56       1.0  0.21399  0.01851  0.09452  1.0000
  H   H91       1.0  0.23693  0.43207  0.01647  1.0000
  H   H92       1.0  0.47664  0.39613  0.28993  1.0000
  H   H93       1.0  0.40720  0.20882  0.05514  1.0000
  H   H94       1.0  0.36181  0.31382  0.02036  1.0000
  C   C57       1.0  0.49061  0.50550  0.27163  1.0000
  H   H95       1.0  0.01279  0.49446  0.22906  1.0000
  C   C58       1.0  0.33740  0.01077  0.01940  1.0000
  H   H96       1.0  0.37897  0.48209  0.21627  1.0000
  H   H97       1.0  0.34715  0.02025  0.17571  1.0000
  H   H98       1.0  0.16599  0.49649  0.09101  1.0000
  H   H99       1.0  0.27322  0.47668  0.03535  1.0000
  C   C59       1.0  0.01520  0.48205  0.20724  1.0000
  H   H100      1.0  0.09765  0.45262  0.08025  1.0000
  H   H101      1.0  0.42058  0.20618  0.01768  1.0000
  H   H102      1.0  0.49752  0.32735  0.13715  1.0000
  C   C60       1.0  0.05487  0.47792  0.20090  1.0000
  C   C61       1.0  0.47973  0.32293  0.05542  1.0000
  C   C62       1.0  0.32809  0.08708  0.00743  1.0000
  H   H103      1.0  0.45966  0.31684  0.27969  1.0000
  H   H104      1.0  0.48011  0.45012  0.26182  1.0000
  H   H105      1.0  0.06743  0.46172  0.21795  1.0000
  C   C63       1.0  0.47941  0.36733  0.29449  1.0000
  H   H106      1.0  0.06820  0.50440  0.20062  1.0000
  H   H107      1.0  0.06047  0.02271  0.37204  1.0000
  H   H108      1.0  0.09574  0.06969  0.39808  1.0000
  C   C64       1.0  0.07893  0.05042  0.40998  1.0000
  H   H109      1.0  0.05424  0.05728  0.58840  1.0000
  C   C65       1.0  0.02382  0.36810  0.62797  1.0000
  H   H110      1.0  0.42618  0.09283  0.57588  1.0000
  H   H111      1.0  0.02528  0.03487  0.49728  1.0000
  H   H112      1.0  0.45134  0.08955  0.60885  1.0000
  C   C66       1.0  0.45914  0.04537  0.57894  1.0000
  H   H113      1.0  0.40581  0.48030  0.66446  1.0000
  H   H114      1.0  0.08397  0.43915  0.59600  1.0000
  C   C67       1.0  0.01241  0.43401  0.62042  1.0000
  C   C68       1.0  0.43872  0.02405  0.55518  1.0000
  C   C69       1.0  0.02484  0.06766  0.38056  1.0000
  C   C70       1.0  0.01930  0.39735  0.60562  1.0000
  C   C71       1.0  0.04856  0.03673  0.39093  1.0000
  H   H115      1.0  0.01855  0.05010  0.61360  1.0000
  H   H116      1.0  0.49840  0.04522  0.52211  1.0000
  H   H117      1.0  0.02126  0.49989  0.54632  1.0000
  H   H118      1.0  0.02860  0.34221  0.61683  1.0000
  H   H119      1.0  0.43405  0.04334  0.53750  1.0000
  H   H120      1.0  0.03327  0.01701  0.40339  1.0000
  H   H121      1.0  0.04130  0.08216  0.36458  1.0000
  H   H122      1.0  0.41256  0.06195  0.60363  1.0000
  H   H123      1.0  0.44968  0.00826  0.49940  1.0000
  H   H124      1.0  0.04673  0.37410  0.64236  1.0000
  C   C72       1.0  0.43573  0.07417  0.59257  1.0000
  H   H125      1.0  0.46886  0.02829  0.59648  1.0000
  H   H126      1.0  0.48266  0.05886  0.56949  1.0000
  H   H127      1.0  0.09576  0.02774  0.41662  1.0000
  H   H128      1.0  0.03230  0.43777  0.63801  1.0000
  C   C73       1.0  0.15362  0.01979  0.35577  1.0000
  H   H129      1.0  0.06736  0.45387  0.56152  1.0000
  H   H130      1.0  0.06824  0.06330  0.42987  1.0000
  H   H131      1.0  0.04326  0.39766  0.59181  1.0000
  C   C74       1.0  0.02701  0.04618  0.59085  1.0000
  H   H132      1.0  0.16574  0.04395  0.34621  1.0000
  H   H133      1.0  0.15439  0.02258  0.37966  1.0000
  H   H134      1.0  0.01287  0.12280  0.34070  1.0000
  H   H135      1.0  0.01190  0.43560  0.56135  1.0000
  N   N4        1.0  0.01114  0.46657  0.60140  1.0000
  H   H136      1.0  0.41172  0.01775  0.56365  1.0000
  H   H137      1.0  0.12539  0.01770  0.34897  1.0000
  C   C75       1.0  0.02691  0.00673  0.58215  1.0000
  H   H138      1.0  0.00889  0.06136  0.57669  1.0000
  H   H139      1.0  0.05815  0.48897  0.62155  1.0000
  H   H140      1.0  0.02078  0.08691  0.39872  1.0000
  C   C76       1.0  0.07627  0.46268  0.58326  1.0000
  H   H141      1.0  0.13047  0.46918  0.56806  1.0000
  C   C77       1.0  0.04725  0.48394  0.59956  1.0000
  H   H142      1.0  0.00875  0.00744  0.34897  1.0000
  C   C78       1.0  0.10979  0.48525  0.57924  1.0000
  H   H143      1.0  0.12048  0.49423  0.60048  1.0000
  Fe  Fe9       1.0  0.46432  0.36776  0.85419  1.0000
  S   S17       1.0  0.47425  0.42472  0.86758  1.0000
  C   C79       1.0  0.37787  0.45244  0.71491  1.0000
  Fe  Fe10      1.0  0.38847  0.38320  0.83571  1.0000
  S   S18       1.0  0.39333  0.44077  0.84755  1.0000
  S   S19       1.0  0.33727  0.35865  0.81870  1.0000
  Fe  Fe11      1.0  0.44689  0.43857  0.82606  1.0000
  C   C80       1.0  0.50238  0.09034  0.00010  1.0000
  Fe  Fe12      1.0  0.42022  0.42191  0.88787  1.0000
  S   S20       1.0  0.40096  0.44787  0.92960  1.0000
  S   S21       1.0  0.44064  0.38169  0.81131  1.0000
  S   S22       1.0  0.41191  0.36410  0.87733  1.0000
  Fe  Fe13      1.0  0.05281  0.41663  0.84426  1.0000
  S   S23       1.0  0.09227  0.37676  0.82787  1.0000
  H   H144      1.0  0.44048  0.49728  0.89463  1.0000
  Fe  Fe14      1.0  0.09050  0.42499  0.90379  1.0000
  S   S24       1.0  0.13142  0.38381  0.89144  1.0000
  S   S25       1.0  0.10375  0.45796  0.94463  1.0000
  Fe  Fe15      1.0  0.13458  0.41105  0.84875  1.0000
  S   S26       1.0  0.18605  0.43286  0.82971  1.0000
  Fe  Fe16      1.0  0.08580  0.35273  0.87191  1.0000
  S   S27       1.0  0.08202  0.29245  0.87272  1.0000
  S   S28       1.0  0.09536  0.45349  0.86149  1.0000
  S   S29       1.0  0.04444  0.39123  0.88777  1.0000
  H   H145      1.0  0.07884  0.16157  0.91565  1.0000
  C   C81       1.0  0.31042  0.01977  0.97095  1.0000
  C   C82       1.0  0.04293  0.26899  0.88184  1.0000
  H   H146      1.0  0.42594  0.33619  0.74681  1.0000
  H   H147      1.0  0.39165  0.50356  0.81059  1.0000
  H   H148      1.0  0.34419  0.48240  0.68536  1.0000
  H   H149      1.0  0.27467  0.07075  0.99766  1.0000
  C   C83       1.0  0.06539  0.17472  0.97574  1.0000
  H   H150      1.0  0.33794  0.08740  0.98490  1.0000
  H   H151      1.0  0.06301  0.30495  0.75427  1.0000
  H   H152      1.0  0.33463  0.03505  0.96494  1.0000
  H   H153      1.0  0.41427  0.39976  0.75658  1.0000
  C   C84       1.0  0.09991  0.28991  0.78695  1.0000
  C   C85       1.0  0.04918  0.47320  0.98387  1.0000
  C   C86       1.0  0.01129  0.02922  0.96264  1.0000
  H   H154      1.0  0.47226  0.23374  0.79718  1.0000
  C   C87       1.0  0.41860  0.44248  0.96465  1.0000
  C   C88       1.0  0.04657  0.20564  0.95986  1.0000
  C   C89       1.0  0.45092  0.42530  0.96952  1.0000
  H   H155      1.0  0.29465  0.13360  0.00056  1.0000
  H   H156      1.0  0.46535  0.41369  0.95155  1.0000
  C   C90       1.0  0.29544  0.37889  0.82519  1.0000
  C   C91       1.0  0.29259  0.41530  0.83138  1.0000
  C   C92       1.0  0.25887  0.43129  0.83348  1.0000
  C   C93       1.0  0.22765  0.41088  0.83051  1.0000
  C   C94       1.0  0.23049  0.37424  0.82530  1.0000
  C   C95       1.0  0.26424  0.35845  0.82223  1.0000
  H   H157      1.0  0.31627  0.43141  0.83364  1.0000
  H   H158      1.0  0.25693  0.45968  0.83725  1.0000
  H   H159      1.0  0.20668  0.35831  0.82256  1.0000
  H   H160      1.0  0.26614  0.33030  0.81732  1.0000
  H   H161      1.0  0.09590  0.11659  0.94894  1.0000
  H   H162      1.0  0.37293  0.50056  0.88538  1.0000
  C   C96       1.0  0.07553  0.11240  0.89195  1.0000
  H   H163      1.0  0.24698  0.47236  0.74367  1.0000
  H   H164      1.0  0.40412  0.13954  0.99681  1.0000
  H   H165      1.0  0.02068  0.21181  0.97024  1.0000
  C   C97       1.0  0.47921  0.45939  0.74599  1.0000
  H   H166      1.0  0.38209  0.33036  0.73170  1.0000
  H   H167      1.0  0.44597  0.27961  0.89558  1.0000
  C   C98       1.0  0.48081  0.48895  0.76460  1.0000
  H   H168      1.0  0.46155  0.11343  0.82812  1.0000
  H   H169      1.0  0.24379  0.42756  0.72875  1.0000
  H   H170      1.0  0.37815  0.43211  0.69717  1.0000
  C   C99       1.0  0.43270  0.32287  0.99937  1.0000
  H   H171      1.0  0.04110  0.19912  0.93704  1.0000
  H   H172      1.0  0.49884  0.05557  0.92063  1.0000
  C   C100      1.0  0.42159  0.32429  0.94553  1.0000
  C   C101      1.0  0.31585  0.44711  0.73311  1.0000
  H   H173      1.0  0.45086  0.11721  0.92628  1.0000
  C   C102      1.0  0.43258  0.13725  0.86432  1.0000
  C   C103      1.0  0.43860  0.13137  0.83199  1.0000
  N   N5        1.0  0.04990  0.13775  0.97156  1.0000
  H   H174      1.0  0.38750  0.34087  0.76966  1.0000
  H   H175      1.0  0.40992  0.15574  0.86716  1.0000
  H   H176      1.0  0.44378  0.15717  0.82126  1.0000
  C   C104      1.0  0.44515  0.22567  0.87812  1.0000
  H   H177      1.0  0.41460  0.11908  0.82207  1.0000
  H   H178      1.0  0.41140  0.20007  0.90868  1.0000
  H   H179      1.0  0.34649  0.39041  0.76230  1.0000
  C   C105      1.0  0.36753  0.48742  0.69958  1.0000
  C   C106      1.0  0.20147  0.43299  0.96784  1.0000
  C   C107      1.0  0.41044  0.30756  0.97403  1.0000
  C   C108      1.0  0.44058  0.20436  0.90640  1.0000
  C   C109      1.0  0.05778  0.11595  0.99804  1.0000
  C   C110      1.0  0.46508  0.42410  0.99768  1.0000
  H   H180      1.0  0.39479  0.45139  0.77187  1.0000
  H   H181      1.0  0.47793  0.47233  0.92308  1.0000
  H   H182      1.0  0.05421  0.26138  0.94982  1.0000
  H   H183      1.0  0.41169  0.14087  0.91773  1.0000
  H   H184      1.0  0.04392  0.08975  0.99660  1.0000
  H   H185      1.0  0.31102  0.47559  0.72874  1.0000
  C   C111      1.0  0.40006  0.45723  0.98820  1.0000
  N   N6        1.0  0.46044  0.16951  0.90857  1.0000
  H   H186      1.0  0.22955  0.44106  0.96431  1.0000
  H   H187      1.0  0.42930  0.18403  0.96170  1.0000
  H   H188      1.0  0.05729  0.32788  0.78829  1.0000
  H   H189      1.0  0.45972  0.31150  0.99678  1.0000
  H   H190      1.0  0.46808  0.29490  0.81811  1.0000
  H   H191      1.0  0.43149  0.21196  0.85988  1.0000
  H   H192      1.0  0.02405  0.39267  0.71994  1.0000
  H   H193      1.0  0.05970  0.08733  0.89130  1.0000
  H   H194      1.0  0.48477  0.12843  0.88207  1.0000
  H   H195      1.0  0.03465  0.14335  0.91195  1.0000
  H   H196      1.0  0.48077  0.16934  0.86454  1.0000
  H   H197      1.0  0.10406  0.10588  0.89480  1.0000
  C   C112      1.0  0.06261  0.13683  0.91638  1.0000
  C   C113      1.0  0.06896  0.23967  0.96054  1.0000
  C   C114      1.0  0.06674  0.11895  0.94603  1.0000
  H   H198      1.0  0.40595  0.45501  0.72237  1.0000
  H   H199      1.0  0.04081  0.26520  0.80899  1.0000
  S   S30       1.0  0.46626  0.48704  0.80106  1.0000
  C   C115      1.0  0.36617  0.45659  0.76781  1.0000
  C   C116      1.0  0.39803  0.50086  0.68069  1.0000
  H   H200      1.0  0.03316  0.50209  0.85091  1.0000
  H   H201      1.0  0.35227  0.44360  0.78617  1.0000
  H   H202      1.0  0.28829  0.03290  0.95931  1.0000
  H   H203      1.0  0.45899  0.14853  0.97116  1.0000
  C   C117      1.0  0.06270  0.30166  0.77807  1.0000
  C   C118      1.0  0.46655  0.15154  0.87964  1.0000
  H   H204      1.0  0.44786  0.22238  0.92477  1.0000
  H   H205      1.0  0.45007  0.31904  0.94084  1.0000
  C   C119      1.0  0.04144  0.23223  0.87626  1.0000
  H   H206      1.0  0.49013  0.50100  0.86416  1.0000
  H   H207      1.0  0.40159  0.26165  0.88944  1.0000
  H   H208      1.0  0.09391  0.17491  0.96927  1.0000
  H   H209      1.0  0.07223  0.12595  0.87095  1.0000
  H   H210      1.0  0.06376  0.21911  0.86602  1.0000
  C   C120      1.0  0.18758  0.44815  0.99644  1.0000
  H   H211      1.0  0.11977  0.31001  0.77996  1.0000
  C   C121      1.0  0.49585  0.17492  0.92336  1.0000
  H   H212      1.0  0.03796  0.25000  0.77250  1.0000
  H   H213      1.0  0.19941  0.40348  0.96749  1.0000
  H   H214      1.0  0.05623  0.09118  0.94424  1.0000
  H   H215      1.0  0.37504  0.47055  0.98461  1.0000
  C   C122      1.0  0.43440  0.15511  0.95909  1.0000
  C   C123      1.0  0.35855  0.40001  0.74186  1.0000
  H   H216      1.0  0.49236  0.18729  0.94509  1.0000
  C   C124      1.0  0.47178  0.05834  0.96200  1.0000
  H   H217      1.0  0.29102  0.40794  0.76244  1.0000
  H   H218      1.0  0.42483  0.11125  0.87372  1.0000
  C   C125      1.0  0.39715  0.38554  0.74089  1.0000
  C   C126      1.0  0.40363  0.13501  0.97307  1.0000
  C   C127      1.0  0.43887  0.14427  0.92683  1.0000
  C   C128      1.0  0.39809  0.34582  0.74767  1.0000
  N   N7        1.0  0.35454  0.43997  0.73947  1.0000
  C   C129      1.0  0.49165  0.46204  0.71734  1.0000
  H   H219      1.0  0.09431  0.23560  0.94864  1.0000
  H   H220      1.0  0.40909  0.38880  0.71916  1.0000
  C   C130      1.0  0.28920  0.43659  0.75721  1.0000
  H   H221      1.0  0.03306  0.45425  0.97194  1.0000
  C   C131      1.0  0.48945  0.27753  0.82449  1.0000
  C   C132      1.0  0.03408  0.27387  0.78671  1.0000
  H   H222      1.0  0.30790  0.43295  0.71281  1.0000
  H   H223      1.0  0.47334  0.22874  0.87208  1.0000
  C   C133      1.0  0.42922  0.26287  0.88105  1.0000
  H   H224      1.0  0.34379  0.38601  0.72418  1.0000
  H   H225      1.0  0.42849  0.27576  0.85964  1.0000
  H   H226      1.0  0.04099  0.40146  0.77143  1.0000
  C   C134      1.0  0.47276  0.07061  0.99089  1.0000
  H   H227      1.0  0.46882  0.43440  0.75374  1.0000
  H   H228      1.0  0.44914  0.04297  0.95456  1.0000
  H   H229      1.0  0.10775  0.08795  0.98862  1.0000
  H   H230      1.0  0.10171  0.28762  0.81079  1.0000
  H   H231      1.0  0.10658  0.26386  0.77678  1.0000
  C   C135      1.0  0.49191  0.24294  0.81262  1.0000
  H   H232      1.0  0.41486  0.27844  0.97201  1.0000
  H   H233      1.0  0.07472  0.24807  0.98314  1.0000
  H   H234      1.0  0.33536  0.50643  0.76316  1.0000
  C   C136      1.0  0.01503  0.40960  0.76407  1.0000
  H   H235      1.0  0.41717  0.35355  0.94619  1.0000
  H   H236      1.0  0.29426  0.45249  0.77714  1.0000
  H   H237      1.0  0.37784  0.14442  0.96449  1.0000
  C   C137      1.0  0.23655  0.00935  0.99860  1.0000
  C   C138      1.0  0.08432  0.47928  0.97535  1.0000
  C   C139      1.0  0.01002  0.13789  0.96757  1.0000
  C   C140      1.0  0.04270  0.01153  0.97043  1.0000
  H   H238      1.0  0.15907  0.44054  0.99812  1.0000
  C   C141      1.0  0.36162  0.49743  0.77082  1.0000
  H   H239      1.0  0.18526  0.44334  0.94976  1.0000
  H   H240      1.0  0.40517  0.31292  0.92777  1.0000
  C   C142      1.0  0.25087  0.44367  0.74818  1.0000
  H   H241      1.0  0.38168  0.31268  0.97660  1.0000
  H   H242      1.0  0.18915  0.47760  0.99564  1.0000
  H   H243      1.0  0.43658  0.35189  0.99579  1.0000
  H   H244      1.0  0.05473  0.49489  0.90159  1.0000
  H   H245      1.0  0.23261  0.43613  0.76602  1.0000
  C   C143      1.0  0.01384  0.28574  0.89491  1.0000
  C   C144      1.0  0.49996  0.06550  0.94264  1.0000
  H   H246      1.0  0.34429  0.49720  0.81580  1.0000
  H   H247      1.0  0.00716  0.32440  0.75172  1.0000
  H   H248      1.0  0.00839  0.31020  0.82738  1.0000
  H   H249      1.0  0.01477  0.31404  0.89941  1.0000
  C   C145      1.0  0.10530  0.50307  0.99183  1.0000
  H   H250      1.0  0.11392  0.13271  0.00257  1.0000
  H   H251      1.0  0.01025  0.18422  0.87879  1.0000
  H   H252      1.0  0.49047  0.41152  0.00126  1.0000
  C   C146      1.0  0.50362  0.48669  0.92190  1.0000
  H   H253      1.0  0.38189  0.37401  0.00198  1.0000
  C   C147      1.0  0.01117  0.21229  0.88367  1.0000
  H   H254      1.0  0.49047  0.43897  0.70315  1.0000
  N   N8        1.0  0.30444  0.02192  0.00314  1.0000
  H   H255      1.0  0.40595  0.10595  0.96883  1.0000
  H   H256      1.0  0.06541  0.18256  0.99902  1.0000
  H   H257      1.0  0.23793  0.00683  0.97474  1.0000
  S   S31       1.0  0.06782  0.98171  0.31395  1.0000
  Fe  Fe17      1.0  0.06662  0.56646  0.09200  1.0000
  S   S32       1.0  0.12476  0.58090  0.09420  1.0000
  H   H258      1.0  0.19984  0.87008  0.30381  1.0000
  Fe  Fe18      1.0  0.05213  0.59455  0.15461  1.0000
  S   S33       1.0  0.10946  0.60930  0.16101  1.0000
  H   H259      1.0  0.04131  0.81757  0.30572  1.0000
  Fe  Fe19      1.0  0.10645  0.63191  0.11622  1.0000
  S   S34       1.0  0.13315  0.68635  0.11235  1.0000
  Fe  Fe20      1.0  0.12255  0.55756  0.13863  1.0000
  H   H260      1.0  0.26953  0.99491  0.18198  1.0000
  S   S35       1.0  0.04848  0.61932  0.11053  1.0000
  S   S36       1.0  0.06510  0.54079  0.13567  1.0000
  Fe  Fe21      1.0  0.07325  0.96791  0.08019  1.0000
  S   S37       1.0  0.11180  0.93083  0.05818  1.0000
  C   C148      1.0  0.42148  0.64404  0.33480  1.0000
  Fe  Fe22      1.0  0.08581  0.93461  0.14046  1.0000
  S   S38       1.0  0.12586  0.89625  0.12223  1.0000
  S   S39       1.0  0.06728  0.91899  0.18556  1.0000
  Fe  Fe23      1.0  0.14665  0.94258  0.09687  1.0000
  S   S40       1.0  0.20683  0.94517  0.09344  1.0000
  Fe  Fe24      1.0  0.08816  0.88749  0.08567  1.0000
  S   S41       1.0  0.06757  0.83333  0.07039  1.0000
  S   S42       1.0  0.10951  0.98215  0.11785  1.0000
  S   S43       1.0  0.04692  0.92369  0.10467  1.0000
  H   H261      1.0  0.33409  0.94650  0.12354  1.0000
  C   C149      1.0  0.06695  0.72636  0.17601  1.0000
  H   H262      1.0  0.10841  0.79378  0.15765  1.0000
  H   H263      1.0  0.42073  0.72874  0.28077  1.0000
  H   H264      1.0  0.20409  0.98655  0.03290  1.0000
  H   H265      1.0  0.07237  0.87855  0.01756  1.0000
  C   C150      1.0  0.23095  0.98550  0.09403  1.0000
  H   H266      1.0  0.41941  0.57508  0.16741  1.0000
  H   H267      1.0  0.41521  0.69722  0.32013  1.0000
  C   C151      1.0  0.26821  0.98424  0.09342  1.0000
  C   C152      1.0  0.34113  0.97062  0.02658  1.0000
  H   H268      1.0  0.28139  0.95875  0.09259  1.0000
  H   H269      1.0  0.41137  0.79364  0.27003  1.0000
  C   C153      1.0  0.16564  0.91707  0.30935  1.0000
  H   H270      1.0  0.46444  0.70906  0.21005  1.0000
  C   C154      1.0  0.11373  0.72676  0.10092  1.0000
  C   C155      1.0  0.08085  0.72782  0.08686  1.0000
  C   C156      1.0  0.06705  0.76062  0.07755  1.0000
  C   C157      1.0  0.08569  0.79266  0.08257  1.0000
  C   C158      1.0  0.11830  0.79161  0.09696  1.0000
  C   C159      1.0  0.13233  0.75881  0.10585  1.0000
  H   H271      1.0  0.06635  0.70333  0.08280  1.0000
  H   H272      1.0  0.04184  0.76112  0.06637  1.0000
  H   H273      1.0  0.13307  0.81597  0.10076  1.0000
  H   H274      1.0  0.15787  0.75824  0.11652  1.0000
  C   C160      1.0  0.06707  0.96453  0.27817  1.0000
  C   C161      1.0  0.07346  0.98734  0.25486  1.0000
  C   C162      1.0  0.07392  0.97404  0.22623  1.0000
  C   C163      1.0  0.06759  0.93784  0.22077  1.0000
  C   C164      1.0  0.06067  0.91526  0.24409  1.0000
  C   C165      1.0  0.06054  0.92846  0.27261  1.0000
  H   H275      1.0  0.23766  0.91591  0.30667  1.0000
  H   H276      1.0  0.38841  0.91192  0.12683  1.0000
  H   H277      1.0  0.06337  0.66893  0.17637  1.0000
  H   H278      1.0  0.05496  0.91072  0.29021  1.0000
  H   H279      1.0  0.05730  0.77345  0.29707  1.0000
  C   C166      1.0  0.21923  0.54361  0.12713  1.0000
  H   H280      1.0  0.09404  0.84418  0.20975  1.0000
  C   C167      1.0  0.16824  0.95236  0.21938  1.0000
  H   H281      1.0  0.20250  0.56588  0.12163  1.0000
  C   C168      1.0  0.09561  0.79860  0.17904  1.0000
  C   C169      1.0  0.38243  0.56726  0.24390  1.0000
  C   C170      1.0  0.31098  0.91064  0.25720  1.0000
  C   C171      1.0  0.19490  0.95064  0.26956  1.0000
  C   C172      1.0  0.26325  0.55167  0.22032  1.0000
  S   S44       1.0  0.16095  0.51626  0.15565  1.0000
  C   C173      1.0  0.29621  0.55537  0.20038  1.0000
  C   C174      1.0  0.34190  0.56353  0.23792  1.0000
  C   C175      1.0  0.01047  0.56455  0.26572  1.0000
  C   C176      1.0  0.36177  0.57839  0.17253  1.0000
  H   H282      1.0  0.07537  0.99190  0.00526  1.0000
  H   H283      1.0  0.01979  0.75309  0.16062  1.0000
  H   H284      1.0  0.35614  0.98632  0.13551  1.0000
  H   H285      1.0  0.18696  0.97399  0.21337  1.0000
  C   C177      1.0  0.39540  0.57989  0.15411  1.0000
  H   H286      1.0  0.05524  0.88736  0.24008  1.0000
  H   H287      1.0  0.26931  0.00284  0.03632  1.0000
  H   H288      1.0  0.30894  0.98339  0.32156  1.0000
  H   H289      1.0  0.29398  0.99306  0.14946  1.0000
  H   H290      1.0  0.10790  0.53904  0.02870  1.0000
  H   H291      1.0  0.18644  0.78397  0.32712  1.0000
  H   H292      1.0  0.29885  0.58415  0.19534  1.0000
  H   H293      1.0  0.33194  0.59128  0.23601  1.0000
  H   H294      1.0  0.14133  0.93168  0.25629  1.0000
  N   N9        1.0  0.46637  0.69540  0.27105  1.0000
  H   H295      1.0  0.01811  0.77930  0.31933  1.0000
  H   H296      1.0  0.33883  0.58263  0.15786  1.0000
  H   H297      1.0  0.36251  0.60075  0.18837  1.0000
  H   H298      1.0  0.26955  0.55981  0.24285  1.0000
  H   H299      1.0  0.04780  0.84994  0.16721  1.0000
  H   H300      1.0  0.38428  0.53346  0.19511  1.0000
  C   C178      1.0  0.25438  0.97054  0.30989  1.0000
  H   H301      1.0  0.40479  0.66344  0.29349  1.0000
  H   H302      1.0  0.48790  0.82054  0.33041  1.0000
  H   H303      1.0  0.38077  0.93270  0.04049  1.0000
  C   C179      1.0  0.27706  0.51444  0.12541  1.0000
  C   C180      1.0  0.26896  0.53343  0.03700  1.0000
  H   H304      1.0  0.02461  0.83306  0.01796  1.0000
  H   H305      1.0  0.39625  0.54142  0.24330  1.0000
  C   C181      1.0  0.27274  0.00010  0.01257  1.0000
  H   H306      1.0  0.39787  0.60655  0.14420  1.0000
  C   C182      1.0  0.42379  0.67134  0.31068  1.0000
  C   C183      1.0  0.04478  0.79023  0.31413  1.0000
  H   H307      1.0  0.04366  0.56401  0.22746  1.0000
  H   H308      1.0  0.21065  0.97490  0.26443  1.0000
  H   H309      1.0  0.15319  0.81521  0.21589  1.0000
  C   C184      1.0  0.44963  0.73138  0.27625  1.0000
  H   H310      1.0  0.15718  0.86114  0.20552  1.0000
  C   C185      1.0  0.42891  0.96388  0.23399  1.0000
  H   H311      1.0  0.43855  0.93929  0.24294  1.0000
  N   N10       1.0  0.33085  0.54114  0.21201  1.0000
  S   S45       1.0  0.38923  0.97272  0.28482  1.0000
  H   H312      1.0  0.32894  0.96823  0.22333  1.0000
  C   C186      1.0  0.17446  0.88046  0.29517  1.0000
  H   H313      1.0  0.07892  0.99174  0.20842  1.0000
  H   H314      1.0  0.02616  0.54485  0.27673  1.0000
  H   H315      1.0  0.47931  0.68550  0.31578  1.0000
  C   C187      1.0  0.35479  0.95705  0.13828  1.0000
  N   N11       1.0  0.05574  0.79423  0.17668  1.0000
  C   C188      1.0  0.16024  0.95360  0.25173  1.0000
  H   H316      1.0  0.16562  0.91273  0.33308  1.0000
  H   H317      1.0  0.47117  0.57363  0.22700  1.0000
  C   C189      1.0  0.46211  0.67429  0.29845  1.0000
  C   C190      1.0  0.45201  0.75865  0.25156  1.0000
  H   H318      1.0  0.21100  0.92813  0.26090  1.0000
  C   C191      1.0  0.47313  0.54667  0.23470  1.0000
  C   C192      1.0  0.05622  0.51475  0.02491  1.0000
  H   H319      1.0  0.35046  0.52200  0.17079  1.0000
  H   H320      1.0  0.47165  0.64658  0.29512  1.0000
  C   C193      1.0  0.38945  0.58434  0.27345  1.0000
  H   H321      1.0  0.48936  0.66906  0.21337  1.0000
  C   C194      1.0  0.14539  0.85306  0.30139  1.0000
  H   H322      1.0  0.09421  0.80276  0.33463  1.0000
  H   H323      1.0  0.14572  0.98356  0.30603  1.0000
  H   H324      1.0  0.24534  0.92105  0.20049  1.0000
  C   C195      1.0  0.39020  0.94139  0.12824  1.0000
  C   C196      1.0  0.20540  0.51575  0.14344  1.0000
  H   H325      1.0  0.45645  0.80592  0.27928  1.0000
  C   C197      1.0  0.28576  0.92672  0.16599  1.0000
  C   C198      1.0  0.25502  0.54313  0.11845  1.0000
  C   C199      1.0  0.37902  0.96150  0.03561  1.0000
  C   C200      1.0  0.44802  0.67521  0.24680  1.0000
  H   H326      1.0  0.29739  0.89959  0.16710  1.0000
  C   C201      1.0  0.03965  0.79714  0.20659  1.0000
  H   H327      1.0  0.18709  0.00536  0.30370  1.0000
  H   H328      1.0  0.23944  0.60323  0.21114  1.0000
  C   C202      1.0  0.28734  0.96505  0.32841  1.0000
  C   C203      1.0  0.22602  0.94109  0.31517  1.0000
  C   C204      1.0  0.34719  0.94789  0.17034  1.0000
  C   C205      1.0  0.04864  0.75880  0.16210  1.0000
  H   H329      1.0  0.05656  0.82281  0.13641  1.0000
  H   H330      1.0  0.19809  0.89535  0.16833  1.0000
  H   H331      1.0  0.23753  0.86826  0.16945  1.0000
  H   H332      1.0  0.05883  0.78813  0.22326  1.0000
  H   H333      1.0  0.24412  0.99748  0.31500  1.0000
  H   H334      1.0  0.39391  0.55971  0.13644  1.0000
  H   H335      1.0  0.36643  0.96333  0.18382  1.0000
  H   H336      1.0  0.28297  0.95904  0.22209  1.0000
  H   H337      1.0  0.35477  0.91960  0.17342  1.0000
  H   H338      1.0  0.32903  0.55321  0.25783  1.0000
  H   H339      1.0  0.06598  0.72783  0.19992  1.0000
  S   S46       1.0  0.50140  0.57793  0.28383  1.0000
  C   C206      1.0  0.43967  0.97440  0.20608  1.0000
  N   N12       1.0  0.19014  0.94756  0.30177  1.0000
  H   H340      1.0  0.10607  0.85535  0.17328  1.0000
  C   C207      1.0  0.24680  0.92505  0.17687  1.0000
  H   H341      1.0  0.30087  0.89156  0.21439  1.0000
  C   C208      1.0  0.43861  0.66200  0.19345  1.0000
  H   H342      1.0  0.09534  0.72539  0.16934  1.0000
  H   H343      1.0  0.39708  0.95177  0.10659  1.0000
  C   C209      1.0  0.29669  0.99050  0.17319  1.0000
  H   H344      1.0  0.37984  0.56670  0.29091  1.0000
  C   C210      1.0  0.22666  0.89418  0.16242  1.0000
  H   H345      1.0  0.17663  0.88213  0.27138  1.0000
  H   H346      1.0  0.28383  0.93211  0.14251  1.0000
  S   S47       1.0  0.03718  0.53673  0.05554  1.0000
  H   H347      1.0  0.29144  0.53776  0.02186  1.0000
  C   C211      1.0  0.31749  0.91254  0.22468  1.0000
  N   N13       1.0  0.30962  0.95385  0.18069  1.0000
  H   H348      1.0  0.22861  0.89573  0.13854  1.0000
  H   H349      1.0  0.03454  0.82563  0.21216  1.0000
  H   H350      1.0  0.05769  0.75950  0.13923  1.0000
  Fe  Fe25      1.0  0.40128  0.93301  0.32113  1.0000
  H   H351      1.0  0.43979  0.81420  0.24358  1.0000
  H   H352      1.0  0.45002  0.52326  0.19596  1.0000
  C   C212      1.0  0.04960  0.69155  0.16617  1.0000
  H   H353      1.0  0.41850  0.58844  0.27639  1.0000
  C   C213      1.0  0.14847  0.83425  0.19817  1.0000
  C   C214      1.0  0.04218  0.82339  0.15748  1.0000
  H   H354      1.0  0.13752  0.92369  0.30418  1.0000
  H   H355      1.0  0.39811  0.96759  0.01800  1.0000
  H   H356      1.0  0.23265  0.94998  0.17151  1.0000
  H   H357      1.0  0.14276  0.84903  0.32497  1.0000
  H   H358      1.0  0.28227  0.91364  0.26207  1.0000
  C   C215      1.0  0.30893  0.95013  0.21311  1.0000
  C   C216      1.0  0.20721  0.98430  0.00909  1.0000
  H   H359      1.0  0.26567  0.56519  0.10633  1.0000
  H   H360      1.0  0.16453  0.82638  0.17900  1.0000
  H   H361      1.0  0.31987  0.88446  0.26534  1.0000
  H   H362      1.0  0.43076  0.61751  0.32715  1.0000
  H   H363      1.0  0.44939  0.64592  0.25040  1.0000
  C   C217      1.0  0.02042  0.57531  0.23774  1.0000
  H   H364      1.0  0.34589  0.90617  0.22069  1.0000
  H   H365      1.0  0.02491  0.88868  0.04189  1.0000
  H   H366      1.0  0.27687  0.97127  0.00865  1.0000
  S   S48       1.0  0.32199  0.51565  0.11455  1.0000
  H   H367      1.0  0.11947  0.86195  0.29262  1.0000
  H   H368      1.0  0.14333  0.95579  0.20691  1.0000
  C   C218      1.0  0.35768  0.54198  0.18776  1.0000
  C   C219      1.0  0.50568  0.70059  0.26597  1.0000
  H   H369      1.0  0.41145  0.67343  0.19393  1.0000
  H   H370      1.0  0.32616  0.93179  0.26883  1.0000
  H   H371      1.0  0.41188  0.94884  0.14339  1.0000
  H   H372      1.0  0.45759  0.95766  0.19377  1.0000
  H   H373      1.0  0.41913  0.68151  0.24677  1.0000
  H   H374      1.0  0.44985  0.66559  0.17149  1.0000
  C   C220      1.0  0.40556  0.98513  0.25014  1.0000
  C   C221      1.0  0.10904  0.83525  0.19038  1.0000
  C   C222      1.0  0.46094  0.51815  0.21706  1.0000
  H   H375      1.0  0.28944  0.54197  0.17953  1.0000
  H   H376      1.0  0.00665  0.78222  0.25909  1.0000
  H   H377      1.0  0.22539  0.56744  0.18724  1.0000
  H   H378      1.0  0.10682  0.77828  0.19370  1.0000
  H   H379      1.0  0.37599  0.61048  0.27528  1.0000
  H   H380      1.0  0.17967  0.92619  0.21326  1.0000
  H   H381      1.0  0.15229  0.82716  0.29108  1.0000
  C   C223      1.0  0.17389  0.98163  0.31316  1.0000
  H   H382      1.0  0.05162  0.68854  0.14236  1.0000
  H   H383      1.0  0.00707  0.53336  0.18803  1.0000
  C   C224      1.0  0.09145  0.52062  0.01646  1.0000
  H   H384      1.0  0.25375  0.52360  0.22019  1.0000
  H   H385      1.0  0.02136  0.93430  0.03627  1.0000
  H   H386      1.0  0.26308  0.97001  0.28699  1.0000
  H   H387      1.0  0.27950  0.53520  0.05933  1.0000
  H   H388      1.0  0.39522  0.58439  0.22751  1.0000
  H   H389      1.0  0.32312  0.96392  0.04479  1.0000
  H   H390      1.0  0.20864  0.56982  0.22356  1.0000
  C   C225      1.0  0.48806  0.54059  0.26211  1.0000
  C   C226      1.0  0.18440  0.75455  0.32894  1.0000
  H   H391      1.0  0.29716  0.93731  0.32638  1.0000
  C   C227      1.0  0.23242  0.57451  0.20987  1.0000
  C   C228      1.0  0.46245  0.68065  0.21573  1.0000
  H   H392      1.0  0.43450  0.75012  0.23348  1.0000
  H   H393      1.0  0.14703  0.97929  0.25668  1.0000
  C   C229      1.0  0.43907  0.79525  0.26179  1.0000
  C   C230      1.0  0.00721  0.90860  0.03205  1.0000
  H   H394      1.0  0.46155  0.74394  0.29588  1.0000
  H   H395      1.0  0.43705  0.63300  0.19778  1.0000
  H   H396      1.0  0.19145  0.74233  0.30775  1.0000
  H   H397      1.0  0.02120  0.69060  0.17271  1.0000
  H   H398      1.0  0.38675  0.97679  0.05524  1.0000
  H   H399      1.0  0.47951  0.76221  0.24357  1.0000
  H   H400      1.0  0.12878  0.75198  0.31971  1.0000
  H   H401      1.0  0.24905  0.55476  0.03379  1.0000
  S   S49       1.0  0.36200  0.88861  0.32932  1.0000
  C   C231      1.0  0.42739  0.00628  0.19393  1.0000
  H   H402      1.0  0.19874  0.51024  0.04216  1.0000
  H   H403      1.0  0.01065  0.74682  0.21335  1.0000
  S   S50       1.0  0.44878  0.90110  0.33611  1.0000
  S   S51       1.0  0.00758  0.61044  0.18601  1.0000
  H   H404      1.0  0.33407  0.95294  0.00824  1.0000
  H   H405      1.0  0.00635  0.84935  0.10952  1.0000
  Fe  Fe26      1.0  0.04524  0.94053  0.41723  1.0000
  S   S52       1.0  0.05421  0.88096  0.41808  1.0000
  H   H406      1.0  0.14239  0.77811  0.42462  1.0000
  H   H407      1.0  0.20164  0.98955  0.35473  1.0000
  H   H408      1.0  0.43191  0.79307  0.41063  1.0000
  Fe  Fe27      1.0  0.02195  0.87985  0.37721  1.0000
  C   C232      1.0  0.50074  0.81675  0.42108  1.0000
  Fe  Fe28      1.0  0.10082  0.89156  0.38860  1.0000
  S   S53       1.0  0.15148  0.85923  0.38605  1.0000
  H   H409      1.0  0.36563  0.96855  0.47367  1.0000
  S   S54       1.0  0.09483  0.95075  0.39074  1.0000
  H   H410      1.0  0.39796  0.00313  0.46738  1.0000
  C   C233      1.0  0.50229  0.90058  0.50291  1.0000
  H   H411      1.0  0.28103  0.97103  0.35136  1.0000
  Fe  Fe29      1.0  0.35640  0.91153  0.37404  1.0000
  S   S55       1.0  0.39341  0.95724  0.36545  1.0000
  S   S56       1.0  0.30554  0.92769  0.39719  1.0000
  H   H412      1.0  0.43180  0.73189  0.36669  1.0000
  Fe  Fe30      1.0  0.43708  0.92188  0.38119  1.0000
  Fe  Fe31      1.0  0.05991  0.94433  0.35172  1.0000
  H   H413      1.0  0.04601  0.65239  0.42418  1.0000
  S   S57       1.0  0.39960  0.87802  0.39314  1.0000
  H   H414      1.0  0.11960  0.79854  0.47216  1.0000
  S   S58       1.0  0.00988  0.93860  0.37799  1.0000
  C   C234      1.0  0.45772  0.95662  0.59237  1.0000
  H   H415      1.0  0.45517  0.86857  0.49654  1.0000
  C   C235      1.0  0.46591  0.90056  0.45912  1.0000
  C   C236      1.0  0.11393  0.77381  0.42980  1.0000
  H   H416      1.0  0.07718  0.64316  0.39558  1.0000
  H   H417      1.0  0.44296  0.89094  0.44733  1.0000
  C   C237      1.0  0.19372  0.88002  0.38663  1.0000
  C   C238      1.0  0.22325  0.86167  0.37544  1.0000
  C   C239      1.0  0.25764  0.87653  0.37740  1.0000
  C   C240      1.0  0.26273  0.90950  0.39119  1.0000
  C   C241      1.0  0.23303  0.92819  0.40166  1.0000
  C   C242      1.0  0.19861  0.91372  0.39913  1.0000
  C   C243      1.0  0.49615  0.99289  0.54333  1.0000
  H   H418      1.0  0.28036  0.86190  0.36936  1.0000
  H   H419      1.0  0.23679  0.95370  0.41236  1.0000
  H   H420      1.0  0.17612  0.92798  0.40798  1.0000
  H   H421      1.0  0.04350  0.69884  0.38775  1.0000
  S   S59       1.0  0.03765  0.97909  0.45562  1.0000
  C   C244      1.0  0.48797  0.79414  0.33951  1.0000
  H   H422      1.0  0.21967  0.83555  0.36578  1.0000
  C   C245      1.0  0.10349  0.80194  0.45232  1.0000
  H   H423      1.0  0.12322  0.70903  0.40273  1.0000
  H   H424      1.0  0.39351  0.64146  0.34217  1.0000
  H   H425      1.0  0.45755  0.92011  0.62830  1.0000
  H   H426      1.0  0.11082  0.74736  0.43990  1.0000
  C   C246      1.0  0.45643  0.74412  0.35981  1.0000
  C   C247      1.0  0.44479  0.95847  0.56068  1.0000
  C   C248      1.0  0.07104  0.66159  0.41384  1.0000
  C   C249      1.0  0.44810  0.92075  0.60559  1.0000
  H   H427      1.0  0.09280  0.80472  0.39508  1.0000
  H   H428      1.0  0.09269  0.66060  0.43007  1.0000
  C   C250      1.0  0.44400  0.98443  0.51271  1.0000
  C   C251      1.0  0.39403  0.97611  0.47635  1.0000
  H   H429      1.0  0.42216  0.77764  0.44647  1.0000
  H   H430      1.0  0.20380  0.74543  0.34530  1.0000
  H   H431      1.0  0.45365  0.93372  0.54936  1.0000
  C   C252      1.0  0.50117  0.68315  0.43319  1.0000
  C   C253      1.0  0.47793  0.63639  0.57030  1.0000
  C   C254      1.0  0.47290  0.88796  0.48705  1.0000
  H   H432      1.0  0.07492  0.79940  0.45808  1.0000
  H   H433      1.0  0.04460  0.74875  0.36403  1.0000
  H   H434      1.0  0.04643  0.87382  0.55721  1.0000
  H   H435      1.0  0.04509  0.51079  0.58981  1.0000
  H   H436      1.0  0.06237  0.77356  0.40897  1.0000
  C   C255      1.0  0.07137  0.75449  0.35494  1.0000
  H   H437      1.0  0.01902  0.99491  0.63748  1.0000
  H   H438      1.0  0.03811  0.93733  0.56728  1.0000
  H   H439      1.0  0.39805  0.94832  0.51618  1.0000
  H   H440      1.0  0.10506  0.69495  0.36933  1.0000
  C   C256      1.0  0.47768  0.79120  0.43956  1.0000
  S   S60       1.0  0.48119  0.94179  0.41127  1.0000
  H   H441      1.0  0.48693  0.95967  0.59421  1.0000
  C   C257      1.0  0.17408  0.98652  0.34649  1.0000
  H   H442      1.0  0.04737  0.99253  0.59472  1.0000
  H   H443      1.0  0.13859  0.79027  0.36423  1.0000
  H   H444      1.0  0.47553  0.69338  0.42493  1.0000
  H   H445      1.0  0.43021  0.82429  0.44065  1.0000
  H   H446      1.0  0.45276  0.64909  0.56346  1.0000
  H   H447      1.0  0.15669  0.75382  0.38244  1.0000
  H   H448      1.0  0.16167  0.96340  0.35721  1.0000
  H   H449      1.0  0.02016  0.51848  0.64830  1.0000
  C   C258      1.0  0.00854  0.93222  0.60811  1.0000
  H   H450      1.0  0.43787  0.65286  0.35350  1.0000
  H   H451      1.0  0.05571  0.81036  0.35673  1.0000
  Fe  Fe32      1.0  0.40876  0.85876  0.34761  1.0000
  H   H452      1.0  0.05884  0.71636  0.42191  1.0000
  H   H453      1.0  0.10868  0.82906  0.44393  1.0000
  C   C259      1.0  0.06616  0.69951  0.40304  1.0000
  H   H454      1.0  0.38700  0.99490  0.52010  1.0000
  C   C260      1.0  0.43812  0.79698  0.43391  1.0000
  C   C261      1.0  0.13583  0.76098  0.36656  1.0000
  N   N14       1.0  0.09947  0.75134  0.37795  1.0000
  H   H455      1.0  0.49698  0.56604  0.49403  1.0000
  C   C262      1.0  0.10035  0.71328  0.38796  1.0000
  C   C263      1.0  0.09055  0.77666  0.40239  1.0000
  H   H456      1.0  0.49458  0.81046  0.39806  1.0000
  H   H457      1.0  0.02002  0.86199  0.58814  1.0000
  S   S61       1.0  0.06904  0.88595  0.34796  1.0000
  H   H458      1.0  0.44441  0.97735  0.60567  1.0000
  H   H459      1.0  0.10398  0.50887  0.56586  1.0000
  H   H460      1.0  0.49726  0.71281  0.47311  1.0000
  H   H461      1.0  0.03399  0.93811  0.61954  1.0000
  H   H462      1.0  0.46108  0.89867  0.59344  1.0000
  S   S62       1.0  0.41476  0.79899  0.34160  1.0000
  C   C264      1.0  0.03817  0.88252  0.57922  1.0000
  H   H463      1.0  0.47802  0.66866  0.47337  1.0000
  H   H464      1.0  0.47853  0.60837  0.56236  1.0000
  H   H465      1.0  0.48494  0.67399  0.52047  1.0000
  C   C265      1.0  0.45599  0.77852  0.34831  1.0000
  C   C266      1.0  0.01939  0.91841  0.57757  1.0000
  H   H466      1.0  0.45930  0.96232  0.50254  1.0000
  H   H467      1.0  0.41887  0.91653  0.60546  1.0000
  H   H468      1.0  0.41533  0.95658  0.56188  1.0000
  C   C267      1.0  0.48846  0.92572  0.44660  1.0000
  C   C268      1.0  0.40405  0.97553  0.50835  1.0000
  H   H469      1.0  0.49035  0.84403  0.42515  1.0000
  C   C269      1.0  0.50117  0.68472  0.46618  1.0000
  H   H470      1.0  0.48835  0.69853  0.37046  1.0000
  N   N15       1.0  0.45609  0.99057  0.54354  1.0000
  H   H471      1.0  0.48221  0.79541  0.46298  1.0000
  H   H472      1.0  0.47858  0.63615  0.59428  1.0000
  C   C270      1.0  0.48842  0.72513  0.36189  1.0000
  H   H473      1.0  0.06227  0.88469  0.59298  1.0000
  H   H474      1.0  0.50468  0.63110  0.51731  1.0000
  H   H475      1.0  0.48345  0.76299  0.43411  1.0000
  H   H476      1.0  0.41040  0.95685  0.46377  1.0000
  H   H477      1.0  0.38965  0.52511  0.66909  1.0000
  C   C271      1.0  0.06815  0.79165  0.34105  1.0000
  H   H478      1.0  0.14584  0.71410  0.33859  1.0000
  H   H479      1.0  0.50430  0.65528  0.42536  1.0000
  H   H480      1.0  0.03567  0.00509  0.55921  1.0000
  H   H481      1.0  0.07521  0.73394  0.33771  1.0000
  H   H482      1.0  0.22346  0.93666  0.33880  1.0000
  C   C272      1.0  0.14665  0.74354  0.33735  1.0000
  H   H483      1.0  0.35683  0.53819  0.86564  1.0000
  C   C273      1.0  0.31614  0.98348  0.92471  1.0000
  H   H484      1.0  0.03417  0.51744  0.93016  1.0000
  H   H485      1.0  0.06201  0.85322  0.98520  1.0000
  C   C274      1.0  0.47493  0.58200  0.89789  1.0000
  H   H486      1.0  0.45136  0.58999  0.91107  1.0000
  C   C275      1.0  0.05089  0.00510  0.99963  1.0000
  H   H487      1.0  0.00803  0.57639  0.93586  1.0000
  H   H488      1.0  0.12488  0.87126  0.98701  1.0000
  H   H489      1.0  0.10265  0.89171  0.95701  1.0000
  H   H490      1.0  0.32089  0.95636  0.91573  1.0000
  H   H491      1.0  0.02968  0.98913  0.68979  1.0000
  H   H492      1.0  0.36725  0.54291  0.90348  1.0000
  H   H493      1.0  0.04944  0.93407  0.99023  1.0000
  H   H494      1.0  0.06091  0.00283  0.95370  1.0000
  C   C276      1.0  0.49498  0.52108  0.75422  1.0000
  H   H495      1.0  0.42897  0.53150  0.91966  1.0000
  H   H496      1.0  0.38295  0.51102  0.75848  1.0000
  H   H497      1.0  0.36145  0.53927  0.80351  1.0000
  C   C277      1.0  0.09221  0.55534  0.92679  1.0000
  H   H498      1.0  0.11271  0.91751  0.98933  1.0000
  H   H499      1.0  0.48476  0.53555  0.94183  1.0000
  H   H500      1.0  0.47802  0.54194  0.84917  1.0000
  C   C278      1.0  0.01559  0.52443  0.85791  1.0000
  C   C279      1.0  0.41339  0.54035  0.87498  1.0000
  H   H501      1.0  0.41395  0.56970  0.87301  1.0000
  C   C280      1.0  0.44030  0.52664  0.89769  1.0000
  C   C281      1.0  0.03917  0.90678  0.98575  1.0000
  H   H502      1.0  0.03122  0.54920  0.85460  1.0000
  H   H503      1.0  0.07839  0.55885  0.94784  1.0000
  C   C282      1.0  0.49321  0.53024  0.86732  1.0000
  H   H504      1.0  0.10954  0.53156  0.92767  1.0000
  H   H505      1.0  0.08091  0.54707  0.88192  1.0000
  H   H506      1.0  0.05093  0.57684  0.90020  1.0000
  H   H507      1.0  0.41953  0.52852  0.85348  1.0000
  C   C283      1.0  0.31575  0.98220  0.95770  1.0000
  C   C284      1.0  0.03963  0.51955  0.90672  1.0000
  H   H508      1.0  0.47029  0.59328  0.87608  1.0000
  C   C285      1.0  0.06548  0.55139  0.90215  1.0000
  H   H509      1.0  0.10937  0.57898  0.92315  1.0000
  C   C286      1.0  0.10433  0.89093  0.98094  1.0000
  H   H510      1.0  0.03690  0.90435  0.96189  1.0000
  C   C287      1.0  0.37534  0.52981  0.88289  1.0000
  N   N16       1.0  0.47755  0.54176  0.89592  1.0000
  H   H511      1.0  0.01633  0.51155  0.79854  1.0000
  H   H512      1.0  0.18153  0.99146  0.99895  1.0000
  C   C288      1.0  0.06857  0.88009  0.99395  1.0000
  H   H513      1.0  0.47757  0.65246  0.91737  1.0000
  C   C289      1.0  0.49815  0.52755  0.92126  1.0000
  H   H514      1.0  0.49619  0.54421  0.76834  1.0000
  H   H515      1.0  0.34188  0.97157  0.96441  1.0000
  H   H516      1.0  0.01217  0.55913  0.80444  1.0000
  H   H517      1.0  0.29432  0.96355  0.96403  1.0000
  H   H518      1.0  0.50342  0.64934  0.88441  1.0000
  C   C290      1.0  0.36494  0.50997  0.80216  1.0000
  H   H519      1.0  0.29024  0.99306  0.91642  1.0000
  C   C291      1.0  0.50284  0.64275  0.90773  1.0000
  H   H520      1.0  0.13238  0.50833  0.98528  1.0000
  H   H521      1.0  0.33775  0.00130  0.91704  1.0000
  H   H522      1.0  0.36037  0.50908  0.71477  1.0000
  H   H523      1.0  0.42157  0.50779  0.69418  1.0000
  H   H524      1.0  0.21338  0.95623  0.00324  1.0000
  H   H525      1.0  0.64407  0.10098  0.02809  1.0000
  H   H526      1.0  0.93294  0.39923  0.15778  1.0000
  C   C292      1.0  0.99625  0.03390  0.01375  1.0000
  H   H527      1.0  0.95246  0.49080  0.22976  1.0000
  H   H528      1.0  0.52107  0.34974  0.19825  1.0000
  C   C293      1.0  0.96370  0.02206  0.32353  1.0000
  H   H529      1.0  0.99030  0.09545  0.31429  1.0000
  H   H530      1.0  0.91374  0.47406  0.16665  1.0000
  H   H531      1.0  0.50925  0.37290  0.05693  1.0000
  H   H532      1.0  0.90136  0.49427  0.26231  1.0000
  H   H533      1.0  0.93825  0.45183  0.19343  1.0000
  C   C294      1.0  0.98667  0.11175  0.33418  1.0000
  C   C295      1.0  0.99698  0.50578  0.18449  1.0000
  H   H534      1.0  0.98701  0.43792  0.16100  1.0000
  H   H535      1.0  0.99389  0.01004  0.28432  1.0000
  H   H536      1.0  0.95654  0.40205  0.12398  1.0000
  H   H537      1.0  0.00084  0.17324  0.00540  1.0000
  C   C296      1.0  0.51355  0.34332  0.15276  1.0000
  C   C297      1.0  0.94126  0.47018  0.17484  1.0000
  H   H538      1.0  0.50928  0.37212  0.14889  1.0000
  C   C298      1.0  0.63411  0.07861  0.01438  1.0000
  H   H539      1.0  0.97807  0.04263  0.03049  1.0000
  H   H540      1.0  0.88863  0.49721  0.20937  1.0000
  H   H541      1.0  0.64840  0.05383  0.01998  1.0000
  H   H542      1.0  0.54206  0.33733  0.14900  1.0000
  H   H543      1.0  0.52858  0.33764  0.07760  1.0000
  H   H544      1.0  0.60539  0.07466  0.01906  1.0000
  H   H545      1.0  0.50791  0.35991  0.29309  1.0000
  C   C299      1.0  0.96229  0.44881  0.15157  1.0000
  H   H546      1.0  0.97008  0.46534  0.13302  1.0000
  C   C300      1.0  0.94050  0.41733  0.13997  1.0000
  H   H547      1.0  0.98708  0.12782  0.01030  1.0000
  N   N17       1.0  0.95686  0.50546  0.18469  1.0000
  H   H548      1.0  0.93668  0.13364  0.31865  1.0000
  C   C301      1.0  0.96302  0.14318  0.32642  1.0000
  H   H549      1.0  0.97572  0.15873  0.30892  1.0000
  H   H550      1.0  0.50900  0.30527  0.18653  1.0000
  H   H551      1.0  0.91611  0.42683  0.12906  1.0000
  H   H552      1.0  0.93579  0.16835  0.00653  1.0000
  H   H553      1.0  0.95089  0.04570  0.31404  1.0000
  H   H554      1.0  0.94382  0.00790  0.33691  1.0000
  H   H555      1.0  0.00281  0.45522  0.20786  1.0000
  Fe  Fe33      1.0  0.89590  0.04760  0.58081  1.0000
  S   S63       1.0  0.86146  0.09711  0.58030  1.0000
  C   C302      1.0  0.74503  0.03500  0.60916  1.0000
  Fe  Fe34      1.0  0.89480  0.04502  0.64721  1.0000
  S   S64       1.0  0.86133  0.09336  0.65128  1.0000
  Fe  Fe35      1.0  0.82927  0.07013  0.61500  1.0000
  S   S65       1.0  0.77029  0.06981  0.62480  1.0000
  Fe  Fe36      1.0  0.89630  0.11655  0.61707  1.0000
  S   S66       1.0  0.92071  0.17054  0.62855  1.0000
  C   C303      1.0  0.75253  0.47526  0.66552  1.0000
  S   S67       1.0  0.93282  0.06888  0.61540  1.0000
  C   C304      1.0  0.63247  0.45814  0.50171  1.0000
  C   C305      1.0  0.99438  0.50416  0.64696  1.0000
  Fe  Fe37      1.0  0.88526  0.45217  0.60400  1.0000
  S   S68       1.0  0.83519  0.41951  0.60231  1.0000
  H   H556      1.0  0.83870  0.49405  0.38829  1.0000
  Fe  Fe38      1.0  0.83196  0.42943  0.65009  1.0000
  H   H557      1.0  0.96891  0.01042  0.58519  1.0000
  Fe  Fe39      1.0  0.86918  0.37273  0.61448  1.0000
  S   S69       1.0  0.85681  0.32010  0.59196  1.0000
  S   S70       1.0  0.87980  0.46564  0.65157  1.0000
  S   S71       1.0  0.91974  0.40453  0.61225  1.0000
  H   H558      1.0  0.63374  0.42881  0.49860  1.0000
  C   C306      1.0  0.87886  0.48010  0.51922  1.0000
  C   C307      1.0  0.87548  0.48643  0.48935  1.0000
  H   H559      1.0  0.73027  0.41811  0.51812  1.0000
  H   H560      1.0  0.99624  0.38964  0.59189  1.0000
  H   H561      1.0  0.68877  0.46620  0.49782  1.0000
  H   H562      1.0  0.86944  0.45536  0.52823  1.0000
  C   C308      1.0  0.97418  0.02510  0.51705  1.0000
  H   H563      1.0  0.97397  0.00887  0.63826  1.0000
  C   C309      1.0  0.90194  0.21181  0.61870  1.0000
  C   C310      1.0  0.91646  0.24353  0.63016  1.0000
  C   C311      1.0  0.90230  0.27686  0.62282  1.0000
  C   C312      1.0  0.87396  0.27877  0.60339  1.0000
  C   C313      1.0  0.85949  0.24706  0.59192  1.0000
  C   C314      1.0  0.87323  0.21371  0.59967  1.0000
  H   H564      1.0  0.93913  0.24239  0.64441  1.0000
  H   H565      1.0  0.91386  0.30111  0.63156  1.0000
  H   H566      1.0  0.83766  0.24832  0.57679  1.0000
  H   H567      1.0  0.86195  0.18953  0.59056  1.0000
  H   H568      1.0  0.86324  0.46640  0.47559  1.0000
  C   C315      1.0  0.00240  0.01736  0.49786  1.0000
  H   H569      1.0  0.51030  0.00819  0.49914  1.0000
  C   C316      1.0  0.70662  0.40962  0.58629  1.0000
  H   H570      1.0  0.97540  0.04842  0.53092  1.0000
  H   H571      1.0  0.67804  0.42700  0.53916  1.0000
  C   C317      1.0  0.99668  0.03276  0.34179  1.0000
  H   H572      1.0  0.82748  0.16935  0.63819  1.0000
  C   C318      1.0  0.75273  0.43301  0.52801  1.0000
  H   H573      1.0  0.99006  0.04945  0.43145  1.0000
  H   H574      1.0  0.79120  0.41015  0.49825  1.0000
  H   H575      1.0  0.81241  0.48352  0.43678  1.0000
  S   S72       1.0  0.90845  0.01010  0.54252  1.0000
  C   C319      1.0  0.79455  0.49050  0.41870  1.0000
  H   H576      1.0  0.93939  0.03382  0.38065  1.0000
  C   C320      1.0  0.78154  0.43691  0.50496  1.0000
  H   H577      1.0  0.97642  0.00881  0.39130  1.0000
  C   C321      1.0  0.74120  0.46976  0.54001  1.0000
  H   H578      1.0  0.93591  0.04543  0.45992  1.0000
  H   H579      1.0  0.80447  0.45240  0.51359  1.0000
  H   H580      1.0  0.76992  0.47438  0.42041  1.0000
  H   H581      1.0  0.99543  0.48082  0.66138  1.0000
  H   H582      1.0  0.71221  0.40174  0.63264  1.0000
  H   H583      1.0  0.56269  0.04489  0.51127  1.0000
  C   C322      1.0  0.51244  0.01932  0.52142  1.0000
  C   C323      1.0  0.62367  0.04525  0.66398  1.0000
  H   H584      1.0  0.95831  0.48185  0.61507  1.0000
  C   C324      1.0  0.75908  0.01350  0.58715  1.0000
  H   H585      1.0  0.55581  0.03760  0.54927  1.0000
  C   C325      1.0  0.99639  0.45710  0.57192  1.0000
  H   H586      1.0  0.62671  0.47046  0.48057  1.0000
  C   C326      1.0  0.67608  0.45599  0.54343  1.0000
  H   H587      1.0  0.63411  0.06580  0.64913  1.0000
  Fe  Fe40      1.0  0.91134  0.41589  0.65990  1.0000
  C   C327      1.0  0.81311  0.47948  0.39064  1.0000
  N   N18       1.0  0.98968  0.05671  0.36752  1.0000
  H   H588      1.0  0.95542  0.46050  0.52262  1.0000
  S   S73       1.0  0.86067  0.01991  0.61310  1.0000
  H   H589      1.0  0.81900  0.21488  0.64939  1.0000
  N   N19       1.0  0.70856  0.47036  0.55893  1.0000
  C   C328      1.0  0.98162  0.47395  0.52041  1.0000
  C   C329      1.0  0.72313  0.39098  0.61211  1.0000
  C   C330      1.0  0.66758  0.47266  0.51370  1.0000
  H   H590      1.0  0.67737  0.40541  0.58729  1.0000
  H   H591      1.0  0.77083  0.45034  0.48565  1.0000
  H   H592      1.0  0.71708  0.36204  0.61097  1.0000
  H   H593      1.0  0.73861  0.49736  0.45777  1.0000
  H   H594      1.0  0.74283  0.45424  0.59409  1.0000
  H   H595      1.0  0.75249  0.39438  0.61213  1.0000
  H   H596      1.0  0.76437  0.41712  0.54570  1.0000
  C   C331      1.0  0.96461  0.05314  0.41974  1.0000
  H   H597      1.0  0.94205  0.08306  0.35268  1.0000
  H   H598      1.0  0.61234  0.42138  0.64051  1.0000
  H   H599      1.0  0.96896  0.44610  0.57418  1.0000
  H   H600      1.0  0.61023  0.46480  0.51661  1.0000
  H   H601      1.0  0.79596  0.48508  0.37173  1.0000
  H   H602      1.0  0.68016  0.47374  0.43843  1.0000
  H   H603      1.0  0.71644  0.39595  0.56664  1.0000
  C   C332      1.0  0.55187  0.02597  0.52732  1.0000
  S   S74       1.0  0.86290  0.38056  0.66224  1.0000
  H   H604      1.0  0.96730  0.10828  0.37773  1.0000
  C   C333      1.0  0.59615  0.41914  0.66048  1.0000
  H   H605      1.0  0.90875  0.04108  0.42805  1.0000
  C   C334      1.0  0.71488  0.45025  0.58663  1.0000
  H   H606      1.0  0.76466  0.47999  0.55215  1.0000
  C   C335      1.0  0.71016  0.02890  0.61878  1.0000
  H   H607      1.0  0.59431  0.04462  0.66184  1.0000
  H   H608      1.0  0.73791  0.48821  0.52163  1.0000
  H   H609      1.0  0.69801  0.46128  0.60440  1.0000
  H   H610      1.0  0.65223  0.45916  0.55759  1.0000
  C   C336      1.0  0.93528  0.03525  0.43730  1.0000
  H   H611      1.0  0.78587  0.01812  0.57952  1.0000
  C   C337      1.0  0.96988  0.08977  0.35893  1.0000
  H   H612      1.0  0.69916  0.04564  0.63562  1.0000
  H   H613      1.0  0.66494  0.50193  0.51509  1.0000
  C   C338      1.0  0.96704  0.03666  0.38890  1.0000
  H   H614      1.0  0.95878  0.08200  0.41926  1.0000
  H   H615      1.0  0.81886  0.45052  0.39090  1.0000
  H   H616      1.0  0.98669  0.43048  0.63186  1.0000
  H   H617      1.0  0.63404  0.01874  0.65745  1.0000
  H   H618      1.0  0.78358  0.18234  0.64948  1.0000
  C   C339      1.0  0.67353  0.50130  0.43199  1.0000
  H   H619      1.0  0.56939  0.43022  0.65608  1.0000
  C   C340      1.0  0.81239  0.18653  0.65353  1.0000
  H   H620      1.0  0.65564  0.49990  0.41291  1.0000
  H   H621      1.0  0.99936  0.36550  0.64126  1.0000
  H   H622      1.0  0.00091  0.45488  0.51085  1.0000
  C   C341      1.0  0.71535  0.47325  0.66492  1.0000
  H   H623      1.0  0.70232  0.44761  0.66562  1.0000
  C   C342      1.0  0.99472  0.48773  0.54976  1.0000
  S   S75       1.0  0.90148  0.49851  0.57486  1.0000
  C   C343      1.0  0.98587  0.49291  0.61528  1.0000
  C   C344      1.0  0.69480  0.50426  0.66418  1.0000
  H   H624      1.0  0.66624  0.50241  0.66409  1.0000
  S   S76       1.0  0.77677  0.43556  0.66896  1.0000
  H   H625      1.0  0.95923  0.16110  0.34544  1.0000
  H   H626      1.0  0.59350  0.39053  0.66592  1.0000
  H   H627      1.0  0.97846  0.49658  0.50542  1.0000
  C   C345      1.0  0.89512  0.50549  0.53724  1.0000
  C   C346      1.0  0.95003  0.35127  0.84117  1.0000
  C   C347      1.0  0.94805  0.43113  0.74418  1.0000
  Fe  Fe41      1.0  0.93711  0.14675  0.89322  1.0000
  S   S77       1.0  0.98171  0.11453  0.87511  1.0000
  S   S78       1.0  0.94476  0.20397  0.90848  1.0000
  Fe  Fe42      1.0  0.88372  0.08604  0.88418  1.0000
  S   S79       1.0  0.92561  0.04943  0.86554  1.0000
  S   S80       1.0  0.82709  0.06499  0.88896  1.0000
  Fe  Fe43      1.0  0.96056  0.06972  0.90206  1.0000
  S   S81       1.0  0.52386  0.49507  0.67140  1.0000
  Fe  Fe44      1.0  0.94297  0.09765  0.84077  1.0000
  S   S82       1.0  0.96062  0.10618  0.79453  1.0000
  S   S83       1.0  0.91756  0.10305  0.92229  1.0000
  S   S84       1.0  0.89925  0.13288  0.85728  1.0000
  Fe  Fe45      1.0  0.63514  0.11473  0.83750  1.0000
  S   S85       1.0  0.61912  0.06253  0.85638  1.0000
  S   S86       1.0  0.69171  0.13439  0.82996  1.0000
  Fe  Fe46      1.0  0.55770  0.13521  0.82603  1.0000
  S   S87       1.0  0.53619  0.08345  0.84320  1.0000
  S   S88       1.0  0.90555  0.01413  0.68765  1.0000
  Fe  Fe47      1.0  0.57511  0.09234  0.87960  1.0000
  H   H628      1.0  0.71233  0.43936  0.76610  1.0000
  Fe  Fe48      1.0  0.58172  0.05842  0.81826  1.0000
  H   H629      1.0  0.63736  0.18969  0.90656  1.0000
  S   S89       1.0  0.59437  0.14530  0.86320  1.0000
  S   S90       1.0  0.59986  0.10946  0.79864  1.0000
  H   H630      1.0  0.62738  0.06436  0.96990  1.0000
  C   C348      1.0  0.95790  0.43641  0.77337  1.0000
  H   H631      1.0  0.92226  0.43967  0.73672  1.0000
  C   C349      1.0  0.79060  0.08342  0.87025  1.0000
  C   C350      1.0  0.75837  0.06436  0.86885  1.0000
  C   C351      1.0  0.72807  0.07931  0.85600  1.0000
  C   C352      1.0  0.72963  0.11364  0.84474  1.0000
  C   C353      1.0  0.76208  0.13228  0.84541  1.0000
  C   C354      1.0  0.79244  0.11727  0.85809  1.0000
  H   H632      1.0  0.75680  0.03803  0.87797  1.0000
  H   H633      1.0  0.70352  0.06431  0.85483  1.0000
  H   H634      1.0  0.76358  0.15876  0.83658  1.0000
  H   H635      1.0  0.81701  0.13226  0.85910  1.0000
  H   H636      1.0  0.72958  0.10116  0.70940  1.0000
  C   C355      1.0  0.95179  0.31454  0.74898  1.0000
  H   H637      1.0  0.62478  0.03130  0.70866  1.0000
  C   C356      1.0  0.98240  0.22873  0.89741  1.0000
  C   C357      1.0  0.85644  0.14807  0.73588  1.0000
  H   H638      1.0  0.79126  0.13284  0.92390  1.0000
  C   C358      1.0  0.97190  0.41559  0.72461  1.0000
  N   N20       1.0  0.99593  0.28632  0.78547  1.0000
  C   C359      1.0  0.86548  0.14217  0.76824  1.0000
  H   H639      1.0  0.51833  0.47738  0.90249  1.0000
  H   H640      1.0  0.96895  0.50129  0.83496  1.0000
  C   C360      1.0  0.91920  0.04046  0.71748  1.0000
  C   C361      1.0  0.91257  0.02890  0.74570  1.0000
  C   C362      1.0  0.92446  0.04910  0.76967  1.0000
  C   C363      1.0  0.94406  0.08033  0.76542  1.0000
  C   C364      1.0  0.95093  0.09162  0.73720  1.0000
  C   C365      1.0  0.93793  0.07221  0.71331  1.0000
  H   H641      1.0  0.96871  0.33739  0.70805  1.0000
  H   H642      1.0  0.91909  0.04018  0.79136  1.0000
  S   S91       1.0  0.51955  0.17568  0.80788  1.0000
  H   H643      1.0  0.94585  0.29504  0.83467  1.0000
  C   C366      1.0  0.98382  0.26557  0.90293  1.0000
  H   H644      1.0  0.68015  0.20725  0.91775  1.0000
  H   H645      1.0  0.57700  0.21833  0.91254  1.0000
  C   C367      1.0  0.55495  0.02865  0.73920  1.0000
  H   H646      1.0  0.56631  0.21510  0.84699  1.0000
  C   C368      1.0  0.84756  0.28018  0.74157  1.0000
  H   H647      1.0  0.93217  0.32092  0.80447  1.0000
  H   H648      1.0  0.81547  0.11604  0.77972  1.0000
  H   H649      1.0  0.67161  0.19747  0.88015  1.0000
  C   C369      1.0  0.64127  0.44570  0.74927  1.0000
  N   N21       1.0  0.68686  0.10066  0.94372  1.0000
  H   H650      1.0  0.69514  0.01307  0.73693  1.0000
  H   H651      1.0  0.73832  0.07552  0.94751  1.0000
  C   C370      1.0  0.67099  0.13626  0.93650  1.0000
  C   C371      1.0  0.67091  0.07280  0.92386  1.0000
  H   H652      1.0  0.72660  0.04843  0.77841  1.0000
  S   S92       1.0  0.51033  0.33089  0.86271  1.0000
  C   C372      1.0  0.68024  0.15081  0.90620  1.0000
  H   H653      1.0  0.71023  0.02976  0.92789  1.0000
  H   H654      1.0  0.56143  0.27553  0.86867  1.0000
  H   H655      1.0  0.80172  0.15082  0.95911  1.0000
  H   H656      1.0  0.92350  0.35198  0.85167  1.0000
  C   C373      1.0  0.66642  0.18865  0.90259  1.0000
  H   H657      1.0  0.96379  0.05402  0.97895  1.0000
  H   H658      1.0  0.69392  0.06911  0.98216  1.0000
  C   C374      1.0  0.82123  0.17690  0.68466  1.0000
  C   C375      1.0  0.68319  0.03713  0.74718  1.0000
  H   H659      1.0  0.67836  0.15671  0.95305  1.0000
  H   H660      1.0  0.64144  0.13476  0.93724  1.0000
  H   H661      1.0  0.64143  0.07473  0.92359  1.0000
  H   H662      1.0  0.67899  0.07785  0.90124  1.0000
  H   H663      1.0  0.83606  0.24727  0.70479  1.0000
  H   H664      1.0  0.65532  0.12893  0.70105  1.0000
  H   H665      1.0  0.98795  0.01270  0.69248  1.0000
  C   C376      1.0  0.54201  0.26655  0.85295  1.0000
  H   H666      1.0  0.66767  0.13384  0.88933  1.0000
  H   H667      1.0  0.70925  0.15161  0.90212  1.0000
  H   H668      1.0  0.53030  0.04312  0.69891  1.0000
  H   H669      1.0  0.94981  0.49338  0.92812  1.0000
  C   C377      1.0  0.54815  0.41491  0.79960  1.0000
  H   H670      1.0  0.64317  0.41639  0.74569  1.0000
  H   H671      1.0  0.63968  0.09125  0.74617  1.0000
  H   H672      1.0  0.80524  0.19394  0.69940  1.0000
  H   H673      1.0  0.52867  0.44664  0.94828  1.0000
  S   S93       1.0  0.00246  0.03611  0.92536  1.0000
  H   H674      1.0  0.85060  0.08599  0.76827  1.0000
  H   H675      1.0  0.74468  0.03694  0.69611  1.0000
  H   H676      1.0  0.96166  0.27854  0.91351  1.0000
  C   C378      1.0  0.97244  0.47577  0.92247  1.0000
  H   H677      1.0  0.80889  0.04282  0.70724  1.0000
  C   C379      1.0  0.68116  0.03367  0.93012  1.0000
  H   H678      1.0  0.54740  0.05296  0.75030  1.0000
  C   C380      1.0  0.98836  0.14987  0.99453  1.0000
  H   H679      1.0  0.56380  0.42626  0.81785  1.0000
  H   H680      1.0  0.58086  0.50519  0.72015  1.0000
  H   H681      1.0  0.64244  0.18671  0.72464  1.0000
  H   H682      1.0  0.68828  0.11506  0.98901  1.0000
  H   H683      1.0  0.62324  0.11111  0.97787  1.0000
  H   H684      1.0  0.74475  0.12947  0.97860  1.0000
  H   H685      1.0  0.68275  0.08008  0.68238  1.0000
  H   H686      1.0  0.94395  0.26145  0.79044  1.0000
  H   H687      1.0  0.99696  0.28060  0.73903  1.0000
  C   C381      1.0  0.95046  0.20487  0.82225  1.0000
  H   H688      1.0  0.81284  0.14879  0.68767  1.0000
  C   C382      1.0  0.99151  0.42593  0.78348  1.0000
  H   H689      1.0  0.92571  0.21906  0.82841  1.0000
  C   C383      1.0  0.85926  0.21358  0.73856  1.0000
  H   H690      1.0  0.87513  0.15883  0.67909  1.0000
  S   S94       1.0  0.58504  0.00734  0.79118  1.0000
  C   C384      1.0  0.69804  0.04107  0.77835  1.0000
  H   H691      1.0  0.97459  0.23588  0.77033  1.0000
  C   C385      1.0  0.98810  0.04047  0.98453  1.0000
  C   C386      1.0  0.97238  0.25406  0.78942  1.0000
  H   H692      1.0  0.95811  0.18752  0.84042  1.0000
  C   C387      1.0  0.98045  0.23136  0.81629  1.0000
  H   H693      1.0  0.55304  0.40294  0.75455  1.0000
  C   C388      1.0  0.64241  0.16200  0.73755  1.0000
  C   C389      1.0  0.93449  0.20850  0.71160  1.0000
  C   C390      1.0  0.57874  0.45474  0.76294  1.0000
  C   C391      1.0  0.61422  0.43985  0.68504  1.0000
  H   H694      1.0  0.73195  0.45576  0.73324  1.0000
  H   H695      1.0  0.87619  0.21844  0.75795  1.0000
  H   H696      1.0  0.56465  0.44439  0.70831  1.0000
  H   H697      1.0  0.94972  0.18149  0.97099  1.0000
  H   H698      1.0  0.65234  0.16860  0.75959  1.0000
  C   C392      1.0  0.67493  0.46325  0.73608  1.0000
  H   H699      1.0  0.93082  0.29567  0.75559  1.0000
  H   H700      1.0  0.61461  0.15210  0.73913  1.0000
  C   C393      1.0  0.94704  0.32035  0.71659  1.0000
  H   H701      1.0  0.68319  0.06168  0.79072  1.0000
  C   C394      1.0  0.67882  0.09279  0.97492  1.0000
  H   H702      1.0  0.57018  0.17400  0.92601  1.0000
  C   C395      1.0  0.67449  0.05954  0.69823  1.0000
  H   H703      1.0  0.99319  0.47838  0.93922  1.0000
  C   C396      1.0  0.95855  0.43748  0.92317  1.0000
  H   H704      1.0  0.86757  0.28340  0.75901  1.0000
  H   H705      1.0  0.67300  0.02587  0.95217  1.0000
  H   H706      1.0  0.75410  0.02921  0.73364  1.0000
  H   H707      1.0  0.73603  0.09205  0.74635  1.0000
  H   H708      1.0  0.68693  0.03445  0.69034  1.0000
  H   H709      1.0  0.96658  0.11542  0.73382  1.0000
  H   H710      1.0  0.94342  0.08119  0.69164  1.0000
  H   H711      1.0  0.82095  0.27596  0.75141  1.0000
  C   C397      1.0  0.74747  0.13129  0.95481  1.0000
  H   H712      1.0  0.97716  0.17606  0.69368  1.0000
  C   C398      1.0  0.56960  0.41593  0.77154  1.0000
  S   S95       1.0  0.56688  0.09365  0.92894  1.0000
  C   C399      1.0  0.95265  0.31852  0.82142  1.0000
  H   H713      1.0  0.55396  0.21216  0.94627  1.0000
  C   C400      1.0  0.78706  0.12933  0.94746  1.0000
  C   C401      1.0  0.55816  0.20084  0.92427  1.0000
  H   H714      1.0  0.94715  0.43193  0.94478  1.0000
  C   C402      1.0  0.66606  0.13407  0.72299  1.0000
  H   H715      1.0  0.59216  0.40834  0.71856  1.0000
  N   N22       1.0  0.68789  0.06905  0.72807  1.0000
  H   H716      1.0  0.92113  0.17529  0.74668  1.0000
  H   H717      1.0  0.85935  0.16608  0.78159  1.0000
  H   H718      1.0  0.69302  0.14585  0.72085  1.0000
  H   H719      1.0  0.82695  0.14877  0.73485  1.0000
  H   H720      1.0  0.65445  0.03058  0.74966  1.0000
  H   H721      1.0  0.61668  0.46774  0.67792  1.0000
  H   H722      1.0  0.88221  0.25562  0.71053  1.0000
  C   C403      1.0  0.72646  0.07984  0.72572  1.0000
  H   H723      1.0  0.93944  0.44901  0.78815  1.0000
  C   C404      1.0  0.51409  0.28911  0.84520  1.0000
  H   H724      1.0  0.94749  0.34054  0.76014  1.0000
  H   H725      1.0  0.93752  0.43318  0.90665  1.0000
  H   H726      1.0  0.67199  0.01324  0.88647  1.0000
  H   H727      1.0  0.59405  0.40003  0.77458  1.0000
  C   C405      1.0  0.54471  0.23220  0.84082  1.0000
  C   C406      1.0  0.59260  0.43715  0.71336  1.0000
  C   C407      1.0  0.70842  0.44192  0.74246  1.0000
  H   H728      1.0  0.70674  0.41502  0.73230  1.0000
  H   H729      1.0  0.79831  0.10329  0.95382  1.0000
  H   H730      1.0  0.73349  0.10114  0.91622  1.0000
  C   C408      1.0  0.95020  0.15949  0.98681  1.0000
  H   H731      1.0  0.79065  0.08375  0.69426  1.0000
  N   N23       1.0  0.60562  0.45900  0.73889  1.0000
  C   C409      1.0  0.66738  0.09967  0.74112  1.0000
  C   C410      1.0  0.63379  0.05384  0.69526  1.0000
  C   C411      1.0  0.86159  0.18091  0.69082  1.0000
  H   H732      1.0  0.67904  0.10780  0.76230  1.0000
  C   C412      1.0  0.79021  0.06478  0.71248  1.0000
  H   H733      1.0  0.94540  0.18760  0.80304  1.0000
  H   H734      1.0  0.98945  0.22145  0.70183  1.0000
  H   H735      1.0  0.73801  0.15779  0.94801  1.0000
  C   C413      1.0  0.63897  0.08693  0.98241  1.0000
  H   H736      1.0  0.54121  0.38691  0.80479  1.0000
  H   H737      1.0  0.79965  0.07847  0.73242  1.0000
  C   C414      1.0  0.72666  0.10071  0.93956  1.0000
  H   H738      1.0  0.61873  0.07788  0.70187  1.0000
  H   H739      1.0  0.55334  0.46785  0.75711  1.0000
  H   H740      1.0  0.85209  0.10684  0.80341  1.0000
  H   H741      1.0  0.98423  0.24854  0.83565  1.0000
  H   H742      1.0  0.86471  0.12371  0.72357  1.0000
  H   H743      1.0  0.83198  0.20890  0.74718  1.0000
  C   C415      1.0  0.91212  0.17761  0.72397  1.0000
  H   H744      1.0  0.89390  0.13573  0.77104  1.0000
  C   C416      1.0  0.99058  0.31475  0.80853  1.0000
  H   H745      1.0  0.58806  0.46859  0.78293  1.0000
  S   S96       1.0  0.96205  0.40995  0.68715  1.0000
  C   C417      1.0  0.98966  0.30101  0.75569  1.0000
  H   H746      1.0  0.98408  0.19007  0.73080  1.0000
  H   H747      1.0  0.97069  0.35059  0.85829  1.0000
  N   N24       1.0  0.87221  0.18102  0.72226  1.0000
  C   C418      1.0  0.84448  0.11085  0.78050  1.0000
  C   C419      1.0  0.54521  0.02295  0.71005  1.0000
  H   H748      1.0  0.55361  0.11204  0.98842  1.0000
  H   H749      1.0  0.84685  0.30516  0.72897  1.0000
  C   C420      1.0  0.52983  0.08473  0.95200  1.0000
  H   H750      1.0  0.52308  0.43009  0.79737  1.0000
  C   C421      1.0  0.66306  0.00797  0.90890  1.0000
  H   H751      1.0  0.95331  0.37590  0.82844  1.0000
  C   C422      1.0  0.75270  0.04987  0.71677  1.0000
  H   H752      1.0  0.92132  0.33379  0.71253  1.0000
  C   C423      1.0  0.53074  0.09712  0.98084  1.0000
  H   H753      1.0  0.93262  0.23210  0.72614  1.0000
  C   C424      1.0  0.97370  0.19833  0.70947  1.0000
  H   H754      1.0  0.52910  0.18799  0.88593  1.0000
  H   H755      1.0  0.64399  0.44945  0.77307  1.0000
  H   H756      1.0  0.92046  0.15260  0.71271  1.0000
  C   C425      1.0  0.51918  0.21994  0.82115  1.0000
  H   H757      1.0  0.94714  0.29454  0.70464  1.0000
  C   C426      1.0  0.60627  0.49784  0.73080  1.0000
  C   C427      1.0  0.85705  0.24897  0.72157  1.0000
  H   H758      1.0  0.98050  0.41842  0.91913  1.0000
  H   H759      1.0  0.67286  0.46564  0.71252  1.0000
  H   H760      1.0  0.92588  0.21578  0.68967  1.0000
  C   C428      1.0  0.98677  0.48517  0.89220  1.0000
  H   H761      1.0  0.93614  0.13597  0.97760  1.0000
  H   H762      1.0  0.64091  0.42804  0.68787  1.0000
  H   H763      1.0  0.96312  0.48370  0.87798  1.0000
  H   H764      1.0  0.87114  0.20512  0.67973  1.0000
  H   H765      1.0  0.55187  0.48869  0.94808  1.0000
  S   S97       1.0  0.00303  0.43460  0.82026  1.0000
  C   C429      1.0  0.52517  0.47598  0.94834  1.0000
  H   H766      1.0  0.67886  0.49050  0.74507  1.0000
  C   C430      1.0  0.52309  0.19876  0.90771  1.0000
  H   H767      1.0  0.00035  0.11077  0.96135  1.0000
  H   H768      1.0  0.63369  0.01061  0.91018  1.0000
  H   H769      1.0  0.51303  0.22634  0.90617  1.0000
  H   H770      1.0  0.99878  0.34130  0.80025  1.0000
  H   H771      1.0  0.54397  0.49365  0.83486  1.0000
  H   H772      1.0  0.00198  0.15471  0.94920  1.0000
  H   H773      1.0  0.62675  0.50339  0.71422  1.0000
  H   H774      1.0  0.50864  0.14867  0.92696  1.0000
  H   H775      1.0  0.70462  0.00988  0.81706  1.0000
  H   H776      1.0  0.51105  0.48377  0.96853  1.0000
  C   C431      1.0  0.50645  0.49401  0.70711  1.0000
  H   H777      1.0  0.00458  0.46324  0.88471  1.0000
  C   C432      1.0  0.00534  0.40468  0.73483  1.0000
  H   H778      1.0  0.00513  0.21574  0.81284  1.0000
  H   H779      1.0  0.98207  0.83892  0.03425  1.0000
  H   H780      1.0  0.98679  0.82876  0.17139  1.0000
  C   C433      1.0  0.52809  0.66611  0.26579  1.0000
  S   S98       1.0  0.58413  0.62133  0.32022  1.0000
  C   C434      1.0  0.00491  0.77572  0.21227  1.0000
  H   H781      1.0  0.56499  0.68225  0.23194  1.0000
  C   C435      1.0  0.56568  0.67285  0.25456  1.0000
  H   H782      1.0  0.58102  0.64767  0.25509  1.0000
  H   H783      1.0  0.86604  0.52497  0.25463  1.0000
  H   H784      1.0  0.93468  0.94284  0.07185  1.0000
  C   C436      1.0  0.96954  0.61422  0.23671  1.0000
  C   C437      1.0  0.94481  0.51296  0.21534  1.0000
  C   C438      1.0  0.97410  0.99708  0.29865  1.0000
  H   H785      1.0  0.54430  0.78655  0.33324  1.0000
  C   C439      1.0  0.96009  0.60411  0.26496  1.0000
  H   H786      1.0  0.51085  0.71447  0.24542  1.0000
  H   H787      1.0  0.95989  0.59347  0.13078  1.0000
  C   C440      1.0  0.99594  0.83510  0.01331  1.0000
  H   H788      1.0  0.96364  0.77058  0.24476  1.0000
  S   S99       1.0  0.96673  0.56129  0.31340  1.0000
  C   C441      1.0  0.99949  0.59963  0.22278  1.0000
  H   H789      1.0  0.97636  0.89170  0.06954  1.0000
  H   H790      1.0  0.93658  0.61503  0.27512  1.0000
  C   C442      1.0  0.94595  0.57084  0.11992  1.0000
  H   H791      1.0  0.87924  0.70262  0.32056  1.0000
  C   C443      1.0  0.98797  0.78674  0.24100  1.0000
  C   C444      1.0  0.87325  0.73145  0.31926  1.0000
  H   H792      1.0  0.98031  0.95649  0.07528  1.0000
  H   H793      1.0  0.99855  0.87929  0.13989  1.0000
  H   H794      1.0  0.98962  0.77788  0.01632  1.0000
  H   H795      1.0  0.98482  0.77924  0.19517  1.0000
  C   C445      1.0  0.96036  0.94492  0.06017  1.0000
  C   C446      1.0  0.90439  0.51881  0.21982  1.0000
  H   H796      1.0  0.53047  0.65614  0.28812  1.0000
  H   H797      1.0  0.89807  0.74707  0.32235  1.0000
  H   H798      1.0  0.95694  0.96330  0.04184  1.0000
  H   H799      1.0  0.95311  0.63301  0.22537  1.0000
  H   H800      1.0  0.95025  0.99009  0.28563  1.0000
  H   H801      1.0  0.51716  0.71839  0.28310  1.0000
  H   H802      1.0  0.86272  0.73681  0.29736  1.0000
  C   C447      1.0  0.00178  0.82335  0.15121  1.0000
  H   H803      1.0  0.94993  0.89486  0.03802  1.0000
  H   H804      1.0  0.95138  0.56152  0.17626  1.0000
  C   C448      1.0  0.98016  0.57870  0.27948  1.0000
  Fe  Fe49      1.0  0.53524  0.58668  0.32501  1.0000
  C   C449      1.0  0.97208  0.90791  0.04991  1.0000
  C   C450      1.0  0.99197  0.85282  0.13030  1.0000
  H   H805      1.0  0.96299  0.85192  0.12587  1.0000
  H   H806      1.0  0.98565  0.97208  0.30706  1.0000
  H   H807      1.0  0.57949  0.69291  0.26843  1.0000
  C   C451      1.0  0.95563  0.53576  0.13424  1.0000
  H   H808      1.0  0.91406  0.53562  0.16549  1.0000
  H   H809      1.0  0.95850  0.53703  0.22412  1.0000
  H   H810      1.0  0.98037  0.81529  0.24076  1.0000
  H   H811      1.0  0.99281  0.79784  0.14136  1.0000
  C   C452      1.0  0.89492  0.51994  0.25194  1.0000
  H   H812      1.0  0.51563  0.64485  0.25238  1.0000
  H   H813      1.0  0.91681  0.57532  0.12083  1.0000
  H   H814      1.0  0.90974  0.54170  0.26318  1.0000
  H   H815      1.0  0.94189  0.51418  0.12202  1.0000
  H   H816      1.0  0.95442  0.57008  0.09693  1.0000
  H   H817      1.0  0.98470  0.53274  0.13180  1.0000
  C   C453      1.0  0.94358  0.53551  0.16625  1.0000
  H   H818      1.0  0.89624  0.54474  0.21070  1.0000
  C   C454      1.0  0.60224  0.73170  0.42393  1.0000
  S   S100      1.0  0.53799  0.56934  0.61040  1.0000
  Fe  Fe50      1.0  0.60832  0.58973  0.35601  1.0000
  C   C455      1.0  0.88843  0.51807  0.47705  1.0000
  C   C456      1.0  0.84119  0.79244  0.39702  1.0000
  C   C457      1.0  0.90772  0.53728  0.52499  1.0000
  Fe  Fe51      1.0  0.59149  0.55740  0.59102  1.0000
  S   S101      1.0  0.60902  0.54268  0.54538  1.0000
  S   S102      1.0  0.61745  0.60656  0.60927  1.0000
  Fe  Fe52      1.0  0.54146  0.59139  0.39192  1.0000
  S   S103      1.0  0.58936  0.62703  0.39101  1.0000
  H   H819      1.0  0.71765  0.53743  0.46825  1.0000
  H   H820      1.0  0.55643  0.72837  0.49891  1.0000
  C   C458      1.0  0.97894  0.79668  0.37780  1.0000
  H   H821      1.0  0.84508  0.70775  0.42526  1.0000
  S   S104      1.0  0.56127  0.55211  0.35853  1.0000
  C   C459      1.0  0.78980  0.60945  0.43702  1.0000
  Fe  Fe53      1.0  0.89972  0.57002  0.40928  1.0000
  S   S105      1.0  0.88179  0.62656  0.41555  1.0000
  C   C460      1.0  0.99123  0.98485  0.63708  1.0000
  Fe  Fe54      1.0  0.93452  0.64257  0.39654  1.0000
  S   S106      1.0  0.96856  0.68585  0.41752  1.0000
  Fe  Fe55      1.0  0.86323  0.62289  0.36951  1.0000
  C   C461      1.0  0.56767  0.72535  0.54407  1.0000
  S   S107      1.0  0.95421  0.58613  0.39380  1.0000
  H   H822      1.0  0.74482  0.97081  0.65352  1.0000
  Fe  Fe56      1.0  0.62476  0.93101  0.58583  1.0000
  S   S108      1.0  0.57131  0.95688  0.58162  1.0000
  S   S109      1.0  0.67720  0.94769  0.56643  1.0000
  Fe  Fe57      1.0  0.59569  0.86805  0.61886  1.0000
  S   S110      1.0  0.53970  0.88880  0.61822  1.0000
  H   H823      1.0  0.74236  0.58629  0.41993  1.0000
  Fe  Fe58      1.0  0.55074  0.90178  0.57149  1.0000
  H   H824      1.0  0.80020  0.66570  0.43214  1.0000
  S   S111      1.0  0.60487  0.87712  0.57180  1.0000
  H   H825      1.0  0.55369  0.82060  0.38094  1.0000
  H   H826      1.0  0.54759  0.93577  0.50238  1.0000
  C   C462      1.0  0.96328  0.76869  0.36195  1.0000
  H   H827      1.0  0.92040  0.95509  0.50028  1.0000
  C   C463      1.0  0.96087  0.73437  0.37355  1.0000
  C   C464      1.0  0.97342  0.72795  0.40138  1.0000
  H   H828      1.0  0.76359  0.82655  0.63769  1.0000
  H   H829      1.0  0.80406  0.60379  0.41650  1.0000
  S   S112      1.0  0.98062  0.83946  0.36261  1.0000
  H   H830      1.0  0.77634  0.78270  0.42214  1.0000
  H   H831      1.0  0.96444  0.55376  0.64573  1.0000
  H   H832      1.0  0.93969  0.51601  0.65909  1.0000
  C   C465      1.0  0.70378  0.58922  0.35661  1.0000
  C   C466      1.0  0.98594  0.96443  0.66576  1.0000
  H   H833      1.0  0.53274  0.55306  0.53776  1.0000
  H   H834      1.0  0.75755  0.65168  0.41867  1.0000
  H   H835      1.0  0.92040  0.55710  0.53869  1.0000
  C   C467      1.0  0.70467  0.62643  0.35815  1.0000
  C   C468      1.0  0.56100  0.77556  0.62656  1.0000
  H   H836      1.0  0.76494  0.65583  0.45721  1.0000
  H   H837      1.0  0.88351  0.90604  0.56776  1.0000
  H   H838      1.0  0.58359  0.77311  0.56762  1.0000
  N   N25       1.0  0.54142  0.67463  0.51093  1.0000
  H   H839      1.0  0.53405  0.64343  0.56704  1.0000
  Fe  Fe59      1.0  0.93157  0.58642  0.34863  1.0000
  H   H840      1.0  0.60503  0.84507  0.44884  1.0000
  H   H841      1.0  0.93976  0.93660  0.62949  1.0000
  C   C469      1.0  0.58259  0.55236  0.51494  1.0000
  C   C470      1.0  0.59905  0.55620  0.48790  1.0000
  C   C471      1.0  0.57892  0.56413  0.46320  1.0000
  C   C472      1.0  0.54200  0.56760  0.46527  1.0000
  C   C473      1.0  0.52552  0.56347  0.49228  1.0000
  C   C474      1.0  0.54572  0.55613  0.51707  1.0000
  C   C475      1.0  0.64091  0.64647  0.51630  1.0000
  H   H842      1.0  0.59190  0.56725  0.44253  1.0000
  S   S113      1.0  0.87826  0.56549  0.36373  1.0000
  S   S114      1.0  0.61997  0.81808  0.63723  1.0000
  H   H843      1.0  0.93835  0.94153  0.56329  1.0000
  C   C476      1.0  0.59756  0.71205  0.63702  1.0000
  C   C477      1.0  0.61526  0.74512  0.63895  1.0000
  C   C478      1.0  0.51792  0.93830  0.46244  1.0000
  H   H844      1.0  0.83111  0.56433  0.51844  1.0000
  N   N26       1.0  0.83773  0.75229  0.39697  1.0000
  C   C479      1.0  0.76988  0.95612  0.64978  1.0000
  H   H845      1.0  0.80897  0.60734  0.45504  1.0000
  H   H846      1.0  0.53554  0.95778  0.45294  1.0000
  C   C480      1.0  0.60789  0.66103  0.50141  1.0000
  H   H847      1.0  0.71957  0.50823  0.40551  1.0000
  H   H848      1.0  0.82609  0.96585  0.65879  1.0000
  H   H849      1.0  0.78897  0.75358  0.37209  1.0000
  H   H850      1.0  0.53264  0.82019  0.47228  1.0000
  H   H851      1.0  0.53816  0.86120  0.45518  1.0000
  H   H852      1.0  0.88411  0.91181  0.60652  1.0000
  C   C481      1.0  0.59152  0.85545  0.49296  1.0000
  H   H853      1.0  0.55518  0.91879  0.36844  1.0000
  C   C482      1.0  0.88782  0.74461  0.43499  1.0000
  C   C483      1.0  0.89754  0.72333  0.46174  1.0000
  H   H854      1.0  0.72811  0.76450  0.38779  1.0000
  S   S115      1.0  0.88345  0.52434  0.43919  1.0000
  C   C484      1.0  0.76872  0.91802  0.66234  1.0000
  H   H855      1.0  0.87971  0.73014  0.48009  1.0000
  C   C485      1.0  0.96605  0.52934  0.65894  1.0000
  C   C486      1.0  0.87735  0.80831  0.38688  1.0000
  H   H856      1.0  0.75199  0.54912  0.50627  1.0000
  H   H857      1.0  0.97004  0.94177  0.46636  1.0000
  C   C487      1.0  0.77276  0.75410  0.41655  1.0000
  H   H858      1.0  0.54941  0.89113  0.41597  1.0000
  C   C488      1.0  0.70306  0.98081  0.58373  1.0000
  C   C489      1.0  0.59116  0.76948  0.41616  1.0000
  H   H859      1.0  0.58060  0.65822  0.54258  1.0000
  H   H860      1.0  0.99648  0.90962  0.62008  1.0000
  N   N27       1.0  0.98414  0.96406  0.60950  1.0000
  H   H861      1.0  0.79632  0.71280  0.39009  1.0000
  H   H862      1.0  0.83277  0.74796  0.44352  1.0000
  H   H863      1.0  0.82073  0.80443  0.38279  1.0000
  C   C490      1.0  0.84557  0.74185  0.34194  1.0000
  H   H864      1.0  0.54735  0.76515  0.44708  1.0000
  C   C491      1.0  0.76757  0.83486  0.66052  1.0000
  H   H865      1.0  0.97614  0.50884  0.55694  1.0000
  C   C492      1.0  0.97140  0.96498  0.48037  1.0000
  H   H866      1.0  0.59532  0.80597  0.47015  1.0000
  C   C493      1.0  0.79911  0.74220  0.39255  1.0000
  H   H867      1.0  0.73141  0.51446  0.60736  1.0000
  H   H868      1.0  0.98444  0.97557  0.56375  1.0000
  C   C494      1.0  0.59706  0.77699  0.63381  1.0000
  C   C495      1.0  0.57394  0.65390  0.51946  1.0000
  C   C496      1.0  0.89208  0.92393  0.58573  1.0000
  H   H869      1.0  0.79444  0.51241  0.47612  1.0000
  C   C497      1.0  0.78645  0.53095  0.41899  1.0000
  H   H870      1.0  0.61070  0.78799  0.42598  1.0000
  C   C498      1.0  0.70711  0.52205  0.42421  1.0000
  H   H871      1.0  0.50675  0.99988  0.56498  1.0000
  C   C499      1.0  0.85885  0.73462  0.37306  1.0000
  C   C500      1.0  0.55798  0.83559  0.40156  1.0000
  C   C501      1.0  0.76973  0.62568  0.35814  1.0000
  C   C502      1.0  0.94326  0.97264  0.49965  1.0000
  H   H872      1.0  0.66226  0.99737  0.61339  1.0000
  H   H873      1.0  0.90040  0.79579  0.39736  1.0000
  C   C503      1.0  0.71774  0.56642  0.59242  1.0000
  H   H874      1.0  0.60199  0.72827  0.44770  1.0000
  C   C504      1.0  0.98946  0.98919  0.58467  1.0000
  H   H875      1.0  0.65904  0.51494  0.44981  1.0000
  H   H876      1.0  0.50866  0.68430  0.56838  1.0000
  H   H877      1.0  0.51519  0.74171  0.61982  1.0000
  H   H878      1.0  0.87821  0.85363  0.41678  1.0000
  Fe  Fe60      1.0  0.63000  0.57308  0.64772  1.0000
  C   C505      1.0  0.51985  0.77480  0.34104  1.0000
  H   H879      1.0  0.71595  0.75624  0.42475  1.0000
  C   C506      1.0  0.79087  0.54103  0.47111  1.0000
  C   C507      1.0  0.70260  0.91450  0.66322  1.0000
  H   H880      1.0  0.99857  0.75128  0.43891  1.0000
  H   H881      1.0  0.59352  0.77207  0.39234  1.0000
  H   H882      1.0  0.59611  0.71944  0.54003  1.0000
  C   C508      1.0  0.75788  0.58357  0.44021  1.0000
  H   H883      1.0  0.58717  0.83708  0.40435  1.0000
  H   H884      1.0  0.79335  0.90474  0.65460  1.0000
  Fe  Fe61      1.0  0.56419  0.94243  0.62854  1.0000
  H   H885      1.0  0.69109  0.56727  0.60271  1.0000
  H   H886      1.0  0.73709  0.57927  0.60740  1.0000
  H   H887      1.0  0.71700  0.58181  0.57212  1.0000
  H   H888      1.0  0.61181  0.68991  0.49774  1.0000
  H   H889      1.0  0.92820  0.97656  0.61180  1.0000
  H   H890      1.0  0.54670  0.79994  0.62266  1.0000
  C   C509      1.0  0.73604  0.88981  0.62233  1.0000
  Fe  Fe62      1.0  0.56062  0.65552  0.35556  1.0000
  H   H891      1.0  0.56844  0.62490  0.51763  1.0000
  C   C510      1.0  0.84915  0.73715  0.42554  1.0000
  H   H892      1.0  0.53692  0.64071  0.47288  1.0000
  S   S116      1.0  0.51569  0.57824  0.43492  1.0000
  C   C511      1.0  0.70592  0.86508  0.61078  1.0000
  C   C512      1.0  0.71169  0.85539  0.57900  1.0000
  C   C513      1.0  0.55222  0.77729  0.42560  1.0000
  C   C514      1.0  0.94558  0.95265  0.61008  1.0000
  C   C515      1.0  0.80461  0.55307  0.52391  1.0000
  H   H893      1.0  0.55827  0.68205  0.46655  1.0000
  C   C516      1.0  0.68929  0.00164  0.60627  1.0000
  H   H894      1.0  0.73274  0.91551  0.61093  1.0000
  H   H895      1.0  0.76212  0.87948  0.61469  1.0000
  S   S117      1.0  0.50909  0.88440  0.53825  1.0000
  C   C517      1.0  0.58699  0.83352  0.46518  1.0000
  C   C518      1.0  0.54792  0.83337  0.45488  1.0000
  H   H896      1.0  0.62754  0.55343  0.48612  1.0000
  Fe  Fe63      1.0  0.55626  0.53926  0.64969  1.0000
  C   C519      1.0  0.93234  0.92940  0.58439  1.0000
  H   H897      1.0  0.55978  0.71130  0.56393  1.0000
  H   H898      1.0  0.58422  0.71180  0.41366  1.0000
  C   C520      1.0  0.56528  0.89136  0.37162  1.0000
  C   C521      1.0  0.51006  0.65706  0.55897  1.0000
  H   H899      1.0  0.70401  0.83980  0.62275  1.0000
  H   H900      1.0  0.67995  0.87875  0.61263  1.0000
  H   H901      1.0  0.73607  0.83916  0.57633  1.0000
  H   H902      1.0  0.68859  0.83965  0.57095  1.0000
  H   H903      1.0  0.71413  0.87973  0.56578  1.0000
  C   C522      1.0  0.73756  0.64457  0.35867  1.0000
  H   H904      1.0  0.89582  0.69429  0.45703  1.0000
  H   H905      1.0  0.81819  0.55080  0.46631  1.0000
  N   N28       1.0  0.76704  0.54508  0.44518  1.0000
  C   C523      1.0  0.56134  0.71070  0.63033  1.0000
  C   C524      1.0  0.52484  0.92583  0.49045  1.0000
  H   H906      1.0  0.69648  0.93656  0.64817  1.0000
  H   H907      1.0  0.95320  0.77359  0.34052  1.0000
  H   H908      1.0  0.74005  0.59379  0.45759  1.0000
  C   C525      1.0  0.90441  0.54358  0.49511  1.0000
  S   S118      1.0  0.60768  0.52304  0.62812  1.0000
  H   H909      1.0  0.91445  0.56805  0.48605  1.0000
  H   H910      1.0  0.80756  0.52416  0.52799  1.0000
  H   H911      1.0  0.58666  0.88403  0.48880  1.0000
  N   N29       1.0  0.54048  0.81578  0.42600  1.0000
  C   C526      1.0  0.77717  0.64801  0.43626  1.0000
  C   C527      1.0  0.77826  0.55948  0.49943  1.0000
  S   S119      1.0  0.61910  0.92070  0.63301  1.0000
  H   H912      1.0  0.75523  0.52877  0.57599  1.0000
  H   H913      1.0  0.69850  0.54875  0.41718  1.0000
  C   C528      1.0  0.54513  0.87419  0.39652  1.0000
  H   H914      1.0  0.77616  0.58869  0.49678  1.0000
  H   H915      1.0  0.66458  0.65060  0.50239  1.0000
  S   S120      1.0  0.91473  0.64372  0.35092  1.0000
  H   H916      1.0  0.62958  0.72659  0.41586  1.0000
  H   H917      1.0  0.72942  0.71969  0.40172  1.0000
  S   S121      1.0  0.53761  0.66996  0.62891  1.0000
  H   H918      1.0  0.87823  0.94976  0.58326  1.0000
  H   H919      1.0  0.57293  0.84619  0.50997  1.0000
  H   H920      1.0  0.60564  0.64740  0.48002  1.0000
  C   C529      1.0  0.73805  0.98663  0.57436  1.0000
  H   H921      1.0  0.64539  0.66040  0.53730  1.0000
  H   H922      1.0  0.81248  0.54479  0.41652  1.0000
  H   H923      1.0  0.98472  0.51794  0.60278  1.0000
  H   H924      1.0  0.59414  0.89299  0.37646  1.0000
  H   H925      1.0  0.89130  0.77322  0.44063  1.0000
  H   H926      1.0  0.77161  0.53708  0.39904  1.0000
  C   C530      1.0  0.53613  0.66954  0.47874  1.0000
  H   H927      1.0  0.63783  0.61747  0.52019  1.0000
  Fe  Fe64      1.0  0.56545  0.61666  0.63125  1.0000
  C   C531      1.0  0.54321  0.74255  0.62497  1.0000
  H   H928      1.0  0.61175  0.68771  0.64129  1.0000
  H   H929      1.0  0.79514  0.56629  0.54404  1.0000
  H   H930      1.0  0.50765  0.96626  0.53849  1.0000
  H   H931      1.0  0.77656  0.73808  0.43629  1.0000
  N   N30       1.0  0.73648  0.89592  0.65458  1.0000
  C   C532      1.0  0.73425  0.74825  0.40702  1.0000
  H   H932      1.0  0.61910  0.85280  0.50113  1.0000
  H   H933      1.0  0.74880  0.97061  0.55689  1.0000
  H   H934      1.0  0.94472  0.90267  0.58522  1.0000
  H   H935      1.0  0.56110  0.87592  0.35127  1.0000
  H   H936      1.0  0.92536  0.72959  0.46809  1.0000
  H   H937      1.0  0.90666  0.73709  0.41783  1.0000
  H   H938      1.0  0.88725  0.74215  0.37417  1.0000
  C   C533      1.0  0.76880  0.58854  0.35653  1.0000
  C   C534      1.0  0.98909  0.75598  0.41725  1.0000
  H   H939      1.0  0.94892  0.71301  0.36106  1.0000
  S   S122      1.0  0.81045  0.64943  0.35968  1.0000
  S   S123      1.0  0.51111  0.62282  0.35900  1.0000
  H   H940      1.0  0.53587  0.76158  0.40990  1.0000
  C   C535      1.0  0.73295  0.52479  0.45033  1.0000
  H   H941      1.0  0.83543  0.80335  0.41900  1.0000
  S   S124      1.0  0.56028  0.71588  0.35182  1.0000
  S   S125      1.0  0.68542  0.57666  0.66649  1.0000
  H   H942      1.0  0.73543  0.54170  0.35393  1.0000
  H   H943      1.0  0.85890  0.70520  0.37579  1.0000
  H   H944      1.0  0.68005  0.64116  0.35877  1.0000
  S   S126      1.0  0.54134  0.98514  0.65863  1.0000
  H   H945      1.0  0.79973  0.00536  0.65457  1.0000
  C   C536      1.0  0.73596  0.57045  0.35557  1.0000
  H   H946      1.0  0.77476  0.95483  0.62615  1.0000
  C   C537      1.0  0.99196  0.79023  0.40547  1.0000
  C   C538      1.0  0.87949  0.84828  0.39316  1.0000
  C   C539      1.0  0.72873  0.52793  0.58636  1.0000
  H   H947      1.0  0.90517  0.85891  0.38498  1.0000
  H   H948      1.0  0.88072  0.80447  0.36324  1.0000
  H   H949      1.0  0.51655  0.87462  0.39065  1.0000
  C   C540      1.0  0.00117  0.98736  0.47932  1.0000
  C   C541      1.0  0.52008  0.73997  0.35169  1.0000
  H   H950      1.0  0.99639  0.91514  0.56293  1.0000
  H   H951      1.0  0.99966  0.93838  0.66528  1.0000
  H   H952      1.0  0.56696  0.00070  0.52542  1.0000
  H   H953      1.0  0.51784  0.72596  0.52062  1.0000
  S   S127      1.0  0.66339  0.56488  0.35661  1.0000
  H   H954      1.0  0.67983  0.89564  0.66102  1.0000
  H   H955      1.0  0.64311  0.74601  0.64465  1.0000
  H   H956      1.0  0.67470  0.51073  0.57825  1.0000
  H   H957      1.0  0.79339  0.57377  0.35567  1.0000
  C   C542      1.0  0.79985  0.97808  0.66349  1.0000
  H   H958      1.0  0.85754  0.86246  0.38224  1.0000
  C   C543      1.0  0.50930  0.65873  0.52565  1.0000
  H   H959      1.0  0.79784  0.51046  0.66614  1.0000
  H   H960      1.0  0.79438  0.84697  0.66267  1.0000
  H   H961      1.0  0.52299  0.69957  0.42424  1.0000
  H   H962      1.0  0.73804  0.67333  0.35958  1.0000
  C   C544      1.0  0.54468  0.71407  0.51760  1.0000
  C   C545      1.0  0.56496  0.76538  0.55001  1.0000
  C   C546      1.0  0.70085  0.50874  0.56691  1.0000
  H   H963      1.0  0.69837  0.52531  0.54734  1.0000
  H   H964      1.0  0.00364  0.81176  0.41801  1.0000
  H   H965      1.0  0.53760  0.77250  0.55697  1.0000
  C   C547      1.0  0.76916  0.50865  0.66537  1.0000
  C   C548      1.0  0.74845  0.53981  0.66568  1.0000
  C   C549      1.0  0.71118  0.53763  0.66511  1.0000
  H   H966      1.0  0.95730  0.95972  0.67000  1.0000
  C   C550      1.0  0.94443  0.00267  0.51814  1.0000
  H   H967      1.0  0.57215  0.78080  0.53054  1.0000
  H   H968      1.0  0.76130  0.56562  0.66642  1.0000
  H   H969      1.0  0.93912  0.00598  0.43756  1.0000
  H   H970      1.0  0.71237  0.84685  0.66981  1.0000
  H   H971      1.0  0.83884  0.77030  0.33911  1.0000
  H   H972      1.0  0.82132  0.72575  0.33737  1.0000
  N   N31       1.0  0.00331  0.90214  0.99996  1.0000
  C   C551      1.0  0.97505  0.93249  0.95531  1.0000
  C   C552      1.0  0.00040  0.98595  0.69146  1.0000
  C   C553      1.0  0.94363  0.95580  0.94681  1.0000
  H   H973      1.0  0.70926  0.98463  0.78392  1.0000
  H   H974      1.0  0.60081  0.57242  0.73205  1.0000
  H   H975      1.0  0.97280  0.53716  0.68148  1.0000
  C   C554      1.0  0.98431  0.52647  0.83604  1.0000
  C   C555      1.0  0.55455  0.99137  0.69526  1.0000
  H   H976      1.0  0.99410  0.97202  0.71186  1.0000
  H   H977      1.0  0.98881  0.95764  0.99589  1.0000
  C   C556      1.0  0.62234  0.56141  0.74558  1.0000
  H   H978      1.0  0.58062  0.94092  0.69904  1.0000
  C   C557      1.0  0.97925  0.93090  0.98862  1.0000
  H   H979      1.0  0.52526  0.65685  0.91856  1.0000
  C   C558      1.0  0.98252  0.56287  0.93060  1.0000
  H   H980      1.0  0.63292  0.51518  0.77116  1.0000
  H   H981      1.0  0.74297  0.86639  0.69405  1.0000
  H   H982      1.0  0.95792  0.86753  0.99152  1.0000
  C   C559      1.0  0.53259  0.54019  0.86204  1.0000
  H   H983      1.0  0.91820  0.94389  0.95423  1.0000
  H   H984      1.0  0.70685  0.90857  0.71046  1.0000
  H   H985      1.0  0.50718  0.59772  0.93545  1.0000
  H   H986      1.0  0.66417  0.95556  0.72395  1.0000
  H   H987      1.0  0.59717  0.95040  0.75057  1.0000
  C   C560      1.0  0.69413  0.00627  0.79480  1.0000
  H   H988      1.0  0.95510  0.61309  0.92367  1.0000
  C   C561      1.0  0.99802  0.53317  0.80548  1.0000
  H   H989      1.0  0.98870  0.57545  0.88591  1.0000
  H   H990      1.0  0.64406  0.92350  0.69983  1.0000
  H   H991      1.0  0.94270  0.95827  0.92295  1.0000
  H   H992      1.0  0.97080  0.90560  0.94572  1.0000
  H   H993      1.0  0.72089  0.95146  0.69768  1.0000
  H   H994      1.0  0.53246  0.59448  0.90265  1.0000
  C   C562      1.0  0.70126  0.92962  0.69455  1.0000
  H   H995      1.0  0.52516  0.53932  0.92248  1.0000
  H   H996      1.0  0.57480  0.53020  0.83095  1.0000
  C   C563      1.0  0.58301  0.97095  0.73924  1.0000
  H   H997      1.0  0.64731  0.56027  0.73273  1.0000
  H   H998      1.0  0.51912  0.54837  0.71816  1.0000
  H   H999      1.0  0.54991  0.53112  0.87980  1.0000
  S   S128      1.0  0.57991  0.58747  0.67180  1.0000
  H   H1000     1.0  0.99808  0.79327  0.98029  1.0000
  C   C564      1.0  0.95272  0.58916  0.93741  1.0000
  C   C565      1.0  0.66460  0.94476  0.70153  1.0000
  H   H1001     1.0  0.65780  0.96652  0.68651  1.0000
  H   H1002     1.0  0.67017  0.98016  0.91422  1.0000
  H   H1003     1.0  0.62663  0.57970  0.76428  1.0000
  C   C566      1.0  0.57375  0.96552  0.70999  1.0000
  C   C567      1.0  0.54638  0.52312  0.83407  1.0000
  H   H1004     1.0  0.94648  0.98296  0.95630  1.0000
  H   H1005     1.0  0.95448  0.59778  0.96040  1.0000
  H   H1006     1.0  0.58687  0.52734  0.76878  1.0000
  H   H1007     1.0  0.95206  0.92811  0.99776  1.0000
  H   H1008     1.0  0.92636  0.57644  0.93384  1.0000
  C   C568      1.0  0.98373  0.79931  0.00073  1.0000
  C   C569      1.0  0.61196  0.52448  0.75627  1.0000
  C   C570      1.0  0.98746  0.86610  0.99252  1.0000
  C   C571      1.0  0.98180  0.55110  0.89826  1.0000
  H   H1009     1.0  0.77178  0.91998  0.68622  1.0000
  C   C572      1.0  0.50795  0.52357  0.72572  1.0000
  H   H1010     1.0  0.96581  0.54832  0.84184  1.0000
  H   H1011     1.0  0.95377  0.54480  0.89227  1.0000
  H   H1012     1.0  0.79618  0.98030  0.68723  1.0000
  H   H1013     1.0  0.66568  0.99840  0.79631  1.0000
  H   H1014     1.0  0.97976  0.54028  0.94550  1.0000
  H   H1015     1.0  0.99572  0.85773  0.97036  1.0000
  H   H1016     1.0  0.53116  0.53289  0.81525  1.0000
  H   H1017     1.0  0.74075  0.78735  0.67643  1.0000
  H   H1018     1.0  0.95466  0.79946  0.99659  1.0000
  H   H1019     1.0  0.97533  0.53354  0.79017  1.0000
  H   H1020     1.0  0.77181  0.80753  0.70171  1.0000
  H   H1021     1.0  0.99920  0.94448  0.94550  1.0000
  C   C573      1.0  0.57359  0.00245  0.75407  1.0000
  H   H1022     1.0  0.53528  0.56941  0.85969  1.0000
  H   H1023     1.0  0.89816  0.00432  0.74906  1.0000
  C   C574      1.0  0.76687  0.80108  0.67858  1.0000
  H   H1024     1.0  0.78789  0.78257  0.67091  1.0000
  C   C575      1.0  0.50655  0.60263  0.91182  1.0000
  C   C576      1.0  0.73835  0.86122  0.67064  1.0000
  N   N32       1.0  0.00564  0.52056  0.88940  1.0000
