data_image0
_chemical_formula_structural       HSCSCFeSFeSCH2Fe2S2CH2CHSCH3NC6H6CHCH2C2H2CHSH7CHCSH6CNHCHCH3FeC4HC2H2CHCHCH6C2H2CHC2H4CHC2H4CH3CNH3CH6CH2CHC2H8NH2CH3C4HCHC2HCHCH2CH5CH4SH2CS2H3C2S2HC2H2SFeSFeSFeS2C6H4CNC10H21CHCSHCH4C2SHCHNCHSHSHC2H3C2HCH3C2H4SH5Fe2H4FeHFeSC3HSH2C2HCSHCHCHNC2H2CH2CH2FeCH2CH2CH2CSC2HSCH3CHCH3CHCH2C2HCH2CHCH5C2H5CH5CH4CFeS2FeS2FeSFeS4CSH2CH2C6H4C2H3C6H4C2HC2H3C2HCHCH14CH2C2H2C2H3SCHNHNC2HCHC2H7CH4CH8CH4C2H3C4H3CH2C3H9CH4CH5CH2C2H2CH2N2CHCH4CH3C4HFeH4C3H2CH3CH8FeS2FeS2FeSFeS4NCHCHFeS2C9H4C6H4C2HC3H3NC12H29FeH5S2H3CHC3H3CHC3H6C4SH4CH4FeH4FeHNH9SHC2H2CH2CH2CH5C2H4CHCH4C3H2C3HCHC2HCH2CH4CH3CHC3H4CHCH3NH3CH2C3H4CNH3SHC2H2CH3CH4C2HCH2CH2CHCH5CSH2CH4CH2SCH2NC2H9CH2CSCH3SH5SH3CHCH4CH4CHFeC3NHCH2SCH6C2SHC4H5CH2CHCHC2HCHC3HCFeS2FeS2FeSFeS3HSC2H2CH2C6H4C3H2C6H6C3H5NC4HC2HSCH16CH8CH2CH2C3H9C2H8C2H2NHC2H2C3HNH4CH12CNSC2H4C3HC4H7NCHSCH2CH2CH2C2H4CHNH4C2HCH5C2H6C2HCH3C2H3CH4C2HCHCH2CH4CHCH2CH4CHCH2C2H2C4HCH5CH3CHSFeSHFeS2FeSFeS3HCFeS2FeSFeCS2H3CH2C7H6CHSC6H5C4H4C3HCH9CHSH4CNC9HC2H19CHCH9C3H2NCHCH2FeH5CH9CH2CH2CH2CH2CHCNC3H11C2HCHCNC2HCHCHC2H4CHCHC2H5NHCSCH2CSH3C4H3CH4CH3CHFeH2C3SFeCFeS2H3FeS2FeS2FeSFeS3HSH4CH2C6H4C4HC6H4CH3C2HC7H3CH2CSHCHCHFeH3C3HCH5NC3HC2H10CH6CH8FeHC3SH2CHSCHSH6C2H9SH4CH2FeHC4H9CHNCH5CN2C11H11CSHC2H5C2H6CH6C2H3CH2SFeSFeSC2SHFeS2FeS2FeSFeNS2FeH3FeS2CHNSH3CH2C6H4C6HSH2SCSH2C3SH3C2HSC2H6CHCHC2HCH3CHC6HCH3SCHCHCH4CFeC2H9CH2CHCH6C2HSHCH4C2FeCHCH5SH2CH9FeH2CH3C2HNH2CH3CFeHCH4FeS2FeS2FeSFeS4FeS2HC7H4C4HCHC6H5C2H2CH2C4H2CH4CH7CH3NCFeHC3H3C2H8CH4C2H3C3H9CH3NCH3CH4C2H3NCH3CHCHNHCH2CH3CH3CH2CHCHC2H3C3HCH4CH2C2H4CH5CHC2SH5CH5CFeCH2C2H4CHFeS2FeS2FeSFeS4FeS2H6C7H4C4H6CHC6H7C2H6CH8C2HC2HC3H7CH6CH9CNCH3CH3CH4CHC2HCNC3H2CH4CHCSH2CH2C2HC2H2CHCNCH3CHCH2CHCH7FeH5CH3C3SFeS2HC2SHFeSHFeS2FeSFeS3HS2HCHCHCH2C8H5C6H5C2H2SH3CH2CHCH2CFeCHCHC2HCHCH6CHSHSC2HC2H2NCH4CH3CHCNH2NC4HC3H2C2H9CH7CH8CFeNHC4H2CHCH2CHCHC2H6CHC3HFeH4C2H2CH2CH6CH2CH7CHC2H3C2HCHC2HCNH2CH3FeH5CH5CH2CH6C2H3C2SCH5C2H3FeS2FeSHFeS2FeSFeS3FeS2H3CNH2CSC6H6C2H3FeC6H4CH2CHS2HCSH3SHCH4FeHC2H8C3HC2FeH2SHCH3CHCH2CFeNC2H4CFeC2HSH10C3H2CH3SHCHFeCFeH2C2NC9HC2H9CH11CH4CHCH2CHNSH2CH2FeCH2C2H2S2H2SH2C4H2C2HSH2CHCH2CH6CHCHCH2FeS2HCHCFeSCSHCH2S2C10H4CH5C3H2CH2FeH2CH4CFeHCNC2H2C2HC3H7SCH2CHCHCH2CH6CH8C2H4CH4C3H2NH12C2H2CH2FeCH4CHC4NC2H3CH4C3H3CHNH2CH3SHCFeS4FeSFeS3CH2SCH2FeS2CH4C3H3C6H4FeHC3HNH2C6H2NH4CH3CH2NC9HC2H19C2H9CH7CH2CH3CHFeHCH2C2H3CH4C2HC3HC2H4SCSHCH3FeCHSHC2HC2HCH2SC2SFeSFeSHFeSHFeS2Fe2S3FeHFeHFeHS3H4SH3SHCHC4H4C8H4C4H3CHNC8H10CH15CH3C6HSHCFeCHNC11H26CHNH8CHSHSH3C2H2CHCHCH3FeH2SCHCHFeH3CH3CHCHFeS2FeHSC2S2FeS2HFeSFeS3HSHSH2FeSCFeH3C3SHC3H4C5H4CH3C6H4SH2NC11H12SH12CHCH10FeH4C4HSH2CHCFeC2H2CHC2H5CH2C2HCFeNHSH3CHFeH2SCSC2H6CHCH3CH9CHCHC2H2C2FeS2HFeCH3FeS2H5FeCHSCH2C3H4C7H3CSH2CH3CHCHC3HNHC2H5C2HSH3CH4S2CH2CSCHSC2H3C2HCHCSHC2HCH4NH2C2SCH5CHSCH3C2HC2H4CSH3CHNH2CH3C2FeH2CH3CH2C2H4CHCH2C3HSCHCHCHCFeSHFeS2C2SC3HCH7C2H3NHC4H4C6SH2CHCH2CH2CH4CHCHSHCNH3C4H3SH2CHCH5C2HSHCHSH8NCHFeCSH3CH2NH2CH2CH3CHC2HCHCH2CHCH2CHCFeCH3C2H3SCH2CH2FeH7CH2SC2FeSFeH2NH9CHC2HC4H
_chemical_formula_sum              "H2304 S288 C1296 Fe144 N72"
_cell_length_a       69.8479
_cell_length_b       70.037
_cell_length_c       36.7134
_cell_angle_alpha    90.55
_cell_angle_beta     91.0356
_cell_angle_gamma    112.182

_space_group_name_H-M_alt    "P 1"
_space_group_IT_number       1

loop_
  _space_group_symop_operation_xyz
  'x, y, z'

loop_
  _atom_site_type_symbol
  _atom_site_label
  _atom_site_symmetry_multiplicity
  _atom_site_fract_x
  _atom_site_fract_y
  _atom_site_fract_z
  _atom_site_occupancy
  H   H1        1.0  0.28955  0.39386  0.24177  1.0000
  S   S1        1.0  0.15610  0.45515  0.34757  1.0000
  C   C1        1.0  0.02146  0.33398  0.10768  1.0000
  S   S2        1.0  0.19677  0.44588  0.32823  1.0000
  C   C2        1.0  0.28632  0.46091  0.47206  1.0000
  Fe  Fe1       1.0  0.16859  0.44537  0.29739  1.0000
  S   S3        1.0  0.15072  0.41747  0.26091  1.0000
  Fe  Fe2       1.0  0.18623  0.45902  0.37637  1.0000
  S   S4        1.0  0.19504  0.44883  0.43083  1.0000
  C   C3        1.0  0.26811  0.42617  0.44355  1.0000
  H   H2        1.0  0.29918  0.45613  0.17611  1.0000
  H   H3        1.0  0.02235  0.32265  0.12793  1.0000
  Fe  Fe3       1.0  0.21169  0.47862  0.31059  1.0000
  Fe  Fe4       1.0  0.13820  0.39865  0.04156  1.0000
  S   S5        1.0  0.12337  0.36395  0.03867  1.0000
  S   S6        1.0  0.15183  0.42233  0.08759  1.0000
  C   C4        1.0  0.09326  0.42733  0.07233  1.0000
  H   H4        1.0  0.19786  0.40974  0.27010  1.0000
  H   H5        1.0  0.06366  0.39913  0.10972  1.0000
  C   C5        1.0  0.30269  0.44077  0.06099  1.0000
  H   H6        1.0  0.18623  0.40971  0.22601  1.0000
  S   S7        1.0  0.06367  0.35701  0.00625  1.0000
  C   C6        1.0  0.28290  0.34169  0.08707  1.0000
  H   H7        1.0  0.12008  0.34932  0.11641  1.0000
  H   H8        1.0  0.28747  0.35408  0.14148  1.0000
  H   H9        1.0  0.08593  0.42027  0.04585  1.0000
  N   N1        1.0  0.28509  0.39421  0.12836  1.0000
  C   C7        1.0  0.15116  0.41889  0.21271  1.0000
  C   C8        1.0  0.14441  0.40060  0.19149  1.0000
  C   C9        1.0  0.14464  0.40126  0.15310  1.0000
  C   C10       1.0  0.15135  0.42026  0.13564  1.0000
  C   C11       1.0  0.15822  0.43849  0.15688  1.0000
  C   C12       1.0  0.15811  0.43782  0.19516  1.0000
  H   H10       1.0  0.13923  0.38587  0.20487  1.0000
  H   H11       1.0  0.13994  0.38715  0.13711  1.0000
  H   H12       1.0  0.16352  0.45326  0.14363  1.0000
  H   H13       1.0  0.16315  0.45199  0.21108  1.0000
  H   H14       1.0  0.28882  0.42636  0.12606  1.0000
  H   H15       1.0  0.24927  0.43037  0.06186  1.0000
  C   C13       1.0  0.28116  0.48684  0.29124  1.0000
  H   H16       1.0  0.23746  0.47315  0.37986  1.0000
  C   C14       1.0  0.29758  0.41166  0.19196  1.0000
  H   H17       1.0  0.30530  0.41131  0.05859  1.0000
  H   H18       1.0  0.24254  0.47294  0.44726  1.0000
  C   C15       1.0  0.28401  0.45446  0.30755  1.0000
  C   C16       1.0  0.24959  0.44176  0.48247  1.0000
  H   H19       1.0  0.04422  0.37030  0.14438  1.0000
  H   H20       1.0  0.06034  0.37471  0.20597  1.0000
  C   C17       1.0  0.18892  0.45672  0.47348  1.0000
  H   H21       1.0  0.08902  0.40445  0.23646  1.0000
  S   S8        1.0  0.29822  0.43892  0.31508  1.0000
  H   H22       1.0  0.16909  0.47121  0.45176  1.0000
  H   H23       1.0  0.28248  0.37890  0.07561  1.0000
  H   H24       1.0  0.29964  0.34608  0.08222  1.0000
  H   H25       1.0  0.31665  0.40275  0.23076  1.0000
  H   H26       1.0  0.27851  0.47536  0.15293  1.0000
  H   H27       1.0  0.07753  0.36127  0.20152  1.0000
  H   H28       1.0  0.21500  0.37356  0.08694  1.0000
  C   C18       1.0  0.21377  0.47327  0.18699  1.0000
  H   H29       1.0  0.27491  0.34254  0.06100  1.0000
  C   C19       1.0  0.28063  0.40519  0.39978  1.0000
  S   S9        1.0  0.18425  0.47734  0.27625  1.0000
  H   H30       1.0  0.27935  0.41031  0.05921  1.0000
  H   H31       1.0  0.07644  0.33757  0.14648  1.0000
  H   H32       1.0  0.10575  0.39017  0.23290  1.0000
  H   H33       1.0  0.05191  0.34077  0.08798  1.0000
  H   H34       1.0  0.30981  0.48162  0.29230  1.0000
  H   H35       1.0  0.25276  0.41320  0.44503  1.0000
  C   C20       1.0  0.30274  0.40681  0.23050  1.0000
  N   N2        1.0  0.07594  0.37707  0.13018  1.0000
  H   H36       1.0  0.22659  0.43631  0.06810  1.0000
  C   C21       1.0  0.17578  0.46753  0.47621  1.0000
  H   H37       1.0  0.26464  0.48892  0.37568  1.0000
  C   C22       1.0  0.07671  0.37673  0.20175  1.0000
  H   H38       1.0  0.19351  0.38357  0.01617  1.0000
  H   H39       1.0  0.26209  0.44270  0.12360  1.0000
  H   H40       1.0  0.28330  0.41496  0.19328  1.0000
  Fe  Fe5       1.0  0.17351  0.48731  0.32758  1.0000
  C   C23       1.0  0.04306  0.34956  0.09948  1.0000
  C   C24       1.0  0.24552  0.43928  0.11741  1.0000
  C   C25       1.0  0.29805  0.46900  0.19264  1.0000
  C   C26       1.0  0.09176  0.34942  0.14032  1.0000
  H   H41       1.0  0.27648  0.32551  0.09647  1.0000
  C   C27       1.0  0.25602  0.47587  0.42952  1.0000
  C   C28       1.0  0.25982  0.47828  0.29728  1.0000
  H   H42       1.0  0.28665  0.37901  0.17905  1.0000
  H   H43       1.0  0.26280  0.42301  0.38435  1.0000
  C   C29       1.0  0.07551  0.39272  0.10241  1.0000
  H   H44       1.0  0.08500  0.36040  0.08815  1.0000
  C   C30       1.0  0.08981  0.36665  0.11629  1.0000
  H   H45       1.0  0.29228  0.44814  0.07141  1.0000
  C   C31       1.0  0.24315  0.44084  0.07617  1.0000
  H   H46       1.0  0.29837  0.46541  0.22200  1.0000
  H   H47       1.0  0.10509  0.32601  0.13932  1.0000
  H   H48       1.0  0.30234  0.47598  0.42243  1.0000
  H   H49       1.0  0.23840  0.47378  0.22403  1.0000
  H   H50       1.0  0.01159  0.34197  0.11822  1.0000
  H   H51       1.0  0.04110  0.35991  0.07836  1.0000
  C   C32       1.0  0.08441  0.38850  0.16587  1.0000
  C   C33       1.0  0.05395  0.36197  0.13431  1.0000
  H   H52       1.0  0.22167  0.38606  0.13109  1.0000
  H   H53       1.0  0.05296  0.35042  0.15534  1.0000
  C   C34       1.0  0.24781  0.38456  0.10078  1.0000
  H   H54       1.0  0.20882  0.47021  0.15798  1.0000
  C   C35       1.0  0.25126  0.48463  0.39406  1.0000
  C   C36       1.0  0.09628  0.41116  0.09693  1.0000
  H   H55       1.0  0.10855  0.43959  0.06695  1.0000
  H   H56       1.0  0.08046  0.40247  0.16833  1.0000
  H   H57       1.0  0.22187  0.45116  0.12766  1.0000
  H   H58       1.0  0.26984  0.48786  0.44252  1.0000
  C   C37       1.0  0.22510  0.37564  0.11158  1.0000
  H   H59       1.0  0.27116  0.45912  0.40001  1.0000
  C   C38       1.0  0.10410  0.33836  0.12153  1.0000
  C   C39       1.0  0.25882  0.45377  0.19354  1.0000
  H   H60       1.0  0.20475  0.39757  0.23169  1.0000
  H   H61       1.0  0.26284  0.35077  0.12042  1.0000
  H   H62       1.0  0.25196  0.45682  0.06717  1.0000
  H   H63       1.0  0.31040  0.42593  0.18359  1.0000
  C   C40       1.0  0.25975  0.45571  0.42207  1.0000
  H   H64       1.0  0.30565  0.38302  0.09994  1.0000
  H   H65       1.0  0.08305  0.38051  0.26013  1.0000
  H   H66       1.0  0.07088  0.38535  0.07495  1.0000
  C   C41       1.0  0.23537  0.47236  0.19417  1.0000
  N   N3        1.0  0.26635  0.44635  0.45454  1.0000
  H   H67       1.0  0.26073  0.43919  0.18590  1.0000
  H   H68       1.0  0.10025  0.35623  0.16609  1.0000
  H   H69       1.0  0.10742  0.40569  0.08368  1.0000
  C   C42       1.0  0.29331  0.47494  0.29652  1.0000
  H   H70       1.0  0.31108  0.39376  0.16132  1.0000
  H   H71       1.0  0.30310  0.44193  0.03082  1.0000
  H   H72       1.0  0.20200  0.46169  0.20360  1.0000
  H   H73       1.0  0.28509  0.40399  0.37120  1.0000
  H   H74       1.0  0.31214  0.42214  0.12113  1.0000
  H   H75       1.0  0.20625  0.43259  0.17782  1.0000
  C   C43       1.0  0.25078  0.45779  0.30780  1.0000
  H   H76       1.0  0.24999  0.37323  0.08178  1.0000
  H   H77       1.0  0.10581  0.37810  0.11343  1.0000
  C   C44       1.0  0.29525  0.39366  0.16491  1.0000
  H   H78       1.0  0.25544  0.43001  0.32091  1.0000
  C   C45       1.0  0.29535  0.41570  0.11344  1.0000
  C   C46       1.0  0.20070  0.41079  0.24036  1.0000
  H   H79       1.0  0.31862  0.44920  0.07205  1.0000
  H   H80       1.0  0.21440  0.44378  0.24471  1.0000
  H   H81       1.0  0.25927  0.45420  0.22386  1.0000
  H   H82       1.0  0.23229  0.43084  0.24624  1.0000
  H   H83       1.0  0.24708  0.47030  0.12852  1.0000
  H   H84       1.0  0.28914  0.43788  0.39689  1.0000
  H   H85       1.0  0.23451  0.45085  0.31167  1.0000
  H   H86       1.0  0.23647  0.42316  0.12495  1.0000
  N   N4        1.0  0.23840  0.45364  0.17909  1.0000
  H   H87       1.0  0.24511  0.44431  0.40977  1.0000
  H   H88       1.0  0.27846  0.42236  0.46319  1.0000
  C   C47       1.0  0.29495  0.41808  0.07144  1.0000
  H   H89       1.0  0.26004  0.40163  0.15016  1.0000
  H   H90       1.0  0.22423  0.42036  0.18045  1.0000
  H   H91       1.0  0.30600  0.42058  0.24839  1.0000
  C   C48       1.0  0.23792  0.45446  0.13798  1.0000
  C   C49       1.0  0.08942  0.38875  0.23471  1.0000
  C   C50       1.0  0.28874  0.37869  0.10351  1.0000
  C   C51       1.0  0.22135  0.43401  0.19060  1.0000
  H   H92       1.0  0.10164  0.39446  0.16652  1.0000
  C   C52       1.0  0.27829  0.47244  0.18254  1.0000
  H   H93       1.0  0.09643  0.33116  0.09532  1.0000
  C   C53       1.0  0.27969  0.35598  0.11593  1.0000
  C   C54       1.0  0.21824  0.43121  0.23228  1.0000
  H   H94       1.0  0.25618  0.37534  0.15266  1.0000
  C   C55       1.0  0.26275  0.44592  0.31292  1.0000
  H   H95       1.0  0.08344  0.43451  0.08573  1.0000
  C   C56       1.0  0.26236  0.38898  0.13476  1.0000
  H   H96       1.0  0.23415  0.43294  0.46937  1.0000
  H   H97       1.0  0.25034  0.39905  0.08634  1.0000
  C   C57       1.0  0.30540  0.46878  0.44747  1.0000
  H   H98       1.0  0.22130  0.36030  0.12413  1.0000
  H   H99       1.0  0.10345  0.41905  0.12292  1.0000
  H   H100      1.0  0.26706  0.39104  0.40591  1.0000
  H   H101      1.0  0.24702  0.48666  0.18296  1.0000
  H   H102      1.0  0.31016  0.45586  0.44000  1.0000
  C   C58       1.0  0.27539  0.42436  0.40436  1.0000
  H   H103      1.0  0.29388  0.40624  0.41800  1.0000
  H   H104      1.0  0.31177  0.48317  0.18730  1.0000
  H   H105      1.0  0.02301  0.35789  0.01669  1.0000
  H   H106      1.0  0.29100  0.45335  0.49520  1.0000
  S   S10       1.0  0.20251  0.49192  0.36001  1.0000
  H   H107      1.0  0.27884  0.48658  0.19730  1.0000
  H   H108      1.0  0.23141  0.39427  0.02640  1.0000
  C   C59       1.0  0.22328  0.38138  0.00828  1.0000
  S   S11       1.0  0.11368  0.40238  0.00543  1.0000
  S   S12       1.0  0.24461  0.49320  0.29144  1.0000
  H   H109      1.0  0.01407  0.32543  0.08225  1.0000
  H   H110      1.0  0.28417  0.47445  0.48465  1.0000
  H   H111      1.0  0.24875  0.45629  0.49338  1.0000
  C   C60       1.0  0.32389  0.48490  0.46769  1.0000
  C   C61       1.0  0.02061  0.34291  0.00501  1.0000
  S   S13       1.0  0.31635  0.37695  0.00622  1.0000
  S   S14       1.0  0.26079  0.37711  0.00401  1.0000
  H   H112      1.0  0.19791  0.49434  0.19422  1.0000
  C   C62       1.0  0.21383  0.49450  0.19718  1.0000
  C   C63       1.0  0.20175  0.37535  0.00248  1.0000
  H   H113      1.0  0.32311  0.32115  0.07652  1.0000
  H   H114      1.0  0.32375  0.33992  0.04267  1.0000
  S   S15       1.0  0.16814  0.47917  0.68792  1.0000
  Fe  Fe6       1.0  0.18559  0.47271  0.64131  1.0000
  S   S16       1.0  0.17324  0.47645  0.58513  1.0000
  Fe  Fe7       1.0  0.17371  0.45340  0.71677  1.0000
  S   S17       1.0  0.15078  0.42621  0.74656  1.0000
  Fe  Fe8       1.0  0.13358  0.40237  0.95838  1.0000
  S   S18       1.0  0.11840  0.36819  0.94954  1.0000
  S   S19       1.0  0.14114  0.42836  0.91813  1.0000
  C   C64       1.0  0.14909  0.42676  0.79450  1.0000
  C   C65       1.0  0.15737  0.44528  0.81440  1.0000
  C   C66       1.0  0.15499  0.44541  0.85234  1.0000
  C   C67       1.0  0.14472  0.42702  0.87082  1.0000
  C   C68       1.0  0.13689  0.40838  0.85111  1.0000
  C   C69       1.0  0.13891  0.40829  0.81299  1.0000
  H   H115      1.0  0.16518  0.45958  0.80045  1.0000
  H   H116      1.0  0.16099  0.45990  0.86739  1.0000
  H   H117      1.0  0.12882  0.39416  0.86508  1.0000
  H   H118      1.0  0.13249  0.39391  0.79768  1.0000
  C   C70       1.0  0.00009  0.32856  0.99842  1.0000
  N   N5        1.0  0.06228  0.37228  0.88249  1.0000
  C   C71       1.0  0.04011  0.36250  0.89417  1.0000
  C   C72       1.0  0.07463  0.38699  0.91239  1.0000
  C   C73       1.0  0.06289  0.38342  0.84732  1.0000
  C   C74       1.0  0.07157  0.35626  0.87632  1.0000
  C   C75       1.0  0.06808  0.34013  0.90669  1.0000
  C   C76       1.0  0.02524  0.34565  0.86800  1.0000
  C   C77       1.0  0.08483  0.39583  0.83300  1.0000
  C   C78       1.0  0.06960  0.40661  0.91819  1.0000
  C   C79       1.0  0.07889  0.32531  0.89820  1.0000
  C   C80       1.0  0.08378  0.40744  0.79848  1.0000
  H   H119      1.0  0.03316  0.37430  0.89696  1.0000
  H   H120      1.0  0.03932  0.35597  0.92195  1.0000
  H   H121      1.0  0.07228  0.37898  0.93889  1.0000
  H   H122      1.0  0.09156  0.39212  0.90785  1.0000
  H   H123      1.0  0.05435  0.39394  0.84971  1.0000
  H   H124      1.0  0.05461  0.37224  0.82516  1.0000
  H   H125      1.0  0.06576  0.34771  0.85011  1.0000
  H   H126      1.0  0.08862  0.36387  0.87326  1.0000
  H   H127      1.0  0.05144  0.33062  0.90958  1.0000
  H   H128      1.0  0.07415  0.34778  0.93327  1.0000
  H   H129      1.0  0.02240  0.35274  0.84259  1.0000
  H   H130      1.0  0.03146  0.33380  0.86045  1.0000
  H   H131      1.0  0.09282  0.38530  0.82611  1.0000
  H   H132      1.0  0.09451  0.40739  0.85337  1.0000
  H   H133      1.0  0.07350  0.41651  0.89388  1.0000
  H   H134      1.0  0.07664  0.31438  0.92095  1.0000
  H   H135      1.0  0.07227  0.31630  0.87282  1.0000
  H   H136      1.0  0.09576  0.33384  0.89504  1.0000
  H   H137      1.0  0.09969  0.41598  0.78877  1.0000
  H   H138      1.0  0.07484  0.39654  0.77650  1.0000
  H   H139      1.0  0.07652  0.41877  0.80410  1.0000
  C   C81       1.0  0.17918  0.46808  0.54272  1.0000
  H   H140      1.0  0.05303  0.40258  0.92392  1.0000
  C   C82       1.0  0.08196  0.41965  0.95043  1.0000
  S   S20       1.0  0.18852  0.44514  0.66821  1.0000
  H   H141      1.0  0.16119  0.34440  0.85736  1.0000
  C   C83       1.0  0.15411  0.35476  0.86923  1.0000
  H   H142      1.0  0.16075  0.38669  0.87907  1.0000
  H   H143      1.0  0.17089  0.38073  0.83719  1.0000
  H   H144      1.0  0.13943  0.35227  0.85408  1.0000
  H   H145      1.0  0.15037  0.35064  0.89809  1.0000
  C   C84       1.0  0.16867  0.37733  0.86661  1.0000
  C   C85       1.0  0.19083  0.35823  0.98016  1.0000
  S   S21       1.0  0.31413  0.41527  0.85606  1.0000
  H   H146      1.0  0.18077  0.41425  0.83485  1.0000
  C   C86       1.0  0.30592  0.40494  0.70396  1.0000
  H   H147      1.0  0.07843  0.43377  0.95340  1.0000
  N   N6        1.0  0.25090  0.39929  0.73684  1.0000
  C   C87       1.0  0.19250  0.45746  0.54000  1.0000
  H   H148      1.0  0.19287  0.43566  0.78165  1.0000
  S   S22       1.0  0.16344  0.34916  0.97372  1.0000
  H   H149      1.0  0.18180  0.41676  0.89785  1.0000
  S   S23       1.0  0.20359  0.47456  0.74259  1.0000
  H   H150      1.0  0.28475  0.45564  0.70352  1.0000
  C   C88       1.0  0.17081  0.47301  0.51071  1.0000
  C   C89       1.0  0.19725  0.45174  0.50546  1.0000
  H   H151      1.0  0.18965  0.40725  0.93713  1.0000
  H   H152      1.0  0.30095  0.39100  0.68596  1.0000
  H   H153      1.0  0.19902  0.45356  0.56444  1.0000
  C   C90       1.0  0.19750  0.42341  0.83348  1.0000
  C   C91       1.0  0.18975  0.38127  0.88586  1.0000
  H   H154      1.0  0.18659  0.37476  0.91366  1.0000
  C   C92       1.0  0.19560  0.41557  0.91146  1.0000
  H   H155      1.0  0.20042  0.43835  0.84763  1.0000
  H   H156      1.0  0.19643  0.37149  0.87086  1.0000
  H   H157      1.0  0.19959  0.41345  0.77762  1.0000
  C   C93       1.0  0.23370  0.42520  0.54179  1.0000
  C   C94       1.0  0.20272  0.42795  0.79346  1.0000
  H   H158      1.0  0.28276  0.41510  0.68332  1.0000
  H   H159      1.0  0.31205  0.40150  0.73016  1.0000
  H   H160      1.0  0.20725  0.44323  0.50341  1.0000
  H   H161      1.0  0.23240  0.43980  0.55109  1.0000
  S   S24       1.0  0.24624  0.46060  0.70578  1.0000
  H   H162      1.0  0.18922  0.45317  0.91259  1.0000
  H   H163      1.0  0.31861  0.41744  0.69048  1.0000
  H   H164      1.0  0.24216  0.46592  0.62801  1.0000
  H   H165      1.0  0.07776  0.41082  0.97600  1.0000
  H   H166      1.0  0.23168  0.34543  0.95525  1.0000
  Fe  Fe9       1.0  0.09941  0.36770  0.99945  1.0000
  Fe  Fe10      1.0  0.14334  0.36715  0.98913  1.0000
  H   H167      1.0  0.30695  0.45446  0.65311  1.0000
  H   H168      1.0  0.22414  0.42088  0.65001  1.0000
  H   H169      1.0  0.16022  0.48089  0.51262  1.0000
  H   H170      1.0  0.22585  0.36928  0.73402  1.0000
  Fe  Fe11      1.0  0.28994  0.37955  0.97302  1.0000
  H   H171      1.0  0.00622  0.32635  0.91024  1.0000
  Fe  Fe12      1.0  0.31867  0.39944  0.90850  1.0000
  S   S25       1.0  0.15921  0.40132  0.99471  1.0000
  C   C95       1.0  0.99641  0.30900  0.98316  1.0000
  C   C96       1.0  0.19876  0.45089  0.93540  1.0000
  C   C97       1.0  0.28035  0.45782  0.67608  1.0000
  H   H172      1.0  0.25863  0.39719  0.93405  1.0000
  S   S26       1.0  0.21677  0.49473  0.66170  1.0000
  H   H173      1.0  0.23605  0.41949  0.90981  1.0000
  H   H174      1.0  0.26653  0.41166  0.89278  1.0000
  C   C98       1.0  0.21368  0.40580  0.66059  1.0000
  C   C99       1.0  0.23477  0.38110  0.75495  1.0000
  H   H175      1.0  0.26582  0.43236  0.74371  1.0000
  C   C100      1.0  0.21056  0.43765  0.92281  1.0000
  S   S27       1.0  0.29875  0.36650  0.92229  1.0000
  H   H176      1.0  0.19772  0.40565  0.66060  1.0000
  C   C101      1.0  0.27020  0.39494  0.73037  1.0000
  H   H177      1.0  0.26367  0.38504  0.89389  1.0000
  C   C102      1.0  0.26199  0.46088  0.66915  1.0000
  H   H178      1.0  0.21974  0.41574  0.71632  1.0000
  N   N7        1.0  0.20485  0.40340  0.88844  1.0000
  C   C103      1.0  0.26485  0.41969  0.79748  1.0000
  C   C104      1.0  0.27154  0.44130  0.81444  1.0000
  H   H179      1.0  0.22695  0.42384  0.85140  1.0000
  H   H180      1.0  0.25826  0.44632  0.81583  1.0000
  C   C105      1.0  0.22409  0.40355  0.90827  1.0000
  H   H181      1.0  0.25366  0.37889  0.80326  1.0000
  H   H182      1.0  0.21914  0.43841  0.79071  1.0000
  C   C106      1.0  0.25719  0.39633  0.90388  1.0000
  H   H183      1.0  0.25301  0.40924  0.81532  1.0000
  H   H184      1.0  0.25249  0.41671  0.68759  1.0000
  Fe  Fe13      1.0  0.21810  0.46782  0.69280  1.0000
  C   C107      1.0  0.25549  0.41889  0.75879  1.0000
  H   H185      1.0  0.27855  0.41537  0.79752  1.0000
  H   H186      1.0  0.21383  0.39322  0.64211  1.0000
  C   C108      1.0  0.24254  0.36884  0.78275  1.0000
  H   H187      1.0  0.22072  0.43681  0.94590  1.0000
  H   H188      1.0  0.22632  0.37339  0.90008  1.0000
  C   C109      1.0  0.00433  0.33456  0.88554  1.0000
  H   H189      1.0  0.21592  0.36119  0.81810  1.0000
  H   H190      1.0  0.23607  0.41703  0.56620  1.0000
  C   C110      1.0  0.21077  0.41229  0.85100  1.0000
  S   S28       1.0  0.30551  0.46298  0.57731  1.0000
  C   C111      1.0  0.22451  0.35328  0.80300  1.0000
  C   C112      1.0  0.23454  0.38956  0.89151  1.0000
  H   H191      1.0  0.29390  0.42629  0.72699  1.0000
  S   S29       1.0  0.30829  0.41211  0.95758  1.0000
  C   C113      1.0  0.26966  0.46401  0.60480  1.0000
  H   H192      1.0  0.27717  0.39232  0.75630  1.0000
  H   H193      1.0  0.23406  0.38968  0.86144  1.0000
  H   H194      1.0  0.25044  0.35999  0.76819  1.0000
  C   C114      1.0  0.01380  0.30429  0.97461  1.0000
  H   H195      1.0  0.22324  0.38608  0.76854  1.0000
  C   C115      1.0  0.25649  0.46382  0.63344  1.0000
  H   H196      1.0  0.28384  0.45249  0.79816  1.0000
  H   H197      1.0  0.26577  0.46681  0.57727  1.0000
  H   H198      1.0  0.23053  0.34493  0.82290  1.0000
  C   C116      1.0  0.22028  0.40279  0.69935  1.0000
  H   H199      1.0  0.24119  0.42201  0.76239  1.0000
  C   C117      1.0  0.03431  0.31860  0.98135  1.0000
  H   H200      1.0  0.21372  0.34182  0.78357  1.0000
  H   H201      1.0  0.22059  0.44555  0.90008  1.0000
  C   C118      1.0  0.28810  0.46103  0.61203  1.0000
  C   C119      1.0  0.25194  0.42959  0.51640  1.0000
  H   H202      1.0  0.21072  0.39996  0.83158  1.0000
  C   C120      1.0  0.28790  0.41182  0.71044  1.0000
  H   H203      1.0  0.09883  0.42446  0.94608  1.0000
  H   H204      1.0  0.24187  0.38948  0.68079  1.0000
  C   C121      1.0  0.29318  0.45756  0.64758  1.0000
  H   H205      1.0  0.20852  0.38827  0.70934  1.0000
  C   C122      1.0  0.24229  0.40207  0.70001  1.0000
  H   H206      1.0  0.27785  0.44133  0.84246  1.0000
  H   H207      1.0  0.21903  0.41530  0.52774  1.0000
  H   H208      1.0  0.22063  0.39882  0.93710  1.0000
  H   H209      1.0  0.26607  0.38029  0.71429  1.0000
  H   H210      1.0  0.19366  0.33451  0.94536  1.0000
  C   C123      1.0  0.20191  0.34779  0.96264  1.0000
  C   C124      1.0  0.22352  0.35403  0.96801  1.0000
  H   H211      1.0  0.28544  0.48578  0.74766  1.0000
  H   H212      1.0  0.99372  0.32297  0.86607  1.0000
  H   H213      1.0  0.31381  0.44238  0.79800  1.0000
  H   H214      1.0  0.20985  0.46625  0.94491  1.0000
  H   H215      1.0  0.18850  0.44347  0.95822  1.0000
  C   C125      1.0  0.23431  0.37070  0.99136  1.0000
  H   H216      1.0  0.26615  0.43852  0.53248  1.0000
  H   H217      1.0  0.04727  0.31439  0.97498  1.0000
  H   H218      1.0  0.30789  0.47864  0.74946  1.0000
  H   H219      1.0  0.23484  0.49057  0.58983  1.0000
  H   H220      1.0  0.24331  0.48516  0.54642  1.0000
  C   C126      1.0  0.03798  0.33811  0.99672  1.0000
  H   H221      1.0  0.01136  0.28931  0.96284  1.0000
  H   H222      1.0  0.25265  0.41455  0.50856  1.0000
  H   H223      1.0  0.30160  0.49098  0.78821  1.0000
  H   H224      1.0  0.99713  0.34566  0.89327  1.0000
  C   C127      1.0  0.30164  0.49039  0.75797  1.0000
  Fe  Fe14      1.0  0.18362  0.64101  0.36246  1.0000
  S   S30       1.0  0.21556  0.64104  0.35834  1.0000
  S   S31       1.0  0.16641  0.62816  0.41404  1.0000
  Fe  Fe15      1.0  0.18387  0.65636  0.28401  1.0000
  S   S32       1.0  0.21579  0.65728  0.27406  1.0000
  S   S33       1.0  0.16534  0.66771  0.24429  1.0000
  Fe  Fe16      1.0  0.20511  0.62697  0.30290  1.0000
  S   S34       1.0  0.21477  0.60133  0.28407  1.0000
  Fe  Fe17      1.0  0.22329  0.67122  0.33024  1.0000
  S   S35       1.0  0.25052  0.69928  0.34907  1.0000
  S   S36       1.0  0.17243  0.62472  0.30843  1.0000
  S   S37       1.0  0.19204  0.67242  0.33883  1.0000
  S   S38       1.0  0.15812  0.51038  0.32623  1.0000
  C   C128      1.0  0.22130  0.74275  0.30016  1.0000
  S   S39       1.0  0.16960  0.66167  0.07173  1.0000
  H   H225      1.0  0.15761  0.61786  0.48901  1.0000
  H   H226      1.0  0.22151  0.69691  0.40772  1.0000
  C   C129      1.0  0.15931  0.54540  0.44674  1.0000
  H   H227      1.0  0.99912  0.56941  0.18879  1.0000
  H   H228      1.0  0.22115  0.73395  0.05812  1.0000
  C   C130      1.0  0.16719  0.66678  0.19634  1.0000
  C   C131      1.0  0.15278  0.67114  0.17417  1.0000
  C   C132      1.0  0.15352  0.67013  0.13588  1.0000
  C   C133      1.0  0.16868  0.66467  0.11951  1.0000
  C   C134      1.0  0.18333  0.66070  0.14173  1.0000
  C   C135      1.0  0.18262  0.66177  0.17995  1.0000
  H   H229      1.0  0.14082  0.67511  0.18665  1.0000
  H   H230      1.0  0.14217  0.67322  0.11906  1.0000
  H   H231      1.0  0.19516  0.65655  0.12921  1.0000
  H   H232      1.0  0.19393  0.65865  0.19673  1.0000
  C   C136      1.0  0.17234  0.64358  0.45418  1.0000
  C   C137      1.0  0.18273  0.66497  0.45308  1.0000
  H   H233      1.0  0.16579  0.57647  0.13806  1.0000
  H   H234      1.0  0.18651  0.67247  0.42711  1.0000
  H   H235      1.0  0.18332  0.62170  0.19001  1.0000
  C   C138      1.0  0.19915  0.57621  0.29688  1.0000
  C   C139      1.0  0.20704  0.56055  0.29545  1.0000
  C   C140      1.0  0.19465  0.54028  0.30481  1.0000
  C   C141      1.0  0.17413  0.53553  0.31456  1.0000
  C   C142      1.0  0.16609  0.55106  0.31504  1.0000
  C   C143      1.0  0.17867  0.57145  0.30696  1.0000
  H   H236      1.0  0.22282  0.56411  0.28737  1.0000
  H   H237      1.0  0.20090  0.52831  0.30404  1.0000
  H   H238      1.0  0.15007  0.54724  0.32169  1.0000
  H   H239      1.0  0.17235  0.58332  0.30764  1.0000
  C   C144      1.0  0.27031  0.71290  0.31956  1.0000
  C   C145      1.0  0.26485  0.66378  0.41514  1.0000
  H   H240      1.0  0.26424  0.68821  0.28019  1.0000
  C   C146      1.0  0.23107  0.70912  0.42728  1.0000
  C   C147      1.0  0.24230  0.69059  0.19184  1.0000
  H   H241      1.0  0.25945  0.69634  0.19381  1.0000
  H   H242      1.0  0.23604  0.67380  0.19701  1.0000
  H   H243      1.0  0.23739  0.69302  0.16389  1.0000
  C   C148      1.0  0.17069  0.57022  0.20404  1.0000
  C   C149      1.0  0.22907  0.54313  0.45205  1.0000
  H   H244      1.0  0.03946  0.58996  0.14731  1.0000
  C   C150      1.0  0.15851  0.51024  0.42699  1.0000
  H   H245      1.0  0.23649  0.62708  0.16994  1.0000
  C   C151      1.0  0.24338  0.65127  0.48679  1.0000
  H   H246      1.0  0.00887  0.57385  0.10689  1.0000
  H   H247      1.0  0.32047  0.49870  0.47492  1.0000
  H   H248      1.0  0.22638  0.63471  0.20988  1.0000
  H   H249      1.0  0.00654  0.61054  0.11786  1.0000
  H   H250      1.0  0.21935  0.71383  0.27628  1.0000
  H   H251      1.0  0.20178  0.56796  0.43998  1.0000
  H   H252      1.0  0.21070  0.56943  0.37491  1.0000
  H   H253      1.0  0.20453  0.74502  0.07918  1.0000
  H   H254      1.0  0.14240  0.54921  0.22934  1.0000
  H   H255      1.0  0.15642  0.58955  0.07787  1.0000
  H   H256      1.0  0.21925  0.49869  0.22587  1.0000
  H   H257      1.0  0.20123  0.53650  0.48176  1.0000
  H   H258      1.0  0.21425  0.51952  0.49004  1.0000
  H   H259      1.0  0.11776  0.58234  0.38020  1.0000
  C   C152      1.0  0.14292  0.60868  0.21263  1.0000
  H   H260      1.0  0.19534  0.69324  0.48499  1.0000
  H   H261      1.0  0.21025  0.74185  0.35528  1.0000
  C   C153      1.0  0.12660  0.60839  0.24007  1.0000
  C   C154      1.0  0.99756  0.56722  0.12887  1.0000
  H   H262      1.0  0.28843  0.68634  0.38279  1.0000
  H   H263      1.0  0.23646  0.64204  0.46168  1.0000
  C   C155      1.0  0.21671  0.53593  0.48665  1.0000
  C   C156      1.0  0.24368  0.72526  0.21613  1.0000
  H   H264      1.0  0.15620  0.61518  0.07761  1.0000
  H   H265      1.0  0.16951  0.54459  0.46974  1.0000
  H   H266      1.0  0.15632  0.62338  0.21695  1.0000
  S   S40       1.0  0.13528  0.69226  0.02202  1.0000
  C   C157      1.0  0.27365  0.70407  0.28718  1.0000
  H   H267      1.0  0.06105  0.62066  0.01067  1.0000
  N   N8        1.0  0.23232  0.73692  0.23503  1.0000
  H   H268      1.0  0.21473  0.59650  0.37376  1.0000
  N   N9        1.0  0.16244  0.56762  0.43916  1.0000
  C   C158      1.0  0.17879  0.57740  0.41141  1.0000
  C   C159      1.0  0.14242  0.56938  0.42669  1.0000
  H   H269      1.0  0.21106  0.59687  0.19890  1.0000
  C   C160      1.0  0.20125  0.58105  0.42385  1.0000
  H   H270      1.0  0.23261  0.55975  0.44754  1.0000
  C   C161      1.0  0.13461  0.56194  0.38739  1.0000
  C   C162      1.0  0.11484  0.56561  0.37831  1.0000
  H   H271      1.0  0.18632  0.74251  0.16507  1.0000
  H   H272      1.0  0.25908  0.64682  0.41848  1.0000
  H   H273      1.0  0.17869  0.59268  0.40338  1.0000
  H   H274      1.0  0.17533  0.56816  0.38573  1.0000
  H   H275      1.0  0.12960  0.56067  0.44491  1.0000
  H   H276      1.0  0.14389  0.58577  0.42881  1.0000
  H   H277      1.0  0.00730  0.59397  0.16771  1.0000
  C   C163      1.0  0.23400  0.70154  0.21998  1.0000
  H   H278      1.0  0.20754  0.59524  0.44122  1.0000
  H   H279      1.0  0.16783  0.52986  0.18554  1.0000
  H   H280      1.0  0.14614  0.57058  0.36716  1.0000
  H   H281      1.0  0.13092  0.54521  0.38416  1.0000
  C   C164      1.0  0.22244  0.62824  0.18175  1.0000
  H   H282      1.0  0.10952  0.56011  0.35004  1.0000
  H   H283      1.0  0.29577  0.66589  0.40053  1.0000
  H   H284      1.0  0.14040  0.58001  0.49772  1.0000
  H   H285      1.0  0.10236  0.55707  0.39719  1.0000
  H   H286      1.0  0.23162  0.58801  0.40108  1.0000
  H   H287      1.0  0.23798  0.69747  0.24737  1.0000
  H   H288      1.0  0.21690  0.69550  0.21730  1.0000
  H   H289      1.0  0.27750  0.66088  0.36279  1.0000
  C   C165      1.0  0.16341  0.60575  0.13053  1.0000
  H   H290      1.0  0.18859  0.61038  0.22942  1.0000
  H   H291      1.0  0.12291  0.62239  0.23672  1.0000
  H   H292      1.0  0.02467  0.59654  0.01962  1.0000
  H   H293      1.0  0.13238  0.60842  0.26842  1.0000
  C   C166      1.0  0.18779  0.67668  0.48571  1.0000
  C   C167      1.0  0.23908  0.68151  0.46126  1.0000
  H   H294      1.0  0.28122  0.69144  0.44635  1.0000
  H   H295      1.0  0.29212  0.70897  0.23901  1.0000
  H   H296      1.0  0.16200  0.50144  0.40446  1.0000
  C   C168      1.0  0.20811  0.72764  0.17672  1.0000
  C   C169      1.0  0.15913  0.53135  0.20971  1.0000
  C   C170      1.0  0.20521  0.60687  0.18245  1.0000
  C   C171      1.0  0.28945  0.71579  0.26400  1.0000
  H   H297      1.0  0.17841  0.57298  0.23141  1.0000
  H   H298      1.0  0.14549  0.51675  0.21254  1.0000
  H   H299      1.0  0.11219  0.59456  0.23551  1.0000
  C   C172      1.0  0.29852  0.74500  0.30573  1.0000
  H   H300      1.0  0.25963  0.70454  0.42435  1.0000
  H   H301      1.0  0.17442  0.71584  0.17848  1.0000
  C   C173      1.0  0.15202  0.60084  0.09360  1.0000
  C   C174      1.0  0.24801  0.70333  0.44518  1.0000
  C   C175      1.0  0.21540  0.58394  0.39138  1.0000
  H   H302      1.0  0.03106  0.56486  0.16819  1.0000
  H   H303      1.0  0.99663  0.55105  0.13150  1.0000
  H   H304      1.0  0.15396  0.53217  0.39096  1.0000
  H   H305      1.0  0.28261  0.66902  0.46580  1.0000
  H   H306      1.0  0.21998  0.53416  0.42812  1.0000
  H   H307      1.0  0.18018  0.61306  0.12517  1.0000
  H   H308      1.0  0.13467  0.57614  0.21286  1.0000
  H   H309      1.0  0.22950  0.67060  0.43969  1.0000
  H   H310      1.0  0.19915  0.71915  0.23150  1.0000
  C   C176      1.0  0.16345  0.53251  0.41547  1.0000
  H   H311      1.0  0.14220  0.54662  0.18027  1.0000
  H   H312      1.0  0.14186  0.50254  0.43323  1.0000
  H   H313      1.0  0.21764  0.63879  0.16480  1.0000
  H   H314      1.0  0.16916  0.53362  0.23450  1.0000
  C   C177      1.0  0.16920  0.57998  0.47432  1.0000
  H   H315      1.0  0.17992  0.53889  0.40773  1.0000
  H   H316      1.0  0.03661  0.58778  0.19594  1.0000
  H   H317      1.0  0.25992  0.73045  0.22699  1.0000
  H   H318      1.0  0.14176  0.57681  0.15126  1.0000
  H   H319      1.0  0.24501  0.73130  0.28636  1.0000
  C   C178      1.0  0.15872  0.58592  0.15327  1.0000
  H   H320      1.0  0.20216  0.60047  0.15424  1.0000
  H   H321      1.0  0.24379  0.54053  0.45400  1.0000
  C   C179      1.0  0.18534  0.60763  0.19957  1.0000
  C   C180      1.0  0.14921  0.58987  0.21727  1.0000
  H   H322      1.0  0.20127  0.71720  0.33201  1.0000
  H   H323      1.0  0.18321  0.57825  0.48616  1.0000
  C   C181      1.0  0.03004  0.58030  0.16929  1.0000
  H   H324      1.0  0.16805  0.50970  0.45119  1.0000
  H   H325      1.0  0.13502  0.59457  0.09723  1.0000
  N   N10       1.0  0.16594  0.58872  0.19282  1.0000
  N   N11       1.0  0.25457  0.67376  0.47818  1.0000
  C   C182      1.0  0.16667  0.63415  0.48800  1.0000
  H   H326      1.0  0.22412  0.50645  0.17905  1.0000
  C   C183      1.0  0.27171  0.67517  0.45249  1.0000
  H   H327      1.0  0.13585  0.60831  0.18527  1.0000
  H   H328      1.0  0.14332  0.53674  0.45611  1.0000
  H   H329      1.0  0.15396  0.58960  0.24639  1.0000
  H   H330      1.0  0.22097  0.71166  0.44808  1.0000
  C   C184      1.0  0.28283  0.66962  0.38889  1.0000
  H   H331      1.0  0.24794  0.49863  0.40001  1.0000
  H   H332      1.0  0.25533  0.71477  0.46703  1.0000
  H   H333      1.0  0.15895  0.61745  0.14443  1.0000
  C   C185      1.0  0.18712  0.72701  0.16277  1.0000
  C   C186      1.0  0.15198  0.54936  0.20543  1.0000
  C   C187      1.0  0.00755  0.57833  0.16530  1.0000
  C   C188      1.0  0.21477  0.73189  0.33636  1.0000
  H   H334      1.0  0.25253  0.66774  0.40184  1.0000
  Fe  Fe18      1.0  0.15257  0.67075  0.02536  1.0000
  H   H335      1.0  0.17393  0.59676  0.46897  1.0000
  H   H336      1.0  0.18197  0.56783  0.18528  1.0000
  H   H337      1.0  0.23818  0.72360  0.41202  1.0000
  H   H338      1.0  0.18476  0.72195  0.13368  1.0000
  C   C189      1.0  0.21107  0.73262  0.21832  1.0000
  C   C190      1.0  0.30181  0.73631  0.27317  1.0000
  C   C191      1.0  0.28293  0.73326  0.32898  1.0000
  H   H339      1.0  0.20855  0.71225  0.17076  1.0000
  H   H340      1.0  0.21185  0.64810  0.49888  1.0000
  C   C192      1.0  0.22989  0.73033  0.27438  1.0000
  H   H341      1.0  0.24522  0.72864  0.18669  1.0000
  H   H342      1.0  0.22022  0.73902  0.16056  1.0000
  H   H343      1.0  0.28056  0.74005  0.35422  1.0000
  C   C193      1.0  0.02763  0.61014  0.00345  1.0000
  H   H344      1.0  0.25456  0.64482  0.49813  1.0000
  H   H345      1.0  0.22779  0.68194  0.48189  1.0000
  H   H346      1.0  0.22771  0.72862  0.34913  1.0000
  H   H347      1.0  0.28833  0.50271  0.28294  1.0000
  H   H348      1.0  0.99694  0.63973  0.09976  1.0000
  H   H349      1.0  0.99815  0.62428  0.06114  1.0000
  H   H350      1.0  0.28433  0.71490  0.49074  1.0000
  H   H351      1.0  0.20768  0.74489  0.28766  1.0000
  Fe  Fe19      1.0  0.19467  0.66530  0.61140  1.0000
  S   S41       1.0  0.21992  0.65306  0.61692  1.0000
  S   S42       1.0  0.19312  0.68196  0.55958  1.0000
  Fe  Fe20      1.0  0.17989  0.65296  0.68923  1.0000
  S   S43       1.0  0.20421  0.63991  0.70055  1.0000
  S   S44       1.0  0.15494  0.65225  0.72844  1.0000
  Fe  Fe21      1.0  0.22543  0.66814  0.67230  1.0000
  S   S45       1.0  0.25780  0.68720  0.69225  1.0000
  Fe  Fe22      1.0  0.19624  0.62613  0.64413  1.0000
  S   S46       1.0  0.18961  0.59325  0.62640  1.0000
  S   S47       1.0  0.20171  0.68231  0.66538  1.0000
  S   S48       1.0  0.17037  0.63724  0.63434  1.0000
  S   S49       1.0  0.20935  0.53205  0.73227  1.0000
  N   N12       1.0  0.22094  0.54120  0.55755  1.0000
  C   C194      1.0  0.30930  0.51839  0.62048  1.0000
  H   H352      1.0  0.25486  0.73643  0.60114  1.0000
  C   C195      1.0  0.28418  0.70408  0.51258  1.0000
  H   H353      1.0  0.11927  0.69136  0.83872  1.0000
  Fe  Fe23      1.0  0.15260  0.66617  0.94206  1.0000
  S   S50       1.0  0.16879  0.65413  0.89967  1.0000
  S   S51       1.0  0.13527  0.68702  0.93346  1.0000
  C   C196      1.0  0.26330  0.68531  0.51377  1.0000
  C   C197      1.0  0.19676  0.71326  0.89458  1.0000
  C   C198      1.0  0.27560  0.54693  0.68822  1.0000
  C   C199      1.0  0.15976  0.65469  0.77590  1.0000
  C   C200      1.0  0.17844  0.65519  0.79112  1.0000
  C   C201      1.0  0.18108  0.65528  0.82918  1.0000
  C   C202      1.0  0.16538  0.65561  0.85226  1.0000
  C   C203      1.0  0.14706  0.65602  0.83706  1.0000
  C   C204      1.0  0.14419  0.65534  0.79897  1.0000
  H   H354      1.0  0.19065  0.65500  0.77360  1.0000
  H   H355      1.0  0.19530  0.65498  0.84084  1.0000
  H   H356      1.0  0.13484  0.65615  0.85467  1.0000
  H   H357      1.0  0.12972  0.65502  0.78733  1.0000
  C   C205      1.0  0.20335  0.54912  0.70376  1.0000
  C   C206      1.0  0.21287  0.57049  0.71001  1.0000
  C   C207      1.0  0.20831  0.58427  0.68710  1.0000
  C   C208      1.0  0.19416  0.57666  0.65801  1.0000
  C   C209      1.0  0.18409  0.55532  0.65275  1.0000
  C   C210      1.0  0.18888  0.54158  0.67517  1.0000
  H   H358      1.0  0.22398  0.57636  0.73231  1.0000
  H   H359      1.0  0.21614  0.60073  0.69137  1.0000
  H   H360      1.0  0.17237  0.54933  0.63151  1.0000
  H   H361      1.0  0.18117  0.52513  0.67062  1.0000
  C   C211      1.0  0.26850  0.70965  0.66655  1.0000
  C   C212      1.0  0.28919  0.72295  0.67228  1.0000
  H   H362      1.0  0.29874  0.71916  0.69221  1.0000
  C   C213      1.0  0.18546  0.72939  0.79814  1.0000
  C   C214      1.0  0.21378  0.70576  0.90640  1.0000
  C   C215      1.0  0.25633  0.71448  0.64043  1.0000
  H   H363      1.0  0.26609  0.67486  0.53416  1.0000
  H   H364      1.0  0.28326  0.52422  0.71680  1.0000
  H   H365      1.0  0.21301  0.72449  0.84405  1.0000
  N   N13       1.0  0.15379  0.58807  0.77164  1.0000
  C   C216      1.0  0.17614  0.60163  0.76586  1.0000
  C   C217      1.0  0.14068  0.58847  0.73850  1.0000
  C   C218      1.0  0.14647  0.59708  0.80361  1.0000
  C   C219      1.0  0.15113  0.56626  0.78076  1.0000
  C   C220      1.0  0.15926  0.55465  0.75278  1.0000
  C   C221      1.0  0.19155  0.60326  0.79783  1.0000
  C   C222      1.0  0.12319  0.58657  0.81250  1.0000
  C   C223      1.0  0.15073  0.59034  0.70060  1.0000
  C   C224      1.0  0.13476  0.58677  0.66968  1.0000
  C   C225      1.0  0.15855  0.53411  0.76775  1.0000
  C   C226      1.0  0.21368  0.61651  0.78758  1.0000
  C   C227      1.0  0.11730  0.59865  0.84225  1.0000
  H   H366      1.0  0.17725  0.61753  0.75963  1.0000
  H   H367      1.0  0.18234  0.59652  0.74167  1.0000
  H   H368      1.0  0.12604  0.57459  0.73767  1.0000
  H   H369      1.0  0.13591  0.60199  0.74023  1.0000
  H   H370      1.0  0.14982  0.61373  0.79913  1.0000
  H   H371      1.0  0.15500  0.59642  0.82912  1.0000
  H   H372      1.0  0.15837  0.56587  0.80786  1.0000
  H   H373      1.0  0.13447  0.55655  0.78368  1.0000
  H   H374      1.0  0.17547  0.56367  0.74574  1.0000
  H   H375      1.0  0.14936  0.55105  0.72770  1.0000
  H   H376      1.0  0.18801  0.61068  0.82224  1.0000
  H   H377      1.0  0.19127  0.58783  0.80511  1.0000
  H   H378      1.0  0.11972  0.57077  0.82268  1.0000
  H   H379      1.0  0.11308  0.58558  0.78834  1.0000
  H   H380      1.0  0.16253  0.60613  0.69763  1.0000
  H   H381      1.0  0.15844  0.57934  0.69663  1.0000
  H   H382      1.0  0.12735  0.59827  0.67145  1.0000
  H   H383      1.0  0.14255  0.58852  0.64309  1.0000
  H   H384      1.0  0.12274  0.57095  0.67071  1.0000
  H   H385      1.0  0.14263  0.52431  0.77576  1.0000
  H   H386      1.0  0.16348  0.52565  0.74646  1.0000
  H   H387      1.0  0.16930  0.53674  0.79164  1.0000
  H   H388      1.0  0.21843  0.60978  0.76350  1.0000
  H   H389      1.0  0.21502  0.63246  0.78142  1.0000
  H   H390      1.0  0.22443  0.61727  0.81071  1.0000
  H   H391      1.0  0.11881  0.61405  0.83225  1.0000
  H   H392      1.0  0.10098  0.59022  0.84987  1.0000
  H   H393      1.0  0.12734  0.60070  0.86699  1.0000
  H   H394      1.0  0.23385  0.71506  0.72461  1.0000
  Fe  Fe24      1.0  0.15712  0.70767  0.97647  1.0000
  H   H395      1.0  0.24054  0.70418  0.63520  1.0000
  H   H396      1.0  0.16903  0.63822  0.54665  1.0000
  H   H397      1.0  0.18844  0.70038  0.78108  1.0000
  H   H398      1.0  0.15936  0.71506  0.87859  1.0000
  H   H399      1.0  0.15041  0.57924  0.56261  1.0000
  S   S52       1.0  0.17423  0.74280  0.96917  1.0000
  S   S53       1.0  0.17508  0.68752  0.98265  1.0000
  H   H400      1.0  0.16216  0.69890  0.78110  1.0000
  H   H401      1.0  0.21853  0.55270  0.61171  1.0000
  H   H402      1.0  0.19186  0.70058  0.84065  1.0000
  C   C228      1.0  0.01075  0.61386  0.98789  1.0000
  H   H403      1.0  0.18269  0.54826  0.57459  1.0000
  C   C229      1.0  0.22458  0.55880  0.58449  1.0000
  C   C230      1.0  0.12287  0.70798  0.84456  1.0000
  C   C231      1.0  0.18303  0.53859  0.55084  1.0000
  H   H404      1.0  0.26473  0.60364  0.61671  1.0000
  H   H405      1.0  0.20189  0.73795  0.79140  1.0000
  H   H406      1.0  0.16865  0.60102  0.54011  1.0000
  C   C232      1.0  0.23285  0.51063  0.54636  1.0000
  H   H407      1.0  0.17498  0.57881  0.54979  1.0000
  C   C233      1.0  0.16238  0.58395  0.54139  1.0000
  C   C234      1.0  0.14433  0.72118  0.83105  1.0000
  C   C235      1.0  0.17831  0.70901  0.77534  1.0000
  H   H408      1.0  0.24193  0.58812  0.64046  1.0000
  H   H409      1.0  0.30168  0.50649  0.56502  1.0000
  H   H410      1.0  0.18172  0.70145  0.90255  1.0000
  H   H411      1.0  0.17716  0.73903  0.78743  1.0000
  H   H412      1.0  0.30021  0.50243  0.69050  1.0000
  H   H413      1.0  0.21584  0.56844  0.57577  1.0000
  C   C236      1.0  0.24341  0.49774  0.56519  1.0000
  C   C237      1.0  0.24838  0.59286  0.61308  1.0000
  C   C238      1.0  0.24732  0.57398  0.59056  1.0000
  C   C239      1.0  0.21819  0.62452  0.52740  1.0000
  S   S54       1.0  0.13125  0.64741  0.98500  1.0000
  H   H414      1.0  0.19447  0.52064  0.58600  1.0000
  H   H415      1.0  0.30471  0.72830  0.54859  1.0000
  H   H416      1.0  0.14725  0.73751  0.83803  1.0000
  H   H417      1.0  0.12197  0.71035  0.87435  1.0000
  C   C240      1.0  0.19681  0.71636  0.85282  1.0000
  H   H418      1.0  0.25969  0.50733  0.57300  1.0000
  H   H419      1.0  0.21150  0.69084  0.89261  1.0000
  H   H420      1.0  0.25182  0.69062  0.52679  1.0000
  H   H421      1.0  0.03597  0.60385  0.83442  1.0000
  Fe  Fe25      1.0  0.19958  0.49961  0.70951  1.0000
  H   H422      1.0  0.15716  0.69791  0.84182  1.0000
  H   H423      1.0  0.21323  0.70336  0.93626  1.0000
  H   H424      1.0  0.16884  0.72125  0.72678  1.0000
  H   H425      1.0  0.23906  0.72327  0.51861  1.0000
  Fe  Fe26      1.0  0.11466  0.66951  0.97920  1.0000
  H   H426      1.0  0.00892  0.61093  0.89408  1.0000
  N   N14       1.0  0.18315  0.72711  0.83885  1.0000
  H   H427      1.0  0.99320  0.60040  0.82651  1.0000
  H   H428      1.0  0.15978  0.51459  0.51801  1.0000
  H   H429      1.0  0.22925  0.71734  0.89992  1.0000
  H   H430      1.0  0.22872  0.72656  0.76559  1.0000
  H   H431      1.0  0.27833  0.55494  0.66174  1.0000
  H   H432      1.0  0.25634  0.56655  0.60606  1.0000
  H   H433      1.0  0.15640  0.51168  0.56668  1.0000
  H   H434      1.0  0.11100  0.71246  0.83057  1.0000
  H   H435      1.0  0.04450  0.62107  0.87346  1.0000
  S   S55       1.0  0.07887  0.66000  0.97034  1.0000
  H   H436      1.0  0.22843  0.52308  0.59862  1.0000
  C   C241      1.0  0.23340  0.52897  0.57083  1.0000
  C   C242      1.0  0.19827  0.52767  0.55858  1.0000
  H   H437      1.0  0.21283  0.61320  0.50444  1.0000
  H   H438      1.0  0.28804  0.70593  0.57201  1.0000
  C   C243      1.0  0.03145  0.61364  0.85373  1.0000
  H   H439      1.0  0.02860  0.62599  0.83854  1.0000
  H   H440      1.0  0.25488  0.57941  0.56426  1.0000
  C   C244      1.0  0.16113  0.71450  0.84857  1.0000
  H   H441      1.0  0.14385  0.71938  0.80096  1.0000
  H   H442      1.0  0.28033  0.55853  0.71085  1.0000
  C   C245      1.0  0.24112  0.72560  0.74811  1.0000
  H   H443      1.0  0.03889  0.65901  0.94600  1.0000
  H   H444      1.0  0.99348  0.55543  0.88609  1.0000
  H   H445      1.0  0.23097  0.62221  0.54277  1.0000
  H   H446      1.0  0.19427  0.51435  0.53947  1.0000
  H   H447      1.0  0.19540  0.72292  0.72682  1.0000
  C   C246      1.0  0.22520  0.64652  0.51340  1.0000
  C   C247      1.0  0.28751  0.53260  0.69084  1.0000
  H   H448      1.0  0.25006  0.53888  0.57351  1.0000
  H   H449      1.0  0.27770  0.72379  0.55265  1.0000
  H   H450      1.0  0.20518  0.62176  0.54625  1.0000
  H   H451      1.0  0.00258  0.63502  0.95501  1.0000
  C   C248      1.0  0.29758  0.74105  0.65195  1.0000
  H   H452      1.0  0.29908  0.52721  0.61862  1.0000
  C   C249      1.0  0.23480  0.73698  0.52078  1.0000
  H   H453      1.0  0.31443  0.55671  0.66831  1.0000
  H   H454      1.0  0.01628  0.58931  0.89041  1.0000
  H   H455      1.0  0.21811  0.73212  0.51346  1.0000
  H   H456      1.0  0.17441  0.69851  0.71892  1.0000
  C   C250      1.0  0.99361  0.58930  0.84776  1.0000
  C   C251      1.0  0.31134  0.54491  0.68988  1.0000
  C   C252      1.0  0.16099  0.52298  0.54426  1.0000
  H   H457      1.0  0.23957  0.60117  0.59937  1.0000
  H   H458      1.0  0.00417  0.56790  0.95001  1.0000
  C   C253      1.0  0.31506  0.51153  0.74381  1.0000
  C   C254      1.0  0.04841  0.62385  0.99836  1.0000
  C   C255      1.0  0.17936  0.71332  0.73453  1.0000
  H   H459      1.0  0.28171  0.52092  0.66864  1.0000
  C   C256      1.0  0.01221  0.60062  0.87433  1.0000
  H   H460      1.0  0.31546  0.55397  0.71595  1.0000
  C   C257      1.0  0.28889  0.71620  0.54867  1.0000
  C   C258      1.0  0.18369  0.66703  0.51953  1.0000
  H   H461      1.0  0.15003  0.53102  0.54335  1.0000
  C   C259      1.0  0.17282  0.64572  0.52066  1.0000
  H   H462      1.0  0.25874  0.53777  0.69028  1.0000
  H   H463      1.0  0.25074  0.71888  0.76383  1.0000
  C   C260      1.0  0.31595  0.51153  0.70156  1.0000
  H   H464      1.0  0.22925  0.65716  0.53733  1.0000
  H   H465      1.0  0.19909  0.72762  0.91003  1.0000
  H   H466      1.0  0.30056  0.50284  0.63096  1.0000
  H   H467      1.0  0.29697  0.69863  0.50778  1.0000
  C   C261      1.0  0.26452  0.73273  0.62088  1.0000
  H   H468      1.0  0.18768  0.54888  0.52720  1.0000
  H   H469      1.0  0.30900  0.52304  0.75414  1.0000
  H   H470      1.0  0.26658  0.74483  0.71713  1.0000
  C   C262      1.0  0.01516  0.63163  0.96702  1.0000
  H   H471      1.0  0.23707  0.74265  0.54949  1.0000
  C   C263      1.0  0.31558  0.51588  0.58159  1.0000
  C   C264      1.0  0.05283  0.64170  0.97762  1.0000
  C   C265      1.0  0.03590  0.64532  0.96198  1.0000
  H   H472      1.0  0.99522  0.54019  0.94598  1.0000
  H   H473      1.0  0.22526  0.56456  0.51661  1.0000
  H   H474      1.0  0.21686  0.50016  0.53946  1.0000
  H   H475      1.0  0.99791  0.57762  0.83283  1.0000
  C   C266      1.0  0.22766  0.54983  0.52023  1.0000
  H   H476      1.0  0.14561  0.55738  0.50790  1.0000
  C   C267      1.0  0.15283  0.57430  0.50463  1.0000
  H   H477      1.0  0.24121  0.51642  0.52082  1.0000
  H   H478      1.0  0.32296  0.53115  0.56874  1.0000
  H   H479      1.0  0.24465  0.55409  0.51788  1.0000
  N   N15       1.0  0.32486  0.53258  0.68473  1.0000
  H   H480      1.0  0.32521  0.50227  0.69398  1.0000
  H   H481      1.0  0.27158  0.77457  0.12256  1.0000
  H   H482      1.0  0.28355  0.76252  0.09347  1.0000
  C   C268      1.0  0.27299  0.80603  0.08017  1.0000
  H   H483      1.0  0.26973  0.79942  0.17431  1.0000
  H   H484      1.0  0.30890  0.77215  0.05105  1.0000
  C   C269      1.0  0.26658  0.79211  0.20140  1.0000
  C   C270      1.0  0.26107  0.77298  0.38722  1.0000
  C   C271      1.0  0.30563  0.77620  0.47543  1.0000
  H   H485      1.0  0.28516  0.79601  0.01304  1.0000
  H   H486      1.0  0.28776  0.80036  0.44152  1.0000
  H   H487      1.0  0.25191  0.77526  0.02602  1.0000
  H   H488      1.0  0.26879  0.75360  0.42536  1.0000
  C   C272      1.0  0.27508  0.76997  0.41718  1.0000
  N   N16       1.0  0.27594  0.78670  0.06815  1.0000
  H   H489      1.0  0.26731  0.78922  0.37800  1.0000
  H   H490      1.0  0.26043  0.76278  0.36351  1.0000
  H   H491      1.0  0.30530  0.80651  0.04591  1.0000
  S   S56       1.0  0.32215  0.81853  0.37696  1.0000
  H   H492      1.0  0.31575  0.78933  0.45921  1.0000
  C   C273      1.0  0.25596  0.77072  0.05317  1.0000
  C   C274      1.0  0.29176  0.79218  0.03852  1.0000
  H   H493      1.0  0.28503  0.90121  0.02902  1.0000
  H   H494      1.0  0.27591  0.82216  0.02817  1.0000
  C   C275      1.0  0.30396  0.79160  0.11871  1.0000
  H   H495      1.0  0.20626  0.74580  0.22394  1.0000
  H   H496      1.0  0.26038  0.80131  0.21903  1.0000
  H   H497      1.0  0.27608  0.84675  0.07783  1.0000
  C   C276      1.0  0.26466  0.81665  0.05039  1.0000
  H   H498      1.0  0.25600  0.84305  0.04377  1.0000
  H   H499      1.0  0.24968  0.80606  0.03841  1.0000
  H   H500      1.0  0.28796  0.81785  0.08989  1.0000
  H   H501      1.0  0.23345  0.75815  0.30652  1.0000
  C   C277      1.0  0.28298  0.77778  0.10062  1.0000
  C   C278      1.0  0.25112  0.76982  0.19733  1.0000
  H   H502      1.0  0.30811  0.76074  0.31320  1.0000
  C   C279      1.0  0.24560  0.75968  0.23497  1.0000
  H   H503      1.0  0.31355  0.76662  0.13529  1.0000
  H   H504      1.0  0.26037  0.76258  0.25051  1.0000
  C   C280      1.0  0.26138  0.83545  0.06597  1.0000
  H   H505      1.0  0.29048  0.77320  0.40513  1.0000
  H   H506      1.0  0.28723  0.76067  0.01992  1.0000
  C   C281      1.0  0.31727  0.91386  0.04669  1.0000
  H   H507      1.0  0.30238  0.80504  0.13257  1.0000
  C   C282      1.0  0.27742  0.78471  0.45030  1.0000
  H   H508      1.0  0.26277  0.80303  0.10409  1.0000
  H   H509      1.0  0.24945  0.83076  0.08724  1.0000
  H   H510      1.0  0.25828  0.76154  0.17984  1.0000
  H   H511      1.0  0.25785  0.75585  0.04803  1.0000
  H   H512      1.0  0.30209  0.76233  0.45749  1.0000
  C   C283      1.0  0.29466  0.90009  0.05271  1.0000
  S   S57       1.0  0.32120  0.75113  0.24382  1.0000
  H   H513      1.0  0.27422  0.74592  0.49173  1.0000
  H   H514      1.0  0.24513  0.76903  0.39716  1.0000
  C   C284      1.0  0.24767  0.75412  0.49560  1.0000
  H   H515      1.0  0.24306  0.74878  0.46710  1.0000
  H   H516      1.0  0.23242  0.77951  0.08026  1.0000
  H   H517      1.0  0.28148  0.79260  0.21345  1.0000
  H   H518      1.0  0.28894  0.90507  0.07767  1.0000
  C   C285      1.0  0.31090  0.77991  0.14771  1.0000
  H   H519      1.0  0.31641  0.79733  0.09861  1.0000
  H   H520      1.0  0.23704  0.77026  0.18352  1.0000
  S   S58       1.0  0.31528  0.80144  0.27407  1.0000
  C   C286      1.0  0.30006  0.77527  0.02800  1.0000
  H   H521      1.0  0.23782  0.76874  0.24923  1.0000
  H   H522      1.0  0.31888  0.85555  0.07015  1.0000
  N   N17       1.0  0.28589  0.77909  0.48497  1.0000
  C   C287      1.0  0.21795  0.74827  0.06113  1.0000
  C   C288      1.0  0.23674  0.76586  0.07748  1.0000
  H   H523      1.0  0.29285  0.88373  0.05533  1.0000
  H   H524      1.0  0.31789  0.92989  0.04439  1.0000
  H   H525      1.0  0.26234  0.78609  0.45460  1.0000
  H   H526      1.0  0.21358  0.75254  0.03413  1.0000
  H   H527      1.0  0.31825  0.83318  0.44855  1.0000
  H   H528      1.0  0.31038  0.85540  0.13575  1.0000
  H   H529      1.0  0.23959  0.76111  0.10507  1.0000
  H   H530      1.0  0.29919  0.77426  0.16922  1.0000
  H   H531      1.0  0.32210  0.90933  0.02053  1.0000
  C   C289      1.0  0.32236  0.85014  0.12738  1.0000
  H   H532      1.0  0.24325  0.76751  0.50042  1.0000
  H   H533      1.0  0.30309  0.81092  0.50019  1.0000
  C   C290      1.0  0.18917  0.74836  0.85591  1.0000
  S   S59       1.0  0.25565  0.82586  0.95657  1.0000
  C   C291      1.0  0.28059  0.79947  0.78311  1.0000
  H   H534      1.0  0.21907  0.74885  0.96037  1.0000
  H   H535      1.0  0.29234  0.83511  0.53561  1.0000
  H   H536      1.0  0.26816  0.82574  0.55910  1.0000
  S   S60       1.0  0.30527  0.86495  0.90366  1.0000
  H   H537      1.0  0.31472  0.79591  0.76209  1.0000
  H   H538      1.0  0.18111  0.75716  0.84138  1.0000
  H   H539      1.0  0.30627  0.78389  0.97124  1.0000
  H   H540      1.0  0.26626  0.78088  0.83109  1.0000
  H   H541      1.0  0.22080  0.75622  0.87777  1.0000
  S   S61       1.0  0.31273  0.82774  0.94881  1.0000
  H   H542      1.0  0.23312  0.79315  0.87225  1.0000
  H   H543      1.0  0.24474  0.75216  0.71596  1.0000
  H   H544      1.0  0.25070  0.78123  0.95455  1.0000
  C   C292      1.0  0.19811  0.76474  0.96601  1.0000
  H   H545      1.0  0.26341  0.78998  0.71537  1.0000
  C   C293      1.0  0.21638  0.78432  0.86686  1.0000
  H   H546      1.0  0.29361  0.80212  0.64926  1.0000
  H   H547      1.0  0.30932  0.76241  0.52747  1.0000
  H   H548      1.0  0.27602  0.81429  0.66258  1.0000
  H   H549      1.0  0.27808  0.80917  0.87646  1.0000
  C   C294      1.0  0.21775  0.76373  0.96147  1.0000
  H   H550      1.0  0.29416  0.82315  0.72324  1.0000
  H   H551      1.0  0.21107  0.79169  0.84426  1.0000
  H   H552      1.0  0.18208  0.78544  0.97123  1.0000
  H   H553      1.0  0.28918  0.81882  0.57491  1.0000
  C   C295      1.0  0.21470  0.80237  0.96508  1.0000
  H   H554      1.0  0.27935  0.77753  0.69869  1.0000
  Fe  Fe27      1.0  0.29064  0.84387  0.95042  1.0000
  C   C296      1.0  0.28512  0.74603  0.62652  1.0000
  C   C297      1.0  0.23576  0.78214  0.95838  1.0000
  C   C298      1.0  0.30190  0.78066  0.76398  1.0000
  N   N18       1.0  0.28138  0.78271  0.75754  1.0000
  H   H555      1.0  0.25020  0.76599  0.77603  1.0000
  C   C299      1.0  0.21264  0.76194  0.85693  1.0000
  H   H556      1.0  0.26479  0.81596  0.83928  1.0000
  H   H557      1.0  0.26460  0.80586  0.50247  1.0000
  S   S62       1.0  0.29469  0.76849  0.60073  1.0000
  C   C300      1.0  0.29140  0.79690  0.51187  1.0000
  H   H558      1.0  0.27430  0.75979  0.53166  1.0000
  H   H559      1.0  0.26278  0.78987  0.54187  1.0000
  H   H560      1.0  0.20795  0.78513  0.89177  1.0000
  H   H561      1.0  0.29869  0.79372  0.53701  1.0000
  H   H562      1.0  0.21316  0.81717  0.96654  1.0000
  H   H563      1.0  0.30328  0.82935  0.65938  1.0000
  C   C301      1.0  0.29518  0.81011  0.70709  1.0000
  C   C302      1.0  0.28133  0.82176  0.55022  1.0000
  S   S63       1.0  0.30974  0.86763  0.99240  1.0000
  H   H564      1.0  0.21989  0.76191  0.83037  1.0000
  C   C303      1.0  0.23425  0.80165  0.96020  1.0000
  C   C304      1.0  0.29172  0.81413  0.66713  1.0000
  C   C305      1.0  0.27877  0.81285  0.84701  1.0000
  C   C306      1.0  0.27895  0.78916  0.71909  1.0000
  H   H565      1.0  0.29273  0.82701  0.84288  1.0000
  H   H566      1.0  0.29408  0.79255  0.83387  1.0000
  H   H567      1.0  0.32112  0.77003  0.99001  1.0000
  H   H568      1.0  0.26690  0.80337  0.77616  1.0000
  H   H569      1.0  0.29444  0.81394  0.77991  1.0000
  C   C307      1.0  0.27991  0.79482  0.82453  1.0000
  H   H570      1.0  0.31104  0.81030  0.71007  1.0000
  H   H571      1.0  0.31363  0.75110  0.65592  1.0000
  C   C308      1.0  0.27334  0.80257  0.52542  1.0000
  H   H572      1.0  0.26823  0.75483  0.78889  1.0000
  C   C309      1.0  0.26367  0.76275  0.76607  1.0000
  H   H573      1.0  0.18372  0.74747  0.88446  1.0000
  C   C310      1.0  0.30677  0.76536  0.73888  1.0000
  C   C311      1.0  0.27123  0.75949  0.50177  1.0000
  H   H574      1.0  0.30309  0.77556  0.79220  1.0000
  C   C312      1.0  0.19695  0.78426  0.96774  1.0000
  H   H575      1.0  0.30598  0.76923  0.70990  1.0000
  C   C313      1.0  0.31469  0.78197  0.99601  1.0000
  C   C314      1.0  0.25457  0.74686  0.73416  1.0000
  C   C315      1.0  0.31897  0.77368  0.50779  1.0000
  H   H576      1.0  0.29593  0.74936  0.74365  1.0000
  C   C316      1.0  0.61884  0.18925  0.25080  1.0000
  Fe  Fe28      1.0  0.53739  0.16628  0.25494  1.0000
  S   S64       1.0  0.50570  0.16403  0.27024  1.0000
  S   S65       1.0  0.56208  0.19110  0.22532  1.0000
  Fe  Fe29      1.0  0.53060  0.12350  0.28161  1.0000
  S   S66       1.0  0.49824  0.11723  0.29931  1.0000
  S   S67       1.0  0.54714  0.10201  0.29090  1.0000
  Fe  Fe30      1.0  0.49501  0.13188  0.24615  1.0000
  S   S68       1.0  0.46681  0.11841  0.20855  1.0000
  Fe  Fe31      1.0  0.51176  0.14964  0.32172  1.0000
  S   S69       1.0  0.50765  0.16154  0.37723  1.0000
  S   S70       1.0  0.52629  0.13541  0.22708  1.0000
  S   S71       1.0  0.54444  0.15472  0.30795  1.0000
  H   H577      1.0  0.53236  0.12317  0.45689  1.0000
  S   S72       1.0  0.63820  0.14343  0.23397  1.0000
  C   C317      1.0  0.61551  0.18598  0.31707  1.0000
  C   C318      1.0  0.55958  0.13990  0.14318  1.0000
  H   H578      1.0  0.61606  0.04774  0.49023  1.0000
  H   H579      1.0  0.56640  0.11304  0.13196  1.0000
  C   C319      1.0  0.44739  0.17483  0.05584  1.0000
  H   H580      1.0  0.59539  0.20653  0.28018  1.0000
  H   H581      1.0  0.56992  0.14893  0.12162  1.0000
  C   C320      1.0  0.46967  0.11275  0.16233  1.0000
  C   C321      1.0  0.45223  0.10059  0.14126  1.0000
  C   C322      1.0  0.45415  0.09593  0.10437  1.0000
  C   C323      1.0  0.47358  0.10341  0.08841  1.0000
  C   C324      1.0  0.49090  0.11582  0.10933  1.0000
  C   C325      1.0  0.48897  0.12047  0.14604  1.0000
  H   H582      1.0  0.43721  0.09457  0.15361  1.0000
  H   H583      1.0  0.44073  0.08619  0.08857  1.0000
  H   H584      1.0  0.50595  0.12180  0.09707  1.0000
  H   H585      1.0  0.50244  0.13012  0.16158  1.0000
  C   C326      1.0  0.50158  0.14525  0.41524  1.0000
  C   C327      1.0  0.49379  0.12379  0.41117  1.0000
  C   C328      1.0  0.50476  0.15412  0.45037  1.0000
  H   H586      1.0  0.49097  0.11681  0.38421  1.0000
  H   H587      1.0  0.51070  0.17071  0.45377  1.0000
  C   C329      1.0  0.61284  0.13092  0.24910  1.0000
  C   C330      1.0  0.60832  0.11646  0.27695  1.0000
  C   C331      1.0  0.58802  0.10725  0.28936  1.0000
  C   C332      1.0  0.57243  0.11316  0.27503  1.0000
  C   C333      1.0  0.57711  0.12803  0.24800  1.0000
  C   C334      1.0  0.59710  0.13640  0.23433  1.0000
  H   H588      1.0  0.62040  0.11235  0.28898  1.0000
  H   H589      1.0  0.58452  0.09580  0.31038  1.0000
  H   H590      1.0  0.56533  0.13297  0.23724  1.0000
  H   H591      1.0  0.58480  0.18040  0.41832  1.0000
  H   H592      1.0  0.53246  0.07295  0.40400  1.0000
  H   H593      1.0  0.45666  0.13013  0.04812  1.0000
  C   C335      1.0  0.58078  0.23214  0.21542  1.0000
  C   C336      1.0  0.56494  0.21675  0.23315  1.0000
  C   C337      1.0  0.55207  0.22213  0.25655  1.0000
  H   H594      1.0  0.49987  0.24167  0.41190  1.0000
  H   H595      1.0  0.57237  0.08118  0.14846  1.0000
  H   H596      1.0  0.59054  0.22808  0.19687  1.0000
  H   H597      1.0  0.53976  0.21024  0.27028  1.0000
  H   H598      1.0  0.48802  0.15660  0.07019  1.0000
  N   N19       1.0  0.53174  0.08072  0.16191  1.0000
  C   C338      1.0  0.53168  0.07235  0.12385  1.0000
  C   C339      1.0  0.54622  0.07466  0.18602  1.0000
  C   C340      1.0  0.51015  0.07026  0.17625  1.0000
  C   C341      1.0  0.53745  0.10380  0.16334  1.0000
  H   H599      1.0  0.60046  0.14743  0.21268  1.0000
  C   C342      1.0  0.51609  0.07559  0.09601  1.0000
  C   C343      1.0  0.50726  0.07479  0.21687  1.0000
  H   H600      1.0  0.49094  0.13788  0.01357  1.0000
  S   S73       1.0  0.47736  0.09704  0.04317  1.0000
  C   C344      1.0  0.48445  0.06913  0.22540  1.0000
  H   H601      1.0  0.52893  0.05560  0.12467  1.0000
  H   H602      1.0  0.54715  0.07933  0.11171  1.0000
  H   H603      1.0  0.54555  0.07943  0.21483  1.0000
  H   H604      1.0  0.54127  0.05754  0.18603  1.0000
  H   H605      1.0  0.50488  0.05318  0.17296  1.0000
  H   H606      1.0  0.49894  0.07477  0.16006  1.0000
  H   H607      1.0  0.52340  0.10763  0.16075  1.0000
  H   H608      1.0  0.54430  0.10999  0.19058  1.0000
  H   H609      1.0  0.51052  0.08764  0.10522  1.0000
  H   H610      1.0  0.52412  0.08118  0.07003  1.0000
  H   H611      1.0  0.51558  0.09127  0.22414  1.0000
  H   H612      1.0  0.51327  0.06555  0.23488  1.0000
  H   H613      1.0  0.54608  0.14461  0.14462  1.0000
  H   H614      1.0  0.56829  0.14368  0.16961  1.0000
  H   H615      1.0  0.64192  0.04355  0.07818  1.0000
  H   H616      1.0  0.65087  0.22915  0.28014  1.0000
  C   C345      1.0  0.47896  0.23230  0.23539  1.0000
  H   H617      1.0  0.48292  0.07200  0.25481  1.0000
  H   H618      1.0  0.47792  0.07875  0.20945  1.0000
  H   H619      1.0  0.47543  0.05258  0.21900  1.0000
  H   H620      1.0  0.50094  0.21110  0.43074  1.0000
  H   H621      1.0  0.47885  0.21397  0.32144  1.0000
  H   H622      1.0  0.61773  0.22691  0.26468  1.0000
  H   H623      1.0  0.64468  0.12209  0.46656  1.0000
  H   H624      1.0  0.63823  0.21596  0.21863  1.0000
  C   C346      1.0  0.51976  0.21451  0.16688  1.0000
  H   H625      1.0  0.63405  0.05989  0.02426  1.0000
  H   H626      1.0  0.55200  0.21787  0.34955  1.0000
  C   C347      1.0  0.49301  0.15438  0.01313  1.0000
  H   H627      1.0  0.51515  0.22554  0.33369  1.0000
  H   H628      1.0  0.54285  0.14776  0.39351  1.0000
  C   C348      1.0  0.50164  0.19344  0.17166  1.0000
  C   C349      1.0  0.50934  0.17582  0.17445  1.0000
  C   C350      1.0  0.50060  0.14162  0.48130  1.0000
  H   H629      1.0  0.45179  0.17788  0.02680  1.0000
  H   H630      1.0  0.49282  0.21378  0.11054  1.0000
  H   H631      1.0  0.43202  0.20766  0.47950  1.0000
  H   H632      1.0  0.53097  0.21203  0.14805  1.0000
  H   H633      1.0  0.52844  0.21871  0.19331  1.0000
  H   H634      1.0  0.48155  0.21875  0.16912  1.0000
  H   H635      1.0  0.53190  0.21587  0.40679  1.0000
  H   H636      1.0  0.60420  0.21777  0.34387  1.0000
  H   H637      1.0  0.46925  0.21558  0.23381  1.0000
  C   C351      1.0  0.64902  0.05779  0.02618  1.0000
  C   C352      1.0  0.55183  0.23181  0.36405  1.0000
  H   H638      1.0  0.48720  0.05914  0.06666  1.0000
  H   H639      1.0  0.57755  0.05855  0.19550  1.0000
  H   H640      1.0  0.58786  0.23727  0.30765  1.0000
  H   H641      1.0  0.49330  0.19378  0.19700  1.0000
  H   H642      1.0  0.49034  0.18965  0.14862  1.0000
  H   H643      1.0  0.52109  0.17899  0.19670  1.0000
  H   H644      1.0  0.49622  0.16131  0.18054  1.0000
  H   H645      1.0  0.51623  0.17364  0.14846  1.0000
  C   C353      1.0  0.61211  0.21537  0.28658  1.0000
  C   C354      1.0  0.43570  0.20515  0.05583  1.0000
  H   H646      1.0  0.45773  0.18264  0.28287  1.0000
  H   H647      1.0  0.48829  0.04949  0.11148  1.0000
  N   N20       1.0  0.55415  0.11560  0.42441  1.0000
  H   H648      1.0  0.51903  0.22355  0.09852  1.0000
  C   C355      1.0  0.53745  0.10575  0.39578  1.0000
  C   C356      1.0  0.56791  0.10354  0.42909  1.0000
  H   H649      1.0  0.56531  0.23754  0.38333  1.0000
  H   H650      1.0  0.50980  0.16383  0.01622  1.0000
  C   C357      1.0  0.57723  0.09876  0.39369  1.0000
  C   C358      1.0  0.52335  0.08287  0.40174  1.0000
  C   C359      1.0  0.50787  0.07449  0.36996  1.0000
  H   H651      1.0  0.64346  0.01888  0.11588  1.0000
  N   N21       1.0  0.51367  0.23179  0.15351  1.0000
  H   H652      1.0  0.62738  0.16252  0.29847  1.0000
  H   H653      1.0  0.52697  0.11429  0.39380  1.0000
  H   H654      1.0  0.54421  0.10699  0.36830  1.0000
  H   H655      1.0  0.45081  0.17908  0.47305  1.0000
  C   C360      1.0  0.56718  0.13706  0.41229  1.0000
  H   H656      1.0  0.58170  0.14364  0.42904  1.0000
  H   H657      1.0  0.57224  0.13647  0.38392  1.0000
  H   H658      1.0  0.55145  0.15525  0.43980  1.0000
  H   H659      1.0  0.56296  0.18476  0.39863  1.0000
  H   H660      1.0  0.49770  0.05824  0.37508  1.0000
  H   H661      1.0  0.58613  0.11308  0.37922  1.0000
  H   H662      1.0  0.56495  0.08859  0.37480  1.0000
  H   H663      1.0  0.59863  0.08479  0.37651  1.0000
  H   H664      1.0  0.51426  0.08129  0.42680  1.0000
  H   H665      1.0  0.57564  0.10106  0.18252  1.0000
  H   H666      1.0  0.51607  0.07492  0.34414  1.0000
  H   H667      1.0  0.64190  0.17868  0.33584  1.0000
  C   C361      1.0  0.55247  0.11685  0.13423  1.0000
  N   N22       1.0  0.44398  0.15274  0.06516  1.0000
  S   S74       1.0  0.65732  0.10484  0.28600  1.0000
  C   C362      1.0  0.56950  0.08418  0.17711  1.0000
  C   C363      1.0  0.48133  0.15950  0.04411  1.0000
  H   H668      1.0  0.54464  0.11421  0.10704  1.0000
  H   H669      1.0  0.42517  0.10859  0.04942  1.0000
  H   H670      1.0  0.65038  0.21664  0.32191  1.0000
  H   H671      1.0  0.46626  0.16172  0.11001  1.0000
  C   C364      1.0  0.48893  0.20275  0.40974  1.0000
  C   C365      1.0  0.61411  0.15388  0.35037  1.0000
  C   C366      1.0  0.42190  0.13856  0.05640  1.0000
  H   H672      1.0  0.57660  0.17267  0.37151  1.0000
  C   C367      1.0  0.62616  0.17051  0.32378  1.0000
  C   C368      1.0  0.48958  0.11128  0.44213  1.0000
  C   C369      1.0  0.46792  0.19744  0.42833  1.0000
  C   C370      1.0  0.43700  0.15683  0.13329  1.0000
  H   H673      1.0  0.48574  0.18107  0.32379  1.0000
  H   H674      1.0  0.42164  0.17785  0.08702  1.0000
  H   H675      1.0  0.62746  0.20022  0.15807  1.0000
  H   H676      1.0  0.61256  0.16087  0.37687  1.0000
  H   H677      1.0  0.43670  0.13400  0.17332  1.0000
  H   H678      1.0  0.58704  0.03867  0.44650  1.0000
  H   H679      1.0  0.59878  0.08328  0.19601  1.0000
  N   N23       1.0  0.49207  0.21508  0.37537  1.0000
  C   C371      1.0  0.58203  0.07529  0.20131  1.0000
  H   H680      1.0  0.53526  0.10024  0.46966  1.0000
  S   S75       1.0  0.65175  0.11094  0.39431  1.0000
  C   C372      1.0  0.47327  0.24121  0.38003  1.0000
  H   H681      1.0  0.45264  0.14510  0.01233  1.0000
  H   H682      1.0  0.44665  0.21358  0.07819  1.0000
  C   C373      1.0  0.55652  0.15292  0.41223  1.0000
  H   H683      1.0  0.50258  0.04393  0.07494  1.0000
  H   H684      1.0  0.55955  0.08869  0.44286  1.0000
  C   C374      1.0  0.42891  0.18183  0.06017  1.0000
  H   H685      1.0  0.46061  0.23044  0.39615  1.0000
  H   H686      1.0  0.51253  0.20143  0.35218  1.0000
  C   C375      1.0  0.49745  0.05577  0.08697  1.0000
  C   C376      1.0  0.45422  0.17336  0.30802  1.0000
  H   H687      1.0  0.42018  0.14866  0.12810  1.0000
  H   H688      1.0  0.49800  0.08367  0.36691  1.0000
  H   H689      1.0  0.38310  0.10860  0.07241  1.0000
  H   H690      1.0  0.46805  0.23975  0.35098  1.0000
  C   C377      1.0  0.50739  0.22757  0.11373  1.0000
  H   H691      1.0  0.48366  0.09467  0.43883  1.0000
  N   N24       1.0  0.62380  0.20105  0.28662  1.0000
  H   H692      1.0  0.46070  0.18576  0.07208  1.0000
  H   H693      1.0  0.41067  0.14346  0.07078  1.0000
  H   H694      1.0  0.42196  0.20949  0.05669  1.0000
  H   H695      1.0  0.45474  0.18965  0.40921  1.0000
  C   C378      1.0  0.49565  0.23289  0.17424  1.0000
  C   C379      1.0  0.49315  0.12014  0.47734  1.0000
  H   H696      1.0  0.59854  0.14466  0.33857  1.0000
  C   C380      1.0  0.44997  0.15128  0.10437  1.0000
  H   H697      1.0  0.48444  0.22510  0.04923  1.0000
  H   H698      1.0  0.48444  0.17620  0.04273  1.0000
  H   H699      1.0  0.45857  0.15823  0.17814  1.0000
  H   H700      1.0  0.44082  0.17372  0.13356  1.0000
  H   H701      1.0  0.46783  0.17203  0.36025  1.0000
  C   C381      1.0  0.64704  0.03996  0.05143  1.0000
  C   C382      1.0  0.54411  0.11614  0.46023  1.0000
  H   H702      1.0  0.61713  0.19419  0.34362  1.0000
  H   H703      1.0  0.53225  0.24122  0.39812  1.0000
  H   H704      1.0  0.63480  0.02600  0.03942  1.0000
  H   H705      1.0  0.58375  0.07289  0.41555  1.0000
  H   H706      1.0  0.44981  0.13565  0.10988  1.0000
  H   H707      1.0  0.46016  0.20438  0.35556  1.0000
  C   C383      1.0  0.59202  0.08784  0.40222  1.0000
  C   C384      1.0  0.47540  0.20476  0.34680  1.0000
  H   H708      1.0  0.44317  0.21004  0.02922  1.0000
  C   C385      1.0  0.44177  0.15102  0.17143  1.0000
  H   H709      1.0  0.41843  0.11343  0.09481  1.0000
  H   H710      1.0  0.38992  0.10412  0.02665  1.0000
  H   H711      1.0  0.49124  0.18817  0.40454  1.0000
  C   C386      1.0  0.41601  0.11546  0.06539  1.0000
  C   C387      1.0  0.47187  0.18214  0.33618  1.0000
  H   H712      1.0  0.60506  0.09766  0.42022  1.0000
  H   H713      1.0  0.45223  0.15728  0.30064  1.0000
  H   H714      1.0  0.38949  0.08649  0.06227  1.0000
  C   C388      1.0  0.45783  0.14597  0.04142  1.0000
  H   H715      1.0  0.61089  0.20868  0.21170  1.0000
  H   H716      1.0  0.59861  0.17708  0.31238  1.0000
  H   H717      1.0  0.46667  0.21166  0.43952  1.0000
  H   H718      1.0  0.41839  0.13945  0.02690  1.0000
  C   C389      1.0  0.62329  0.20262  0.21612  1.0000
  C   C390      1.0  0.46601  0.18290  0.46011  1.0000
  H   H719      1.0  0.57958  0.07761  0.23056  1.0000
  C   C391      1.0  0.49338  0.23679  0.38386  1.0000
  H   H720      1.0  0.43947  0.17312  0.31926  1.0000
  C   C392      1.0  0.57122  0.17396  0.39937  1.0000
  H   H721      1.0  0.60819  0.17766  0.17694  1.0000
  H   H722      1.0  0.64544  0.04290  0.16694  1.0000
  C   C393      1.0  0.62362  0.19004  0.18206  1.0000
  H   H723      1.0  0.46705  0.16826  0.45030  1.0000
  H   H724      1.0  0.41686  0.17423  0.03880  1.0000
  H   H725      1.0  0.62240  0.14331  0.35515  1.0000
  H   H726      1.0  0.62718  0.17866  0.24866  1.0000
  C   C394      1.0  0.51251  0.21679  0.35959  1.0000
  H   H727      1.0  0.43327  0.15632  0.19193  1.0000
  C   C395      1.0  0.39323  0.10299  0.05609  1.0000
  H   H728      1.0  0.58125  0.11209  0.44764  1.0000
  H   H729      1.0  0.60212  0.17904  0.24913  1.0000
  C   C396      1.0  0.53185  0.22677  0.38501  1.0000
  H   H730      1.0  0.50695  0.22701  0.22845  1.0000
  H   H731      1.0  0.47843  0.19019  0.48098  1.0000
  H   H732      1.0  0.56914  0.14326  0.48539  1.0000
  H   H733      1.0  0.63544  0.18305  0.18512  1.0000
  C   C397      1.0  0.64666  0.21360  0.29226  1.0000
  H   H734      1.0  0.57117  0.04455  0.47951  1.0000
  C   C398      1.0  0.61340  0.22793  0.32226  1.0000
  H   H735      1.0  0.62963  0.23568  0.33221  1.0000
  H   H736      1.0  0.57922  0.02306  0.48641  1.0000
  C   C399      1.0  0.55527  0.24306  0.26216  1.0000
  C   C400      1.0  0.58400  0.03901  0.47606  1.0000
  H   H737      1.0  0.51179  0.23675  0.03968  1.0000
  H   H738      1.0  0.48219  0.23711  0.26451  1.0000
  C   C401      1.0  0.60437  0.24448  0.31642  1.0000
  C   C402      1.0  0.60356  0.05337  0.49618  1.0000
  C   C403      1.0  0.49933  0.23673  0.21599  1.0000
  C   C404      1.0  0.55902  0.12730  0.49231  1.0000
  H   H739      1.0  0.47026  0.24109  0.22295  1.0000
  C   C405      1.0  0.65263  0.99966  0.06160  1.0000
  H   H740      1.0  0.63640  0.99842  0.06486  1.0000
  H   H741      1.0  0.65498  0.99978  0.03165  1.0000
  H   H742      1.0  0.60799  0.06878  0.48408  1.0000
  H   H743      1.0  0.65795  0.18810  0.28233  1.0000
  H   H744      1.0  0.65764  0.15551  0.41400  1.0000
  C   C406      1.0  0.49866  0.23923  0.05266  1.0000
  H   H745      1.0  0.65787  0.02806  0.19111  1.0000
  H   H746      1.0  0.55819  0.24336  0.14653  1.0000
  H   H747      1.0  0.55346  0.24412  0.34410  1.0000
  C   C407      1.0  0.50351  0.24501  0.09301  1.0000
  H   H748      1.0  0.56889  0.11869  0.50002  1.0000
  S   S76       1.0  0.62378  0.10543  0.66113  1.0000
  Fe  Fe32      1.0  0.49621  0.11756  0.57296  1.0000
  S   S77       1.0  0.51609  0.15070  0.58348  1.0000
  H   H749      1.0  0.37519  0.13813  0.95200  1.0000
  Fe  Fe33      1.0  0.49075  0.10860  0.65551  1.0000
  S   S78       1.0  0.51117  0.14106  0.67134  1.0000
  S   S79       1.0  0.47071  0.08547  0.69614  1.0000
  Fe  Fe34      1.0  0.49380  0.14992  0.62702  1.0000
  S   S80       1.0  0.48069  0.17418  0.63779  1.0000
  Fe  Fe35      1.0  0.53165  0.13859  0.62633  1.0000
  S   S81       1.0  0.56644  0.15418  0.62462  1.0000
  S   S82       1.0  0.47234  0.11774  0.61299  1.0000
  S   S83       1.0  0.51284  0.10515  0.61386  1.0000
  H   H750      1.0  0.60083  0.03150  0.65195  1.0000
  C   C408      1.0  0.37589  0.03504  0.84850  1.0000
  Fe  Fe36      1.0  0.45353  0.08571  0.91288  1.0000
  S   S84       1.0  0.41880  0.07263  0.90835  1.0000
  S   S85       1.0  0.47780  0.09661  0.86896  1.0000
  Fe  Fe37      1.0  0.42096  0.09617  0.95298  1.0000
  S   S86       1.0  0.40342  0.11806  0.95103  1.0000
  Fe  Fe38      1.0  0.41941  0.05093  0.95384  1.0000
  C   C409      1.0  0.59624  0.05559  0.61977  1.0000
  S   S87       1.0  0.45537  0.11003  0.95468  1.0000
  S   S88       1.0  0.45441  0.06323  0.95546  1.0000
  H   H751      1.0  0.41100  0.20154  0.51071  1.0000
  H   H752      1.0  0.40104  0.24155  0.81401  1.0000
  H   H753      1.0  0.64975  0.08811  0.56188  1.0000
  C   C410      1.0  0.40790  0.14496  0.95461  1.0000
  H   H754      1.0  0.40845  0.04575  0.84011  1.0000
  H   H755      1.0  0.62925  0.07332  0.61609  1.0000
  C   C411      1.0  0.62091  0.19923  0.66555  1.0000
  C   C412      1.0  0.47257  0.08959  0.74400  1.0000
  C   C413      1.0  0.49109  0.10216  0.76135  1.0000
  C   C414      1.0  0.49235  0.10409  0.79963  1.0000
  C   C415      1.0  0.47505  0.09381  0.82093  1.0000
  C   C416      1.0  0.45631  0.08180  0.80353  1.0000
  C   C417      1.0  0.45515  0.07959  0.76523  1.0000
  H   H756      1.0  0.50461  0.10989  0.74534  1.0000
  H   H757      1.0  0.50689  0.11345  0.81286  1.0000
  H   H758      1.0  0.44280  0.07421  0.81956  1.0000
  H   H759      1.0  0.44070  0.07016  0.75185  1.0000
  H   H760      1.0  0.39246  0.02935  0.80402  1.0000
  H   H761      1.0  0.43813  0.21643  0.78752  1.0000
  C   C418      1.0  0.47509  0.22654  0.90719  1.0000
  H   H762      1.0  0.65722  0.16961  0.72044  1.0000
  S   S89       1.0  0.41180  0.21248  0.96677  1.0000
  C   C419      1.0  0.60728  0.11792  0.64793  1.0000
  C   C420      1.0  0.61434  0.13538  0.62630  1.0000
  C   C421      1.0  0.60129  0.14587  0.61792  1.0000
  C   C422      1.0  0.58117  0.13898  0.63124  1.0000
  C   C423      1.0  0.57376  0.12096  0.65148  1.0000
  C   C424      1.0  0.58683  0.11042  0.65979  1.0000
  H   H763      1.0  0.62994  0.14092  0.61647  1.0000
  H   H764      1.0  0.60682  0.15948  0.60137  1.0000
  H   H765      1.0  0.55822  0.11554  0.66178  1.0000
  H   H766      1.0  0.58126  0.09680  0.67636  1.0000
  H   H767      1.0  0.47494  0.05264  0.83997  1.0000
  C   C425      1.0  0.53729  0.21962  0.64035  1.0000
  C   C426      1.0  0.52128  0.20017  0.63797  1.0000
  C   C427      1.0  0.50095  0.19813  0.64430  1.0000
  C   C428      1.0  0.49676  0.21539  0.65489  1.0000
  H   H768      1.0  0.41464  0.22041  0.78730  1.0000
  H   H769      1.0  0.55294  0.22124  0.63437  1.0000
  H   H770      1.0  0.52469  0.18687  0.63048  1.0000
  H   H771      1.0  0.48109  0.21373  0.66046  1.0000
  C   C429      1.0  0.59784  0.04584  0.65621  1.0000
  C   C430      1.0  0.65101  0.21199  0.70685  1.0000
  C   C431      1.0  0.39227  0.17079  0.95810  1.0000
  H   H772      1.0  0.37732  0.03753  0.87854  1.0000
  C   C432      1.0  0.42756  0.16102  0.95792  1.0000
  H   H773      1.0  0.47288  0.05139  0.88901  1.0000
  H   H774      1.0  0.58312  0.04193  0.67091  1.0000
  H   H775      1.0  0.62350  0.10160  0.50982  1.0000
  H   H776      1.0  0.63985  0.13359  0.73980  1.0000
  H   H777      1.0  0.41341  0.15091  0.83591  1.0000
  H   H778      1.0  0.37839  0.17422  0.95813  1.0000
  H   H779      1.0  0.65067  0.21522  0.61527  1.0000
  H   H780      1.0  0.43707  0.04073  0.84590  1.0000
  H   H781      1.0  0.59814  0.03779  0.54717  1.0000
  C   C433      1.0  0.58853  0.20736  0.67229  1.0000
  H   H782      1.0  0.61498  0.13403  0.72754  1.0000
  S   S90       1.0  0.40596  0.01485  0.95510  1.0000
  H   H783      1.0  0.59385  0.18274  0.69902  1.0000
  H   H784      1.0  0.49942  0.21794  0.53238  1.0000
  H   H785      1.0  0.45092  0.22652  0.65299  1.0000
  H   H786      1.0  0.48743  0.15771  0.98632  1.0000
  C   C434      1.0  0.42062  0.23731  0.85886  1.0000
  N   N25       1.0  0.46596  0.15059  0.76167  1.0000
  C   C435      1.0  0.46141  0.13789  0.72677  1.0000
  C   C436      1.0  0.48908  0.15951  0.76865  1.0000
  C   C437      1.0  0.45630  0.13606  0.79235  1.0000
  C   C438      1.0  0.45718  0.16730  0.76118  1.0000
  C   C439      1.0  0.45626  0.17722  0.72382  1.0000
  C   C440      1.0  0.43825  0.12438  0.71917  1.0000
  C   C441      1.0  0.46112  0.14531  0.83164  1.0000
  C   C442      1.0  0.50222  0.17552  0.74112  1.0000
  C   C443      1.0  0.52532  0.18053  0.74746  1.0000
  H   H787      1.0  0.40246  0.99771  0.78993  1.0000
  C   C444      1.0  0.43418  0.11698  0.67951  1.0000
  C   C445      1.0  0.44662  0.13097  0.85915  1.0000
  H   H788      1.0  0.46993  0.12728  0.72678  1.0000
  H   H789      1.0  0.46739  0.14766  0.70277  1.0000
  H   H790      1.0  0.49299  0.16768  0.79546  1.0000
  H   H791      1.0  0.49499  0.14677  0.77014  1.0000
  H   H792      1.0  0.46112  0.12266  0.79127  1.0000
  H   H793      1.0  0.43916  0.12949  0.78905  1.0000
  H   H794      1.0  0.44101  0.16127  0.77101  1.0000
  H   H795      1.0  0.46603  0.17993  0.78078  1.0000
  H   H796      1.0  0.44502  0.16591  0.70481  1.0000
  H   H797      1.0  0.47137  0.18292  0.71057  1.0000
  H   H798      1.0  0.43359  0.11042  0.73632  1.0000
  H   H799      1.0  0.42815  0.13289  0.72559  1.0000
  H   H800      1.0  0.45953  0.16045  0.83355  1.0000
  H   H801      1.0  0.47713  0.14731  0.84015  1.0000
  H   H802      1.0  0.49842  0.16999  0.71261  1.0000
  H   H803      1.0  0.49975  0.19018  0.74458  1.0000
  H   H804      1.0  0.52888  0.16646  0.74384  1.0000
  H   H805      1.0  0.53426  0.19206  0.72732  1.0000
  H   H806      1.0  0.53029  0.18708  0.77530  1.0000
  C   C446      1.0  0.39044  0.15019  0.95458  1.0000
  H   H807      1.0  0.62060  0.04768  0.59844  1.0000
  C   C447      1.0  0.64642  0.05719  0.54658  1.0000
  H   H808      1.0  0.44280  0.10695  0.67313  1.0000
  H   H809      1.0  0.41744  0.10781  0.67488  1.0000
  H   H810      1.0  0.43893  0.13027  0.66079  1.0000
  H   H811      1.0  0.44783  0.11562  0.85842  1.0000
  H   H812      1.0  0.45087  0.13762  0.88710  1.0000
  H   H813      1.0  0.43030  0.12883  0.85328  1.0000
  H   H814      1.0  0.43722  0.03419  0.72468  1.0000
  H   H815      1.0  0.65590  0.22658  0.69133  1.0000
  H   H816      1.0  0.64155  0.21430  0.72921  1.0000
  C   C448      1.0  0.42312  0.18421  0.83547  1.0000
  C   C449      1.0  0.41537  0.20117  0.84820  1.0000
  C   C450      1.0  0.40843  0.16295  0.84734  1.0000
  H   H817      1.0  0.62379  0.17827  0.73141  1.0000
  H   H818      1.0  0.48836  0.03969  0.86597  1.0000
  N   N26       1.0  0.63821  0.19400  0.68262  1.0000
  C   C451      1.0  0.43043  0.22605  0.80001  1.0000
  H   H819      1.0  0.44349  0.20634  0.90129  1.0000
  C   C452      1.0  0.39474  0.03158  0.83399  1.0000
  H   H820      1.0  0.42379  0.18383  0.80535  1.0000
  H   H821      1.0  0.43867  0.18671  0.84699  1.0000
  Fe  Fe39      1.0  0.65793  0.12083  0.65148  1.0000
  H   H822      1.0  0.53505  0.24256  0.51939  1.0000
  H   H823      1.0  0.41802  0.23337  0.88814  1.0000
  H   H824      1.0  0.40853  0.16197  0.87755  1.0000
  H   H825      1.0  0.39238  0.15975  0.83738  1.0000
  H   H826      1.0  0.58498  0.05485  0.54242  1.0000
  C   C453      1.0  0.45274  0.22273  0.89606  1.0000
  H   H827      1.0  0.36147  0.02156  0.84182  1.0000
  H   H828      1.0  0.38277  0.99916  0.84101  1.0000
  H   H829      1.0  0.63405  0.04212  0.53931  1.0000
  H   H830      1.0  0.36050  0.99934  0.94316  1.0000
  H   H831      1.0  0.64253  0.15325  0.68418  1.0000
  H   H832      1.0  0.60931  0.20809  0.71638  1.0000
  H   H833      1.0  0.57553  0.20597  0.69045  1.0000
  H   H834      1.0  0.40002  0.19743  0.83453  1.0000
  H   H835      1.0  0.37473  0.04893  0.83588  1.0000
  C   C454      1.0  0.60323  0.19880  0.69117  1.0000
  H   H836      1.0  0.63922  0.08064  0.51780  1.0000
  H   H837      1.0  0.43539  0.21846  0.56135  1.0000
  C   C455      1.0  0.61685  0.06176  0.59893  1.0000
  H   H838      1.0  0.59232  0.06915  0.62622  1.0000
  H   H839      1.0  0.47594  0.22323  0.93656  1.0000
  C   C456      1.0  0.47394  0.04284  0.86401  1.0000
  H   H840      1.0  0.62453  0.13134  0.54816  1.0000
  H   H841      1.0  0.63024  0.15035  0.76457  1.0000
  C   C457      1.0  0.42798  0.02011  0.73973  1.0000
  H   H842      1.0  0.59577  0.09008  0.51349  1.0000
  H   H843      1.0  0.61335  0.18840  0.64246  1.0000
  C   C458      1.0  0.64132  0.16081  0.71026  1.0000
  H   H844      1.0  0.38744  0.22125  0.84470  1.0000
  C   C459      1.0  0.62852  0.17452  0.70429  1.0000
  N   N27       1.0  0.61682  0.06975  0.56078  1.0000
  C   C460      1.0  0.42940  0.18193  0.96183  1.0000
  C   C461      1.0  0.39969  0.23686  0.84291  1.0000
  C   C462      1.0  0.45811  0.24359  0.65183  1.0000
  H   H845      1.0  0.61399  0.16399  0.69034  1.0000
  H   H846      1.0  0.41191  0.19916  0.87780  1.0000
  H   H847      1.0  0.42450  0.03747  0.78567  1.0000
  H   H848      1.0  0.44124  0.15733  0.95744  1.0000
  H   H849      1.0  0.45697  0.01459  0.83474  1.0000
  H   H850      1.0  0.59803  0.08673  0.57809  1.0000
  H   H851      1.0  0.43387  0.00783  0.73307  1.0000
  H   H852      1.0  0.62710  0.21487  0.65360  1.0000
  H   H853      1.0  0.53494  0.22452  0.55429  1.0000
  H   H854      1.0  0.53671  0.11299  0.53455  1.0000
  H   H855      1.0  0.47076  0.22553  0.59796  1.0000
  C   C463      1.0  0.63824  0.07497  0.54604  1.0000
  C   C464      1.0  0.53039  0.23769  0.54765  1.0000
  H   H856      1.0  0.44726  0.23239  0.91388  1.0000
  C   C465      1.0  0.41809  0.00538  0.80291  1.0000
  H   H857      1.0  0.48084  0.21634  0.89123  1.0000
  C   C466      1.0  0.45103  0.22802  0.85557  1.0000
  N   N28       1.0  0.42938  0.22312  0.84063  1.0000
  C   C467      1.0  0.63091  0.14371  0.73726  1.0000
  C   C468      1.0  0.44042  0.22268  0.53307  1.0000
  H   H858      1.0  0.44954  0.23977  0.73343  1.0000
  C   C469      1.0  0.54700  0.12862  0.52594  1.0000
  H   H859      1.0  0.44881  0.20190  0.70069  1.0000
  C   C470      1.0  0.45525  0.02255  0.86001  1.0000
  H   H860      1.0  0.59671  0.22391  0.66590  1.0000
  C   C471      1.0  0.61268  0.08938  0.56393  1.0000
  C   C472      1.0  0.53303  0.23704  0.64934  1.0000
  H   H861      1.0  0.43155  0.02903  0.88852  1.0000
  H   H862      1.0  0.50316  0.22572  0.57952  1.0000
  H   H863      1.0  0.44532  0.24517  0.59905  1.0000
  H   H864      1.0  0.58318  0.04429  0.60376  1.0000
  C   C473      1.0  0.39672  0.01229  0.85108  1.0000
  H   H865      1.0  0.46598  0.21316  0.53966  1.0000
  C   C474      1.0  0.60020  0.05356  0.53797  1.0000
  H   H866      1.0  0.44680  0.03091  0.78792  1.0000
  C   C475      1.0  0.43455  0.02602  0.85970  1.0000
  C   C476      1.0  0.61047  0.09962  0.52783  1.0000
  H   H867      1.0  0.46085  0.20774  0.74533  1.0000
  H   H868      1.0  0.61050  0.05686  0.67355  1.0000
  H   H869      1.0  0.60822  0.12783  0.50817  1.0000
  H   H870      1.0  0.53748  0.13789  0.52019  1.0000
  H   H871      1.0  0.64063  0.17744  0.63430  1.0000
  N   N29       1.0  0.41617  0.00850  0.84335  1.0000
  H   H872      1.0  0.44449  0.19414  0.96480  1.0000
  C   C477      1.0  0.41161  0.18690  0.96198  1.0000
  S   S91       1.0  0.48911  0.10395  0.51547  1.0000
  C   C478      1.0  0.46381  0.22730  0.53027  1.0000
  H   H873      1.0  0.62508  0.10098  0.58108  1.0000
  H   H874      1.0  0.59662  0.11984  0.55179  1.0000
  C   C479      1.0  0.44951  0.19543  0.72792  1.0000
  S   S92       1.0  0.41851  0.07346  0.99823  1.0000
  H   H875      1.0  0.41158  0.01512  0.73037  1.0000
  H   H876      1.0  0.45924  0.22027  0.83890  1.0000
  H   H877      1.0  0.58192  0.19859  0.64667  1.0000
  C   C480      1.0  0.47562  0.24227  0.59212  1.0000
  C   C481      1.0  0.50704  0.23118  0.55140  1.0000
  C   C482      1.0  0.60991  0.12096  0.53456  1.0000
  C   C483      1.0  0.43005  0.02489  0.78064  1.0000
  H   H878      1.0  0.55794  0.13616  0.54883  1.0000
  H   H879      1.0  0.50323  0.14864  0.50817  1.0000
  H   H880      1.0  0.43662  0.23605  0.52487  1.0000
  C   C484      1.0  0.51285  0.23489  0.65753  1.0000
  H   H881      1.0  0.39493  0.01319  0.88103  1.0000
  H   H882      1.0  0.43389  0.19037  0.73971  1.0000
  H   H883      1.0  0.65241  0.05599  0.57439  1.0000
  H   H884      1.0  0.45567  0.01276  0.88345  1.0000
  C   C485      1.0  0.65073  0.19038  0.65208  1.0000
  H   H885      1.0  0.43007  0.19025  0.51681  1.0000
  H   H886      1.0  0.65316  0.05453  0.99837  1.0000
  H   H887      1.0  0.46792  0.22847  0.50102  1.0000
  C   C486      1.0  0.42769  0.20442  0.50842  1.0000
  H   H888      1.0  0.48527  0.24286  0.90282  1.0000
  Fe  Fe40      1.0  0.45325  0.08648  0.99703  1.0000
  H   H889      1.0  0.42578  0.24457  0.73525  1.0000
  H   H890      1.0  0.46044  0.24482  0.85349  1.0000
  C   C487      1.0  0.56766  0.27618  0.14177  1.0000
  C   C488      1.0  0.38732  0.38745  0.09492  1.0000
  C   C489      1.0  0.43063  0.35401  0.06240  1.0000
  S   S93       1.0  0.38853  0.46690  0.27291  1.0000
  Fe  Fe41      1.0  0.36001  0.44456  0.24380  1.0000
  C   C490      1.0  0.40628  0.41419  0.14338  1.0000
  Fe  Fe42      1.0  0.37337  0.45325  0.32524  1.0000
  S   S94       1.0  0.39264  0.44636  0.36947  1.0000
  S   S95       1.0  0.34281  0.46599  0.24508  1.0000
  H   H891      1.0  0.42309  0.37258  0.02307  1.0000
  H   H892      1.0  0.36567  0.45857  0.41889  1.0000
  H   H893      1.0  0.56963  0.34761  0.14346  1.0000
  Fe  Fe43      1.0  0.54958  0.33414  0.30798  1.0000
  S   S96       1.0  0.51820  0.31602  0.33033  1.0000
  S   S97       1.0  0.56195  0.36893  0.31062  1.0000
  Fe  Fe44      1.0  0.55571  0.29535  0.28354  1.0000
  S   S98       1.0  0.52518  0.27434  0.30407  1.0000
  S   S99       1.0  0.57729  0.28484  0.25229  1.0000
  Fe  Fe45      1.0  0.51319  0.29681  0.27858  1.0000
  S   S100      1.0  0.48363  0.28597  0.24379  1.0000
  Fe  Fe46      1.0  0.53347  0.29558  0.35351  1.0000
  S   S101      1.0  0.53182  0.28215  0.41002  1.0000
  S   S102      1.0  0.54336  0.31656  0.25499  1.0000
  S   S103      1.0  0.56514  0.31495  0.33441  1.0000
  H   H894      1.0  0.61596  0.47258  0.45492  1.0000
  S   S104      1.0  0.48773  0.28744  0.07040  1.0000
  H   H895      1.0  0.49609  0.25199  0.03837  1.0000
  H   H896      1.0  0.50447  0.24806  0.36558  1.0000
  H   H897      1.0  0.36366  0.46382  0.08848  1.0000
  H   H898      1.0  0.59169  0.35508  0.41498  1.0000
  C   C491      1.0  0.40867  0.40224  0.10979  1.0000
  H   H899      1.0  0.39048  0.34821  0.04348  1.0000
  H   H900      1.0  0.48262  0.26590  0.42130  1.0000
  C   C492      1.0  0.48461  0.28541  0.19553  1.0000
  C   C493      1.0  0.50333  0.29004  0.17782  1.0000
  C   C494      1.0  0.50387  0.29058  0.13956  1.0000
  C   C495      1.0  0.48566  0.28600  0.11842  1.0000
  C   C496      1.0  0.46680  0.28072  0.13601  1.0000
  C   C497      1.0  0.46631  0.28053  0.17444  1.0000
  H   H901      1.0  0.51747  0.29341  0.19356  1.0000
  H   H902      1.0  0.51854  0.29473  0.12619  1.0000
  H   H903      1.0  0.45265  0.27714  0.12004  1.0000
  H   H904      1.0  0.45171  0.27681  0.18787  1.0000
  C   C498      1.0  0.53007  0.29558  0.44993  1.0000
  C   C499      1.0  0.60192  0.45993  0.46454  1.0000
  C   C500      1.0  0.52240  0.31133  0.44885  1.0000
  C   C501      1.0  0.41135  0.45396  0.47484  1.0000
  H   H905      1.0  0.51753  0.31554  0.42306  1.0000
  C   C502      1.0  0.63260  0.40139  0.31363  1.0000
  C   C503      1.0  0.62329  0.38034  0.30451  1.0000
  C   C504      1.0  0.60166  0.37022  0.30404  1.0000
  C   C505      1.0  0.58915  0.38118  0.31225  1.0000
  C   C506      1.0  0.59842  0.40225  0.32140  1.0000
  C   C507      1.0  0.62009  0.41232  0.32226  1.0000
  H   H906      1.0  0.63286  0.37181  0.29767  1.0000
  H   H907      1.0  0.59470  0.35402  0.29668  1.0000
  H   H908      1.0  0.58882  0.41080  0.32779  1.0000
  H   H909      1.0  0.62709  0.42854  0.32926  1.0000
  C   C508      1.0  0.35511  0.42594  0.15088  1.0000
  H   H910      1.0  0.51720  0.41393  0.21556  1.0000
  H   H911      1.0  0.56181  0.28772  0.13066  1.0000
  H   H912      1.0  0.33705  0.32265  0.03516  1.0000
  C   C509      1.0  0.36017  0.44573  0.13704  1.0000
  C   C510      1.0  0.47688  0.26321  0.39259  1.0000
  H   H913      1.0  0.53359  0.34448  0.13406  1.0000
  C   C511      1.0  0.40980  0.45040  0.43718  1.0000
  C   C512      1.0  0.39339  0.45195  0.41673  1.0000
  C   C513      1.0  0.37845  0.45740  0.43449  1.0000
  C   C514      1.0  0.64420  0.44324  0.22756  1.0000
  C   C515      1.0  0.34844  0.40891  0.12672  1.0000
  C   C516      1.0  0.60688  0.45032  0.49885  1.0000
  C   C517      1.0  0.58675  0.31893  0.44285  1.0000
  H   H914      1.0  0.45351  0.28554  0.49972  1.0000
  H   H915      1.0  0.65777  0.48418  0.26009  1.0000
  H   H916      1.0  0.42203  0.33907  0.04805  1.0000
  C   C518      1.0  0.35915  0.44843  0.09915  1.0000
  H   H917      1.0  0.57523  0.45264  0.19677  1.0000
  H   H918      1.0  0.51700  0.34629  0.26434  1.0000
  C   C519      1.0  0.34677  0.41157  0.08906  1.0000
  S   S105      1.0  0.42886  0.26782  0.02177  1.0000
  H   H919      1.0  0.56800  0.35090  0.19192  1.0000
  C   C520      1.0  0.55896  0.34376  0.16672  1.0000
  H   H920      1.0  0.42137  0.44621  0.42379  1.0000
  C   C521      1.0  0.53182  0.25193  0.15910  1.0000
  H   H921      1.0  0.63131  0.39257  0.44861  1.0000
  Fe  Fe47      1.0  0.37028  0.48720  0.27831  1.0000
  H   H922      1.0  0.65036  0.41542  0.23556  1.0000
  H   H923      1.0  0.58401  0.46224  0.15191  1.0000
  H   H924      1.0  0.43026  0.35151  0.09224  1.0000
  C   C522      1.0  0.60444  0.47930  0.19678  1.0000
  C   C523      1.0  0.47002  0.28926  0.49351  1.0000
  C   C524      1.0  0.63531  0.42127  0.42394  1.0000
  H   H925      1.0  0.56537  0.33172  0.46203  1.0000
  C   C525      1.0  0.59353  0.35713  0.44515  1.0000
  H   H926      1.0  0.57194  0.27988  0.17100  1.0000
  H   H927      1.0  0.59378  0.40578  0.43956  1.0000
  H   H928      1.0  0.36389  0.35755  0.02063  1.0000
  H   H929      1.0  0.62767  0.43255  0.42169  1.0000
  H   H930      1.0  0.48804  0.38006  0.20835  1.0000
  N   N30       1.0  0.38705  0.37686  0.05889  1.0000
  C   C526      1.0  0.39630  0.39210  0.02905  1.0000
  C   C527      1.0  0.39795  0.36184  0.06211  1.0000
  C   C528      1.0  0.36474  0.36457  0.04817  1.0000
  H   H931      1.0  0.62530  0.41042  0.47712  1.0000
  C   C529      1.0  0.42123  0.36985  0.05281  1.0000
  C   C530      1.0  0.62355  0.40374  0.44915  1.0000
  H   H932      1.0  0.63061  0.47222  0.26446  1.0000
  H   H933      1.0  0.49136  0.24569  0.16411  1.0000
  H   H934      1.0  0.53488  0.37941  0.40770  1.0000
  H   H935      1.0  0.61302  0.25556  0.29543  1.0000
  H   H936      1.0  0.35575  0.37460  0.04578  1.0000
  H   H937      1.0  0.41711  0.41378  0.08943  1.0000
  H   H938      1.0  0.55447  0.35706  0.46382  1.0000
  H   H939      1.0  0.49008  0.24765  0.10426  1.0000
  H   H940      1.0  0.61054  0.45355  0.21627  1.0000
  H   H941      1.0  0.43028  0.38443  0.06755  1.0000
  C   C531      1.0  0.53603  0.28996  0.48364  1.0000
  H   H942      1.0  0.57919  0.30410  0.45698  1.0000
  H   H943      1.0  0.57324  0.47617  0.18128  1.0000
  H   H944      1.0  0.46840  0.34965  0.16022  1.0000
  H   H945      1.0  0.55237  0.32672  0.16949  1.0000
  H   H946      1.0  0.39777  0.40349  0.16498  1.0000
  H   H947      1.0  0.54542  0.24729  0.28012  1.0000
  C   C532      1.0  0.65140  0.46261  0.20320  1.0000
  H   H948      1.0  0.61109  0.49328  0.18012  1.0000
  H   H949      1.0  0.49646  0.41548  0.18743  1.0000
  H   H950      1.0  0.56118  0.38374  0.45768  1.0000
  H   H951      1.0  0.32777  0.47836  0.49298  1.0000
  H   H952      1.0  0.53703  0.25408  0.18826  1.0000
  H   H953      1.0  0.52719  0.26516  0.15339  1.0000
  H   H954      1.0  0.46517  0.25763  0.48350  1.0000
  H   H955      1.0  0.51962  0.41554  0.16649  1.0000
  Fe  Fe48      1.0  0.46377  0.28024  0.02359  1.0000
  H   H956      1.0  0.39773  0.42423  0.13607  1.0000
  C   C533      1.0  0.57164  0.25845  0.24513  1.0000
  C   C534      1.0  0.39636  0.45885  0.49307  1.0000
  C   C535      1.0  0.58294  0.46673  0.18068  1.0000
  S   S106      1.0  0.34675  0.42899  0.29599  1.0000
  H   H957      1.0  0.49583  0.34846  0.31523  1.0000
  H   H958      1.0  0.60220  0.48373  0.22498  1.0000
  C   C536      1.0  0.58227  0.33601  0.46275  1.0000
  H   H959      1.0  0.46941  0.31910  0.10002  1.0000
  S   S107      1.0  0.35229  0.43524  0.02754  1.0000
  C   C537      1.0  0.35242  0.34731  0.07470  1.0000
  H   H960      1.0  0.48843  0.27457  0.37518  1.0000
  S   S108      1.0  0.35765  0.42161  0.19772  1.0000
  H   H961      1.0  0.41811  0.39329  0.11815  1.0000
  H   H962      1.0  0.44770  0.32579  0.11088  1.0000
  H   H963      1.0  0.48187  0.32609  0.28710  1.0000
  H   H964      1.0  0.46550  0.32345  0.16746  1.0000
  H   H965      1.0  0.38072  0.37590  0.11649  1.0000
  H   H966      1.0  0.42175  0.42417  0.15455  1.0000
  C   C538      1.0  0.52067  0.32134  0.48134  1.0000
  C   C539      1.0  0.35251  0.43136  0.07502  1.0000
  H   H967      1.0  0.51445  0.33334  0.48044  1.0000
  H   H968      1.0  0.53117  0.36000  0.37286  1.0000
  H   H969      1.0  0.64939  0.45669  0.17459  1.0000
  H   H970      1.0  0.37026  0.40124  0.01340  1.0000
  H   H971      1.0  0.47086  0.34515  0.09363  1.0000
  H   H972      1.0  0.36153  0.33846  0.08504  1.0000
  H   H973      1.0  0.39636  0.35544  0.09005  1.0000
  H   H974      1.0  0.58179  0.27740  0.12698  1.0000
  H   H975      1.0  0.60365  0.32251  0.44241  1.0000
  S   S109      1.0  0.35695  0.47480  0.33236  1.0000
  H   H976      1.0  0.38774  0.41790  0.04742  1.0000
  H   H977      1.0  0.37699  0.39616  0.09340  1.0000
  H   H978      1.0  0.47553  0.34887  0.28461  1.0000
  H   H979      1.0  0.52513  0.35243  0.41932  1.0000
  C   C540      1.0  0.55816  0.36565  0.40796  1.0000
  H   H980      1.0  0.56801  0.37788  0.39000  1.0000
  H   H981      1.0  0.34466  0.39356  0.13723  1.0000
  Fe  Fe49      1.0  0.33142  0.45180  0.29889  1.0000
  H   H982      1.0  0.34165  0.39837  0.07078  1.0000
  C   C541      1.0  0.60037  0.39360  0.43717  1.0000
  C   C542      1.0  0.55129  0.25440  0.13699  1.0000
  C   C543      1.0  0.65225  0.49170  0.14385  1.0000
  C   C544      1.0  0.64279  0.48388  0.24838  1.0000
  H   H983      1.0  0.59684  0.26471  0.20835  1.0000
  H   H984      1.0  0.51719  0.25969  0.09451  1.0000
  H   H985      1.0  0.65701  0.42633  0.19126  1.0000
  H   H986      1.0  0.60020  0.39005  0.40747  1.0000
  H   H987      1.0  0.61748  0.44252  0.49114  1.0000
  H   H988      1.0  0.54767  0.25173  0.10743  1.0000
  H   H989      1.0  0.55880  0.35067  0.39921  1.0000
  H   H990      1.0  0.49041  0.38169  0.15928  1.0000
  H   H991      1.0  0.34767  0.35429  0.09849  1.0000
  C   C545      1.0  0.37985  0.46070  0.47283  1.0000
  H   H992      1.0  0.58045  0.31698  0.41446  1.0000
  N   N31       1.0  0.64061  0.47749  0.20848  1.0000
  C   C546      1.0  0.61816  0.46638  0.19737  1.0000
  H   H993      1.0  0.36548  0.45898  0.15538  1.0000
  H   H994      1.0  0.44695  0.35963  0.05370  1.0000
  H   H995      1.0  0.62782  0.43331  0.22140  1.0000
  H   H996      1.0  0.51044  0.36879  0.26087  1.0000
  H   H997      1.0  0.54918  0.36871  0.15568  1.0000
  C   C547      1.0  0.53596  0.36428  0.40177  1.0000
  N   N32       1.0  0.58739  0.37457  0.45764  1.0000
  N   N33       1.0  0.50816  0.35290  0.18800  1.0000
  C   C548      1.0  0.49447  0.34422  0.22003  1.0000
  C   C549      1.0  0.49699  0.34325  0.15263  1.0000
  C   C550      1.0  0.52685  0.34713  0.19239  1.0000
  C   C551      1.0  0.51576  0.37610  0.18700  1.0000
  C   C552      1.0  0.49900  0.38553  0.18577  1.0000
  C   C553      1.0  0.50429  0.35173  0.25840  1.0000
  C   C554      1.0  0.54174  0.35184  0.15978  1.0000
  C   C555      1.0  0.47317  0.33718  0.15043  1.0000
  C   C556      1.0  0.46485  0.33149  0.11135  1.0000
  C   C557      1.0  0.50876  0.40905  0.18901  1.0000
  C   C558      1.0  0.48833  0.34323  0.28804  1.0000
  H   H998      1.0  0.58776  0.33643  0.49142  1.0000
  H   H999      1.0  0.48908  0.32709  0.21938  1.0000
  H   H1000     1.0  0.48012  0.34744  0.21828  1.0000
  H   H1001     1.0  0.50392  0.35340  0.12926  1.0000
  H   H1002     1.0  0.49906  0.32854  0.14663  1.0000
  H   H1003     1.0  0.52175  0.33038  0.19787  1.0000
  H   H1004     1.0  0.53655  0.35523  0.21647  1.0000
  H   H1005     1.0  0.52646  0.38315  0.21057  1.0000
  H   H1006     1.0  0.52527  0.38190  0.16256  1.0000
  H   H1007     1.0  0.36822  0.46456  0.48667  1.0000
  H   H1008     1.0  0.41304  0.40089  0.03413  1.0000
  C   C559      1.0  0.65704  0.43013  0.22071  1.0000
  S   S110      1.0  0.65791  0.47437  0.44933  1.0000
  H   H1009     1.0  0.54207  0.27784  0.48465  1.0000
  C   C560      1.0  0.58426  0.25288  0.22171  1.0000
  C   C561      1.0  0.38668  0.40849  0.02244  1.0000
  H   H1010     1.0  0.42414  0.45254  0.49009  1.0000
  H   H1011     1.0  0.65119  0.42944  0.43525  1.0000
  H   H1012     1.0  0.61682  0.45878  0.17016  1.0000
  H   H1013     1.0  0.63684  0.48193  0.13233  1.0000
  H   H1014     1.0  0.43329  0.47694  0.32958  1.0000
  C   C562      1.0  0.56496  0.37036  0.44859  1.0000
  C   C563      1.0  0.33288  0.33187  0.05613  1.0000
  H   H1015     1.0  0.61023  0.36087  0.45074  1.0000
  H   H1016     1.0  0.64580  0.44744  0.25701  1.0000
  H   H1017     1.0  0.49177  0.27457  0.49040  1.0000
  H   H1018     1.0  0.60533  0.25319  0.34228  1.0000
  H   H1019     1.0  0.42388  0.48987  0.38609  1.0000
  H   H1020     1.0  0.58983  0.46622  0.47005  1.0000
  C   C564      1.0  0.47590  0.27064  0.50028  1.0000
  H   H1021     1.0  0.47244  0.29370  0.46448  1.0000
  H   H1022     1.0  0.46220  0.26585  0.39046  1.0000
  H   H1023     1.0  0.59615  0.44804  0.44248  1.0000
  H   H1024     1.0  0.63643  0.41515  0.39637  1.0000
  H   H1025     1.0  0.50934  0.25315  0.22158  1.0000
  H   H1026     1.0  0.33759  0.48974  0.45000  1.0000
  C   C565      1.0  0.59168  0.37904  0.49811  1.0000
  C   C566      1.0  0.43874  0.49384  0.33473  1.0000
  H   H1027     1.0  0.40838  0.49199  0.34778  1.0000
  H   H1028     1.0  0.41448  0.43178  0.00050  1.0000
  H   H1029     1.0  0.39529  0.38365  0.00282  1.0000
  C   C567      1.0  0.40363  0.46458  0.83947  1.0000
  H   H1030     1.0  0.64700  0.48025  0.58487  1.0000
  H   H1031     1.0  0.57418  0.35587  0.86077  1.0000
  S   S111      1.0  0.39240  0.48014  0.63650  1.0000
  Fe  Fe50      1.0  0.37823  0.46795  0.58141  1.0000
  S   S112      1.0  0.39987  0.46287  0.54086  1.0000
  Fe  Fe51      1.0  0.36292  0.45854  0.66061  1.0000
  S   S113      1.0  0.36705  0.44170  0.71149  1.0000
  C   C568      1.0  0.39703  0.34279  0.96110  1.0000
  C   C569      1.0  0.59016  0.45194  0.62010  1.0000
  S   S114      1.0  0.62522  0.45196  0.69961  1.0000
  H   H1032     1.0  0.55465  0.36610  0.86221  1.0000
  Fe  Fe52      1.0  0.53205  0.31949  0.61091  1.0000
  S   S115      1.0  0.56241  0.31682  0.62370  1.0000
  S   S116      1.0  0.52383  0.32849  0.55517  1.0000
  Fe  Fe53      1.0  0.51657  0.30848  0.68882  1.0000
  S   S117      1.0  0.54555  0.30452  0.70711  1.0000
  S   S118      1.0  0.48936  0.30406  0.72568  1.0000
  Fe  Fe54      1.0  0.56219  0.33339  0.67619  1.0000
  S   S119      1.0  0.59243  0.35450  0.70207  1.0000
  Fe  Fe55      1.0  0.54348  0.28840  0.65352  1.0000
  N   N34       1.0  0.61658  0.45893  0.56743  1.0000
  S   S120      1.0  0.53331  0.33876  0.66124  1.0000
  S   S121      1.0  0.51290  0.28971  0.63706  1.0000
  Fe  Fe56      1.0  0.43191  0.29164  0.97824  1.0000
  H   H1033     1.0  0.63379  0.47517  0.52115  1.0000
  H   H1034     1.0  0.39066  0.47141  0.76947  1.0000
  H   H1035     1.0  0.59698  0.41240  0.76896  1.0000
  Fe  Fe57      1.0  0.46632  0.28174  0.93934  1.0000
  S   S122      1.0  0.49030  0.28575  0.89548  1.0000
  S   S123      1.0  0.43183  0.26991  0.93224  1.0000
  C   C570      1.0  0.57314  0.39454  0.80631  1.0000
  H   H1036     1.0  0.43166  0.48423  0.81430  1.0000
  N   N35       1.0  0.55822  0.35452  0.80899  1.0000
  S   S124      1.0  0.34730  0.39905  0.93806  1.0000
  H   H1037     1.0  0.56813  0.35016  0.51937  1.0000
  H   H1038     1.0  0.58467  0.31704  0.75555  1.0000
  H   H1039     1.0  0.37388  0.29161  0.97749  1.0000
  C   C571      1.0  0.54525  0.33337  0.90782  1.0000
  H   H1040     1.0  0.54800  0.36943  0.74322  1.0000
  H   H1041     1.0  0.63490  0.44364  0.62479  1.0000
  C   C572      1.0  0.48972  0.29894  0.77287  1.0000
  C   C573      1.0  0.50493  0.29295  0.78852  1.0000
  C   C574      1.0  0.50467  0.28880  0.82600  1.0000
  C   C575      1.0  0.48923  0.29053  0.84829  1.0000
  C   C576      1.0  0.47385  0.29628  0.83263  1.0000
  C   C577      1.0  0.47414  0.30049  0.79507  1.0000
  H   H1042     1.0  0.51677  0.29133  0.77169  1.0000
  H   H1043     1.0  0.51654  0.28420  0.83782  1.0000
  H   H1044     1.0  0.46191  0.29776  0.84949  1.0000
  H   H1045     1.0  0.46226  0.30507  0.78318  1.0000
  C   C578      1.0  0.60136  0.38148  0.69876  1.0000
  C   C579      1.0  0.62229  0.39320  0.70660  1.0000
  C   C580      1.0  0.62982  0.41483  0.70614  1.0000
  C   C581      1.0  0.61633  0.42486  0.69872  1.0000
  C   C582      1.0  0.59534  0.41314  0.69105  1.0000
  C   C583      1.0  0.58790  0.39147  0.69058  1.0000
  H   H1046     1.0  0.63273  0.38553  0.71316  1.0000
  S   S125      1.0  0.46696  0.30489  0.98263  1.0000
  H   H1047     1.0  0.58476  0.42082  0.68601  1.0000
  H   H1048     1.0  0.57170  0.38253  0.68493  1.0000
  S   S126      1.0  0.35016  0.44395  0.60568  1.0000
  C   C584      1.0  0.32589  0.43678  0.79239  1.0000
  S   S127      1.0  0.41865  0.31745  0.97482  1.0000
  H   H1049     1.0  0.41219  0.35472  0.95815  1.0000
  H   H1050     1.0  0.61019  0.47850  0.52754  1.0000
  C   C585      1.0  0.35280  0.43547  0.75235  1.0000
  C   C586      1.0  0.63050  0.47651  0.59148  1.0000
  C   C587      1.0  0.43858  0.49333  0.69478  1.0000
  S   S128      1.0  0.33631  0.33819  0.95750  1.0000
  H   H1051     1.0  0.56119  0.37221  0.52212  1.0000
  H   H1052     1.0  0.56281  0.42349  0.62201  1.0000
  H   H1053     1.0  0.56972  0.39584  0.83537  1.0000
  C   C588      1.0  0.39231  0.25167  0.86384  1.0000
  C   C589      1.0  0.39800  0.42325  0.99251  1.0000
  H   H1054     1.0  0.54207  0.34643  0.91998  1.0000
  S   S129      1.0  0.34789  0.48171  0.65819  1.0000
  C   C590      1.0  0.62636  0.43202  0.60368  1.0000
  C   C591      1.0  0.53490  0.35657  0.75477  1.0000
  H   H1055     1.0  0.45275  0.48508  0.64820  1.0000
  H   H1056     1.0  0.51092  0.26339  0.55678  1.0000
  H   H1057     1.0  0.63774  0.40978  0.62660  1.0000
  H   H1058     1.0  0.56489  0.44195  0.65784  1.0000
  H   H1059     1.0  0.38789  0.45342  0.83174  1.0000
  H   H1060     1.0  0.65389  0.42559  0.59206  1.0000
  C   C592      1.0  0.57432  0.36697  0.52470  1.0000
  H   H1061     1.0  0.53880  0.25062  0.56692  1.0000
  C   C593      1.0  0.57579  0.37392  0.79801  1.0000
  H   H1062     1.0  0.57973  0.32885  0.83466  1.0000
  C   C594      1.0  0.55838  0.35336  0.85002  1.0000
  C   C595      1.0  0.44271  0.47729  0.67105  1.0000
  H   H1063     1.0  0.61572  0.42914  0.54849  1.0000
  C   C596      1.0  0.35737  0.42277  0.77776  1.0000
  H   H1064     1.0  0.41153  0.45641  0.85599  1.0000
  H   H1065     1.0  0.34262  0.30038  0.97071  1.0000
  H   H1066     1.0  0.59937  0.44546  0.63687  1.0000
  C   C597      1.0  0.54294  0.33313  0.86634  1.0000
  H   H1067     1.0  0.57883  0.37350  0.76839  1.0000
  C   C598      1.0  0.63760  0.41715  0.59997  1.0000
  C   C599      1.0  0.47468  0.26536  0.54134  1.0000
  C   C600      1.0  0.53757  0.35456  0.79636  1.0000
  C   C601      1.0  0.37556  0.30727  0.97174  1.0000
  C   C602      1.0  0.62517  0.44210  0.56684  1.0000
  C   C603      1.0  0.33007  0.42361  0.81737  1.0000
  H   H1068     1.0  0.56040  0.39585  0.78935  1.0000
  C   C604      1.0  0.51510  0.36021  0.74590  1.0000
  H   H1069     1.0  0.34954  0.40675  0.82891  1.0000
  H   H1070     1.0  0.62957  0.47214  0.62057  1.0000
  H   H1071     1.0  0.55740  0.44635  0.61243  1.0000
  S   S130      1.0  0.36450  0.49186  0.57420  1.0000
  C   C605      1.0  0.58051  0.33223  0.80517  1.0000
  H   H1072     1.0  0.56921  0.36226  0.58262  1.0000
  C   C606      1.0  0.34610  0.41687  0.81006  1.0000
  H   H1073     1.0  0.40382  0.26775  0.86249  1.0000
  C   C607      1.0  0.39540  0.32251  0.96859  1.0000
  H   H1074     1.0  0.59564  0.31068  0.79613  1.0000
  H   H1075     1.0  0.53369  0.34203  0.74078  1.0000
  H   H1076     1.0  0.53952  0.29598  0.54183  1.0000
  H   H1077     1.0  0.50142  0.34760  0.75680  1.0000
  C   C608      1.0  0.40489  0.48387  0.78073  1.0000
  Fe  Fe58      1.0  0.33718  0.46878  0.60168  1.0000
  C   C609      1.0  0.41607  0.47328  0.80545  1.0000
  C   C610      1.0  0.42448  0.48306  0.72684  1.0000
  H   H1078     1.0  0.56286  0.33842  0.76168  1.0000
  H   H1079     1.0  0.64600  0.42375  0.71225  1.0000
  H   H1080     1.0  0.48619  0.27891  0.55636  1.0000
  H   H1081     1.0  0.59471  0.36495  0.56906  1.0000
  H   H1082     1.0  0.54548  0.31940  0.85588  1.0000
  H   H1083     1.0  0.39067  0.43466  0.98803  1.0000
  H   H1084     1.0  0.64100  0.44819  0.55546  1.0000
  H   H1085     1.0  0.54732  0.32198  0.79476  1.0000
  H   H1086     1.0  0.59493  0.34573  0.80028  1.0000
  C   C611      1.0  0.56738  0.44019  0.62840  1.0000
  H   H1087     1.0  0.39703  0.41467  0.96649  1.0000
  H   H1088     1.0  0.58642  0.43425  0.56995  1.0000
  C   C612      1.0  0.59424  0.45066  0.57893  1.0000
  H   H1089     1.0  0.51600  0.37519  0.75768  1.0000
  C   C613      1.0  0.37925  0.34776  0.95670  1.0000
  H   H1090     1.0  0.45064  0.46902  0.68724  1.0000
  H   H1091     1.0  0.41086  0.46979  0.71578  1.0000
  H   H1092     1.0  0.60595  0.41314  0.81559  1.0000
  H   H1093     1.0  0.53408  0.36686  0.81086  1.0000
  H   H1094     1.0  0.53393  0.31878  0.91867  1.0000
  H   H1095     1.0  0.43371  0.47624  0.74325  1.0000
  C   C614      1.0  0.33721  0.44276  0.76016  1.0000
  C   C615      1.0  0.58221  0.31375  0.78504  1.0000
  H   H1096     1.0  0.61057  0.42289  0.61309  1.0000
  S   S131      1.0  0.55305  0.26133  0.64853  1.0000
  H   H1097     1.0  0.45933  0.26473  0.54991  1.0000
  C   C616      1.0  0.35779  0.31232  0.96785  1.0000
  H   H1098     1.0  0.56106  0.33463  0.91612  1.0000
  H   H1099     1.0  0.41765  0.46003  0.79074  1.0000
  H   H1100     1.0  0.59047  0.37494  0.81176  1.0000
  H   H1101     1.0  0.33366  0.45272  0.74113  1.0000
  C   C617      1.0  0.52668  0.31578  0.51505  1.0000
  C   C618      1.0  0.35943  0.33261  0.96049  1.0000
  Fe  Fe59      1.0  0.33483  0.40893  0.98820  1.0000
  C   C619      1.0  0.56125  0.33631  0.79161  1.0000
  H   H1102     1.0  0.51294  0.36050  0.71589  1.0000
  C   C620      1.0  0.59283  0.41298  0.79786  1.0000
  H   H1103     1.0  0.59038  0.42756  0.80265  1.0000
  H   H1104     1.0  0.60608  0.37677  0.50649  1.0000
  H   H1105     1.0  0.42799  0.46592  0.65933  1.0000
  H   H1106     1.0  0.56799  0.29974  0.78835  1.0000
  H   H1107     1.0  0.36948  0.41714  0.77213  1.0000
  S   S132      1.0  0.46591  0.25806  0.98062  1.0000
  H   H1108     1.0  0.52672  0.33117  0.85990  1.0000
  H   H1109     1.0  0.46733  0.26765  0.61281  1.0000
  C   C621      1.0  0.58209  0.37071  0.56436  1.0000
  H   H1110     1.0  0.59222  0.43848  0.50816  1.0000
  H   H1111     1.0  0.52488  0.33989  0.80359  1.0000
  H   H1112     1.0  0.62965  0.40483  0.57941  1.0000
  H   H1113     1.0  0.38085  0.36328  0.95008  1.0000
  H   H1114     1.0  0.58774  0.38738  0.57170  1.0000
  H   H1115     1.0  0.58541  0.45894  0.56502  1.0000
  H   H1116     1.0  0.45905  0.25372  0.79610  1.0000
  H   H1117     1.0  0.61005  0.49410  0.58887  1.0000
  H   H1118     1.0  0.47976  0.30266  0.51075  1.0000
  Fe  Fe60      1.0  0.43155  0.24703  0.97562  1.0000
  H   H1119     1.0  0.40226  0.47717  0.85652  1.0000
  H   H1120     1.0  0.59425  0.46819  0.62916  1.0000
  C   C622      1.0  0.61745  0.46684  0.52906  1.0000
  H   H1121     1.0  0.47325  0.24919  0.66680  1.0000
  H   H1122     1.0  0.44786  0.25016  0.66548  1.0000
  H   H1123     1.0  0.36739  0.49058  0.77141  1.0000
  C   C623      1.0  0.50007  0.24924  0.54233  1.0000
  C   C624      1.0  0.53456  0.30017  0.51606  1.0000
  H   H1124     1.0  0.39943  0.49337  0.79910  1.0000
  N   N36       1.0  0.47805  0.24595  0.55147  1.0000
  H   H1125     1.0  0.39018  0.48992  0.71527  1.0000
  H   H1126     1.0  0.59456  0.39553  0.50426  1.0000
  C   C625      1.0  0.44255  0.24838  0.78729  1.0000
  H   H1127     1.0  0.45048  0.26572  0.73745  1.0000
  H   H1128     1.0  0.38972  0.24716  0.89283  1.0000
  H   H1129     1.0  0.50968  0.24828  0.66548  1.0000
  C   C626      1.0  0.44197  0.24955  0.74580  1.0000
  Fe  Fe61      1.0  0.32712  0.36671  0.95448  1.0000
  H   H1130     1.0  0.43600  0.25935  0.79830  1.0000
  C   C627      1.0  0.46084  0.25050  0.61231  1.0000
  H   H1131     1.0  0.50282  0.25200  0.51279  1.0000
  H   H1132     1.0  0.43195  0.25356  0.85868  1.0000
  H   H1133     1.0  0.37745  0.25122  0.85171  1.0000
  H   H1134     1.0  0.49077  0.24959  0.60679  1.0000
  Fe  Fe62      1.0  0.51332  0.61852  0.35720  1.0000
  S   S133      1.0  0.48335  0.61278  0.32714  1.0000
  S   S134      1.0  0.50616  0.60894  0.41604  1.0000
  Fe  Fe63      1.0  0.53814  0.63417  0.28699  1.0000
  S   S135      1.0  0.50955  0.62931  0.25343  1.0000
  S   S136      1.0  0.56892  0.64943  0.25872  1.0000
  Fe  Fe64      1.0  0.50001  0.64332  0.30148  1.0000
  S   S137      1.0  0.48513  0.66678  0.29607  1.0000
  Fe  Fe65      1.0  0.49603  0.59934  0.28281  1.0000
  S   S138      1.0  0.47935  0.56824  0.25589  1.0000
  S   S139      1.0  0.52931  0.64999  0.33415  1.0000
  S   S140      1.0  0.52530  0.60314  0.31380  1.0000
  S   S141      1.0  0.38283  0.52200  0.27587  1.0000
  Fe  Fe66      1.0  0.58908  0.66232  0.04180  1.0000
  S   S142      1.0  0.61968  0.68858  0.04884  1.0000
  S   S143      1.0  0.56708  0.64388  0.08520  1.0000
  H   H1135     1.0  0.60584  0.60424  0.16735  1.0000
  C   C628      1.0  0.51513  0.67523  0.17108  1.0000
  C   C629      1.0  0.56893  0.64766  0.21048  1.0000
  C   C630      1.0  0.58460  0.66247  0.19075  1.0000
  C   C631      1.0  0.58450  0.66155  0.15230  1.0000
  C   C632      1.0  0.56875  0.64571  0.13337  1.0000
  C   C633      1.0  0.55334  0.63081  0.15316  1.0000
  C   C634      1.0  0.55342  0.63175  0.19144  1.0000
  H   H1136     1.0  0.59673  0.67479  0.20525  1.0000
  H   H1137     1.0  0.59640  0.67318  0.13734  1.0000
  H   H1138     1.0  0.54110  0.61849  0.13878  1.0000
  H   H1139     1.0  0.54138  0.62013  0.20619  1.0000
  C   C635      1.0  0.50195  0.69233  0.30525  1.0000
  C   C636      1.0  0.49416  0.70804  0.30790  1.0000
  C   C637      1.0  0.50762  0.72851  0.31517  1.0000
  C   C638      1.0  0.52318  0.69722  0.30954  1.0000
  H   H1140     1.0  0.47774  0.70437  0.30413  1.0000
  C   C639      1.0  0.53655  0.71752  0.31747  1.0000
  H   H1141     1.0  0.52938  0.68546  0.30606  1.0000
  C   C640      1.0  0.45252  0.55579  0.26157  1.0000
  C   C641      1.0  0.44322  0.53447  0.25502  1.0000
  C   C642      1.0  0.42187  0.52401  0.25931  1.0000
  C   C643      1.0  0.40961  0.53484  0.26970  1.0000
  C   C644      1.0  0.41883  0.55625  0.27558  1.0000
  C   C645      1.0  0.44028  0.56670  0.27186  1.0000
  H   H1142     1.0  0.45258  0.52601  0.24660  1.0000
  H   H1143     1.0  0.41490  0.50763  0.25394  1.0000
  H   H1144     1.0  0.40937  0.56476  0.28316  1.0000
  H   H1145     1.0  0.44729  0.58320  0.27642  1.0000
  H   H1146     1.0  0.50107  0.66324  0.44614  1.0000
  C   C646      1.0  0.51716  0.62499  0.45440  1.0000
  C   C647      1.0  0.53834  0.63688  0.45720  1.0000
  H   H1147     1.0  0.43391  0.54234  0.47159  1.0000
  H   H1148     1.0  0.54811  0.63769  0.43426  1.0000
  C   C648      1.0  0.61473  0.63206  0.22896  1.0000
  H   H1149     1.0  0.56447  0.70970  0.15308  1.0000
  H   H1150     1.0  0.50610  0.67852  0.14840  1.0000
  C   C649      1.0  0.55860  0.69807  0.08107  1.0000
  C   C650      1.0  0.42406  0.49836  0.36069  1.0000
  C   C651      1.0  0.64059  0.50818  0.29882  1.0000
  C   C652      1.0  0.50469  0.62391  0.48446  1.0000
  H   H1151     1.0  0.49763  0.54873  0.41586  1.0000
  H   H1152     1.0  0.59017  0.61704  0.10870  1.0000
  C   C653      1.0  0.57397  0.70294  0.26134  1.0000
  H   H1153     1.0  0.52610  0.65519  0.13733  1.0000
  H   H1154     1.0  0.54507  0.72656  0.18384  1.0000
  H   H1155     1.0  0.43425  0.51428  0.43346  1.0000
  H   H1156     1.0  0.46476  0.63696  0.36942  1.0000
  C   C654      1.0  0.63600  0.66009  0.12889  1.0000
  H   H1157     1.0  0.60756  0.62947  0.15862  1.0000
  H   H1158     1.0  0.55297  0.72113  0.32103  1.0000
  H   H1159     1.0  0.62117  0.65690  0.11408  1.0000
  H   H1160     1.0  0.48025  0.67162  0.45103  1.0000
  H   H1161     1.0  0.57384  0.71733  0.21026  1.0000
  H   H1162     1.0  0.58320  0.69451  0.24999  1.0000
  H   H1163     1.0  0.53290  0.68336  0.23479  1.0000
  C   C655      1.0  0.48646  0.55103  0.43488  1.0000
  H   H1164     1.0  0.53000  0.71538  0.47854  1.0000
  H   H1165     1.0  0.40635  0.53418  0.46844  1.0000
  H   H1166     1.0  0.64887  0.51964  0.12420  1.0000
  N   N37       1.0  0.41859  0.52800  0.39635  1.0000
  C   C656      1.0  0.42857  0.55113  0.40158  1.0000
  Fe  Fe67      1.0  0.60907  0.70416  0.00331  1.0000
  H   H1167     1.0  0.63556  0.59428  0.15370  1.0000
  C   C657      1.0  0.39653  0.52113  0.38229  1.0000
  C   C658      1.0  0.38192  0.52871  0.40409  1.0000
  C   C659      1.0  0.42965  0.56416  0.36726  1.0000
  H   H1168     1.0  0.38917  0.50400  0.38163  1.0000
  H   H1169     1.0  0.48826  0.61498  0.48228  1.0000
  H   H1170     1.0  0.59977  0.61876  0.23120  1.0000
  C   C660      1.0  0.36054  0.52179  0.38557  1.0000
  C   C661      1.0  0.43693  0.58709  0.37712  1.0000
  H   H1171     1.0  0.51973  0.70818  0.23760  1.0000
  H   H1172     1.0  0.44472  0.55546  0.41217  1.0000
  H   H1173     1.0  0.42061  0.55669  0.42256  1.0000
  H   H1174     1.0  0.50161  0.74064  0.31693  1.0000
  H   H1175     1.0  0.51612  0.73806  0.45144  1.0000
  H   H1176     1.0  0.35068  0.52828  0.40066  1.0000
  H   H1177     1.0  0.48070  0.56233  0.42256  1.0000
  H   H1178     1.0  0.39605  0.52564  0.35338  1.0000
  C   C662      1.0  0.53049  0.71268  0.18080  1.0000
  H   H1179     1.0  0.38795  0.54576  0.40622  1.0000
  H   H1180     1.0  0.37969  0.52203  0.43165  1.0000
  H   H1181     1.0  0.44095  0.56239  0.34798  1.0000
  H   H1182     1.0  0.41433  0.55957  0.35330  1.0000
  C   C663      1.0  0.62857  0.62742  0.20134  1.0000
  C   C664      1.0  0.52882  0.73318  0.32018  1.0000
  H   H1183     1.0  0.45805  0.64081  0.41518  1.0000
  H   H1184     1.0  0.50501  0.67254  0.19519  1.0000
  H   H1185     1.0  0.52296  0.73753  0.40453  1.0000
  C   C665      1.0  0.58712  0.60200  0.05692  1.0000
  C   C666      1.0  0.50986  0.73273  0.42359  1.0000
  C   C667      1.0  0.51551  0.71312  0.21122  1.0000
  H   H1186     1.0  0.62256  0.63532  0.25621  1.0000
  H   H1187     1.0  0.60757  0.63210  0.07452  1.0000
  H   H1188     1.0  0.45252  0.59258  0.39050  1.0000
  H   H1189     1.0  0.43786  0.59602  0.35190  1.0000
  H   H1190     1.0  0.42588  0.59004  0.39556  1.0000
  H   H1191     1.0  0.51026  0.57414  0.46627  1.0000
  H   H1192     1.0  0.36175  0.52724  0.35703  1.0000
  H   H1193     1.0  0.49448  0.70561  0.39138  1.0000
  H   H1194     1.0  0.58469  0.71701  0.27580  1.0000
  C   C668      1.0  0.49404  0.67369  0.43432  1.0000
  H   H1195     1.0  0.49900  0.66567  0.37794  1.0000
  H   H1196     1.0  0.53906  0.71139  0.10611  1.0000
  H   H1197     1.0  0.48971  0.73993  0.38461  1.0000
  N   N38       1.0  0.53513  0.69336  0.17844  1.0000
  C   C669      1.0  0.49789  0.70900  0.42098  1.0000
  H   H1198     1.0  0.47341  0.53604  0.43817  1.0000
  H   H1199     1.0  0.53891  0.71595  0.41837  1.0000
  H   H1200     1.0  0.53093  0.66955  0.41919  1.0000
  C   C670      1.0  0.56235  0.70896  0.23072  1.0000
  H   H1201     1.0  0.52311  0.71492  0.15499  1.0000
  H   H1202     1.0  0.61164  0.64584  0.22077  1.0000
  H   H1203     1.0  0.59655  0.60145  0.03318  1.0000
  H   H1204     1.0  0.55584  0.68269  0.14859  1.0000
  C   C671      1.0  0.64274  0.50555  0.25790  1.0000
  C   C672      1.0  0.43081  0.52187  0.36813  1.0000
  H   H1205     1.0  0.56310  0.69299  0.28134  1.0000
  H   H1206     1.0  0.57494  0.60756  0.04749  1.0000
  H   H1207     1.0  0.48266  0.70521  0.43416  1.0000
  N   N39       1.0  0.63104  0.62109  0.13227  1.0000
  C   C673      1.0  0.49732  0.55928  0.47152  1.0000
  H   H1208     1.0  0.61011  0.72878  0.09907  1.0000
  H   H1209     1.0  0.56756  0.68110  0.40576  1.0000
  H   H1210     1.0  0.61024  0.59273  0.10681  1.0000
  C   C674      1.0  0.65858  0.60667  0.11241  1.0000
  H   H1211     1.0  0.35289  0.50473  0.38548  1.0000
  C   C675      1.0  0.47116  0.64246  0.39717  1.0000
  H   H1212     1.0  0.57935  0.58623  0.06763  1.0000
  N   N40       1.0  0.50886  0.69594  0.43684  1.0000
  H   H1213     1.0  0.64101  0.52391  0.30476  1.0000
  C   C676      1.0  0.55939  0.69165  0.40001  1.0000
  H   H1214     1.0  0.48265  0.74027  0.43184  1.0000
  H   H1215     1.0  0.63607  0.62241  0.01010  1.0000
  C   C677      1.0  0.64452  0.64288  0.12197  1.0000
  H   H1216     1.0  0.63304  0.61498  0.21267  1.0000
  H   H1217     1.0  0.52816  0.68370  0.10179  1.0000
  H   H1218     1.0  0.65570  0.61823  0.16566  1.0000
  C   C678      1.0  0.49616  0.63703  0.15697  1.0000
  H   H1219     1.0  0.57299  0.71184  0.08590  1.0000
  H   H1220     1.0  0.63344  0.66174  0.15826  1.0000
  H   H1221     1.0  0.49947  0.70257  0.20384  1.0000
  C   C679      1.0  0.54238  0.69720  0.10910  1.0000
  H   H1222     1.0  0.47727  0.67341  0.38235  1.0000
  H   H1223     1.0  0.47936  0.63266  0.40732  1.0000
  C   C680      1.0  0.51730  0.65445  0.16247  1.0000
  H   H1224     1.0  0.52539  0.65023  0.18527  1.0000
  C   C681      1.0  0.41927  0.52871  0.46790  1.0000
  H   H1225     1.0  0.55477  0.69006  0.37069  1.0000
  C   C682      1.0  0.61778  0.60940  0.10023  1.0000
  C   C683      1.0  0.64491  0.60981  0.14301  1.0000
  H   H1226     1.0  0.40706  0.50163  0.43214  1.0000
  H   H1227     1.0  0.55586  0.71983  0.24249  1.0000
  H   H1228     1.0  0.48774  0.64010  0.13322  1.0000
  C   C684      1.0  0.52796  0.69966  0.41498  1.0000
  C   C685      1.0  0.48602  0.66496  0.39557  1.0000
  C   C686      1.0  0.54044  0.68613  0.42399  1.0000
  H   H1229     1.0  0.54624  0.68872  0.45259  1.0000
  C   C687      1.0  0.41966  0.51724  0.43161  1.0000
  H   H1230     1.0  0.55122  0.67765  0.20953  1.0000
  H   H1231     1.0  0.56358  0.65549  0.49284  1.0000
  H   H1232     1.0  0.56231  0.68401  0.08229  1.0000
  H   H1233     1.0  0.65358  0.50629  0.31421  1.0000
  C   C688      1.0  0.54477  0.68979  0.21363  1.0000
  H   H1234     1.0  0.44757  0.52817  0.37598  1.0000
  H   H1235     1.0  0.64492  0.69302  0.12155  1.0000
  C   C689      1.0  0.55029  0.69566  0.14836  1.0000
  C   C690      1.0  0.60060  0.61664  0.08662  1.0000
  H   H1236     1.0  0.57024  0.70775  0.40576  1.0000
  H   H1237     1.0  0.62744  0.61017  0.07614  1.0000
  H   H1238     1.0  0.47836  0.57548  0.48696  1.0000
  H   H1239     1.0  0.49826  0.62229  0.15178  1.0000
  C   C691      1.0  0.61725  0.62029  0.16393  1.0000
  H   H1240     1.0  0.42966  0.52860  0.34121  1.0000
  H   H1241     1.0  0.48673  0.63523  0.18170  1.0000
  H   H1242     1.0  0.46765  0.54889  0.49815  1.0000
  H   H1243     1.0  0.52390  0.69765  0.38541  1.0000
  H   H1244     1.0  0.64851  0.64342  0.09260  1.0000
  C   C692      1.0  0.51452  0.70258  0.47639  1.0000
  H   H1245     1.0  0.55258  0.69897  0.05319  1.0000
  C   C693      1.0  0.48226  0.56280  0.49906  1.0000
  C   C694      1.0  0.51550  0.73477  0.21682  1.0000
  S   S144      1.0  0.60335  0.73453  0.00696  1.0000
  H   H1246     1.0  0.64428  0.50771  0.18792  1.0000
  H   H1247     1.0  0.50350  0.70903  0.48790  1.0000
  H   H1248     1.0  0.50407  0.54831  0.48162  1.0000
  H   H1249     1.0  0.45464  0.49928  0.34676  1.0000
  H   H1250     1.0  0.50350  0.73426  0.23665  1.0000
  C   C695      1.0  0.54709  0.64681  0.49047  1.0000
  H   H1251     1.0  0.51199  0.74087  0.19080  1.0000
  H   H1252     1.0  0.65757  0.51769  0.24975  1.0000
  H   H1253     1.0  0.64285  0.64142  0.19871  1.0000
  H   H1254     1.0  0.44301  0.73003  0.35394  1.0000
  H   H1255     1.0  0.64895  0.59470  0.09251  1.0000
  C   C696      1.0  0.65141  0.68100  0.11687  1.0000
  Fe  Fe68      1.0  0.63013  0.67210  0.00432  1.0000
  C   C697      1.0  0.65795  0.60734  0.01695  1.0000
  H   H1256     1.0  0.43905  0.50146  0.30826  1.0000
  H   H1257     1.0  0.52372  0.67709  0.49459  1.0000
  C   C698      1.0  0.65218  0.62460  0.01365  1.0000
  C   C699      1.0  0.65132  0.49602  0.18519  1.0000
  H   H1258     1.0  0.63013  0.50862  0.24378  1.0000
  H   H1259     1.0  0.64608  0.59199  0.01605  1.0000
  H   H1260     1.0  0.40178  0.50228  0.50037  1.0000
  H   H1261     1.0  0.65462  0.68053  0.08742  1.0000
  C   C700      1.0  0.49578  0.74408  0.41298  1.0000
  H   H1262     1.0  0.62572  0.49674  0.30834  1.0000
  Fe  Fe69      1.0  0.53633  0.64894  0.70016  1.0000
  S   S145      1.0  0.50262  0.63083  0.70998  1.0000
  S   S146      1.0  0.56233  0.66493  0.74196  1.0000
  Fe  Fe70      1.0  0.52941  0.64675  0.61636  1.0000
  S   S147      1.0  0.49531  0.62891  0.62007  1.0000
  S   S148      1.0  0.54639  0.65629  0.56312  1.0000
  Fe  Fe71      1.0  0.49691  0.65056  0.66647  1.0000
  S   S149      1.0  0.47122  0.66204  0.67359  1.0000
  Fe  Fe72      1.0  0.50382  0.61067  0.66277  1.0000
  S   S150      1.0  0.48875  0.57581  0.65918  1.0000
  S   S151      1.0  0.53031  0.67013  0.65954  1.0000
  S   S152      1.0  0.53817  0.62705  0.65620  1.0000
  S   S153      1.0  0.39067  0.53586  0.64890  1.0000
  Fe  Fe73      1.0  0.59076  0.66370  0.95744  1.0000
  S   S154      1.0  0.62192  0.68995  0.95885  1.0000
  S   S155      1.0  0.56836  0.64645  0.91108  1.0000
  H   H1263     1.0  0.46052  0.71882  0.73506  1.0000
  H   H1264     1.0  0.42235  0.52073  0.62780  1.0000
  H   H1265     1.0  0.51732  0.60002  0.58866  1.0000
  H   H1266     1.0  0.48862  0.52640  0.52401  1.0000
  H   H1267     1.0  0.45229  0.59322  0.59429  1.0000
  H   H1268     1.0  0.36504  0.56300  0.65960  1.0000
  C   C701      1.0  0.57011  0.71389  0.79918  1.0000
  C   C702      1.0  0.56401  0.65894  0.78857  1.0000
  C   C703      1.0  0.58204  0.67029  0.80908  1.0000
  C   C704      1.0  0.58356  0.66698  0.84670  1.0000
  C   C705      1.0  0.56719  0.65190  0.86406  1.0000
  C   C706      1.0  0.54930  0.64033  0.84340  1.0000
  C   C707      1.0  0.54764  0.64389  0.80593  1.0000
  H   H1269     1.0  0.59483  0.68190  0.79585  1.0000
  H   H1270     1.0  0.59748  0.67587  0.86214  1.0000
  H   H1271     1.0  0.53661  0.62853  0.85653  1.0000
  H   H1272     1.0  0.53375  0.63493  0.79050  1.0000
  C   C708      1.0  0.47800  0.68836  0.68377  1.0000
  C   C709      1.0  0.46517  0.69403  0.70656  1.0000
  C   C710      1.0  0.32852  0.53015  0.64483  1.0000
  C   C711      1.0  0.49565  0.70364  0.66971  1.0000
  H   H1273     1.0  0.45144  0.68231  0.71720  1.0000
  H   H1274     1.0  0.55340  0.58859  0.56313  1.0000
  H   H1275     1.0  0.50541  0.69932  0.65156  1.0000
  H   H1276     1.0  0.62096  0.59200  0.90206  1.0000
  H   H1277     1.0  0.64643  0.56575  0.85278  1.0000
  H   H1278     1.0  0.43272  0.54294  0.74521  1.0000
  C   C712      1.0  0.49296  0.65540  0.78946  1.0000
  H   H1279     1.0  0.58471  0.72884  0.85048  1.0000
  C   C713      1.0  0.41797  0.54727  0.64999  1.0000
  C   C714      1.0  0.42798  0.56759  0.66308  1.0000
  C   C715      1.0  0.44972  0.57662  0.66550  1.0000
  C   C716      1.0  0.46153  0.56525  0.65533  1.0000
  C   C717      1.0  0.45151  0.54497  0.64211  1.0000
  C   C718      1.0  0.42984  0.53616  0.63881  1.0000
  H   H1280     1.0  0.41896  0.57641  0.67145  1.0000
  H   H1281     1.0  0.45732  0.59231  0.67566  1.0000
  H   H1282     1.0  0.46051  0.53602  0.63439  1.0000
  H   H1283     1.0  0.38759  0.56725  0.71467  1.0000
  H   H1284     1.0  0.51157  0.54120  0.55097  1.0000
  H   H1285     1.0  0.52163  0.68967  0.81957  1.0000
  H   H1286     1.0  0.51437  0.73636  0.66892  1.0000
  C   C719      1.0  0.47027  0.71470  0.71656  1.0000
  C   C720      1.0  0.44360  0.53481  0.74385  1.0000
  H   H1287     1.0  0.35535  0.53433  0.70221  1.0000
  H   H1288     1.0  0.48941  0.65746  0.81825  1.0000
  H   H1289     1.0  0.56376  0.73998  0.96487  1.0000
  H   H1290     1.0  0.64444  0.57315  0.91019  1.0000
  H   H1291     1.0  0.39363  0.53025  0.73165  1.0000
  H   H1292     1.0  0.44876  0.50978  0.77167  1.0000
  C   C721      1.0  0.55822  0.72707  0.67987  1.0000
  H   H1293     1.0  0.42969  0.58146  0.56540  1.0000
  H   H1294     1.0  0.46959  0.56412  0.74225  1.0000
  H   H1295     1.0  0.54825  0.72209  0.82841  1.0000
  H   H1296     1.0  0.42934  0.50820  0.50093  1.0000
  H   H1297     1.0  0.56786  0.74205  0.66792  1.0000
  H   H1298     1.0  0.53381  0.68067  0.78550  1.0000
  H   H1299     1.0  0.45192  0.60225  0.54842  1.0000
  H   H1300     1.0  0.34997  0.57507  0.68324  1.0000
  C   C722      1.0  0.46460  0.54976  0.75836  1.0000
  C   C723      1.0  0.63224  0.60400  0.92005  1.0000
  H   H1301     1.0  0.52199  0.73116  0.83562  1.0000
  C   C724      1.0  0.58896  0.72763  0.82178  1.0000
  C   C725      1.0  0.53975  0.70982  0.73667  1.0000
  H   H1302     1.0  0.65181  0.51477  0.94469  1.0000
  C   C726      1.0  0.55322  0.73051  0.71916  1.0000
  C   C727      1.0  0.53475  0.64485  0.52110  1.0000
  C   C728      1.0  0.44686  0.58840  0.56581  1.0000
  H   H1303     1.0  0.47190  0.50784  0.57929  1.0000
  H   H1304     1.0  0.43188  0.51933  0.79365  1.0000
  H   H1305     1.0  0.52560  0.70304  0.71914  1.0000
  H   H1306     1.0  0.50058  0.70760  0.82390  1.0000
  H   H1307     1.0  0.50375  0.63299  0.54068  1.0000
  H   H1308     1.0  0.56690  0.71665  0.67891  1.0000
  H   H1309     1.0  0.49122  0.68383  0.77278  1.0000
  C   C729      1.0  0.43555  0.51469  0.76635  1.0000
  H   H1310     1.0  0.64946  0.54346  0.90819  1.0000
  H   H1311     1.0  0.33567  0.54544  0.63198  1.0000
  H   H1312     1.0  0.53951  0.70535  0.53985  1.0000
  H   H1313     1.0  0.57532  0.71260  0.77124  1.0000
  H   H1314     1.0  0.34403  0.54714  0.73209  1.0000
  H   H1315     1.0  0.47835  0.64590  0.77479  1.0000
  C   C730      1.0  0.52366  0.68950  0.78959  1.0000
  H   H1316     1.0  0.48908  0.73582  0.83969  1.0000
  H   H1317     1.0  0.54780  0.69889  0.73367  1.0000
  H   H1318     1.0  0.51410  0.70442  0.55193  1.0000
  H   H1319     1.0  0.55942  0.73913  0.79254  1.0000
  H   H1320     1.0  0.45381  0.50430  0.70530  1.0000
  H   H1321     1.0  0.37327  0.58039  0.73794  1.0000
  H   H1322     1.0  0.55019  0.71931  0.93323  1.0000
  H   H1323     1.0  0.33980  0.52243  0.64178  1.0000
  H   H1324     1.0  0.40104  0.52354  0.77460  1.0000
  C   C731      1.0  0.50255  0.67627  0.77114  1.0000
  N   N41       1.0  0.53395  0.71114  0.77573  1.0000
  C   C732      1.0  0.49560  0.73530  0.81252  1.0000
  H   H1325     1.0  0.33079  0.51545  0.75586  1.0000
  H   H1326     1.0  0.60093  0.72074  0.82170  1.0000
  H   H1327     1.0  0.44531  0.53178  0.71481  1.0000
  C   C733      1.0  0.37801  0.57669  0.71091  1.0000
  H   H1328     1.0  0.49615  0.50521  0.57091  1.0000
  H   H1329     1.0  0.65457  0.51558  0.61970  1.0000
  H   H1330     1.0  0.52138  0.68284  0.56092  1.0000
  C   C734      1.0  0.55272  0.72252  0.79950  1.0000
  H   H1331     1.0  0.52002  0.57573  0.59647  1.0000
  H   H1332     1.0  0.56448  0.69845  0.81155  1.0000
  H   H1333     1.0  0.55360  0.60467  0.60171  1.0000
  H   H1334     1.0  0.55811  0.74289  0.88223  1.0000
  C   C735      1.0  0.51343  0.63390  0.51763  1.0000
  H   H1335     1.0  0.48259  0.72766  0.79290  1.0000
  C   C736      1.0  0.47941  0.58150  0.55419  1.0000
  C   C737      1.0  0.48431  0.54910  0.56088  1.0000
  H   H1336     1.0  0.36061  0.50100  0.73069  1.0000
  C   C738      1.0  0.45537  0.57261  0.55183  1.0000
  N   N42       1.0  0.48996  0.56818  0.53815  1.0000
  C   C739      1.0  0.63763  0.51186  0.61999  1.0000
  C   C740      1.0  0.51297  0.58063  0.53919  1.0000
  C   C741      1.0  0.65436  0.60626  0.91168  1.0000
  H   H1337     1.0  0.50687  0.71630  0.75655  1.0000
  H   H1338     1.0  0.44884  0.55874  0.56883  1.0000
  C   C742      1.0  0.50990  0.72335  0.81460  1.0000
  H   H1339     1.0  0.54504  0.74135  0.71861  1.0000
  H   H1340     1.0  0.48355  0.58476  0.58359  1.0000
  H   H1341     1.0  0.48766  0.55341  0.59021  1.0000
  H   H1342     1.0  0.46736  0.54011  0.55910  1.0000
  C   C743      1.0  0.34580  0.54403  0.70283  1.0000
  H   H1343     1.0  0.55048  0.61298  0.55651  1.0000
  C   C744      1.0  0.56319  0.73451  0.93625  1.0000
  S   S156      1.0  0.57765  0.67847  0.99943  1.0000
  H   H1344     1.0  0.59568  0.74325  0.80999  1.0000
  H   H1345     1.0  0.62872  0.59980  0.94895  1.0000
  C   C745      1.0  0.35908  0.56517  0.68653  1.0000
  H   H1346     1.0  0.65346  0.54982  0.95588  1.0000
  H   H1347     1.0  0.50364  0.64701  0.78869  1.0000
  C   C746      1.0  0.52310  0.58856  0.57714  1.0000
  C   C747      1.0  0.39267  0.51688  0.74870  1.0000
  H   H1348     1.0  0.50457  0.67333  0.74198  1.0000
  C   C748      1.0  0.40270  0.50361  0.72796  1.0000
  C   C749      1.0  0.50058  0.72457  0.67919  1.0000
  H   H1349     1.0  0.51648  0.59438  0.52165  1.0000
  H   H1350     1.0  0.48493  0.59673  0.54094  1.0000
  C   C750      1.0  0.51962  0.72271  0.77712  1.0000
  H   H1351     1.0  0.49476  0.52260  0.60637  1.0000
  C   C751      1.0  0.48894  0.51630  0.57866  1.0000
  N   N43       1.0  0.41731  0.49683  0.75026  1.0000
  C   C752      1.0  0.48800  0.73001  0.70315  1.0000
  H   H1352     1.0  0.63495  0.52642  0.61697  1.0000
  H   H1353     1.0  0.57781  0.73229  0.93058  1.0000
  H   H1354     1.0  0.41048  0.51269  0.70422  1.0000
  C   C753      1.0  0.54656  0.59932  0.57428  1.0000
  H   H1355     1.0  0.63041  0.61887  0.91533  1.0000
  C   C754      1.0  0.52287  0.69530  0.54134  1.0000
  H   H1356     1.0  0.38767  0.59135  0.69793  1.0000
  H   H1357     1.0  0.36405  0.51480  0.77351  1.0000
  C   C755      1.0  0.49448  0.53367  0.55104  1.0000
  H   H1358     1.0  0.44947  0.56838  0.52348  1.0000
  C   C756      1.0  0.36981  0.50499  0.75654  1.0000
  H   H1359     1.0  0.52163  0.57179  0.52731  1.0000
  H   H1360     1.0  0.47647  0.54287  0.75564  1.0000
  H   H1361     1.0  0.56817  0.73798  0.73418  1.0000
  H   H1362     1.0  0.63151  0.50505  0.64661  1.0000
  H   H1363     1.0  0.46368  0.55389  0.78738  1.0000
  H   H1364     1.0  0.54380  0.72020  0.66303  1.0000
  H   H1365     1.0  0.52781  0.73902  0.76911  1.0000
  Fe  Fe74      1.0  0.37660  0.50237  0.63091  1.0000
  H   H1366     1.0  0.41891  0.52406  0.52640  1.0000
  H   H1367     1.0  0.63321  0.50476  0.56292  1.0000
  H   H1368     1.0  0.65252  0.55491  0.79163  1.0000
  H   H1369     1.0  0.32661  0.50788  0.58148  1.0000
  H   H1370     1.0  0.43157  0.50162  0.67693  1.0000
  C   C757      1.0  0.51439  0.68580  0.50390  1.0000
  H   H1371     1.0  0.49832  0.67463  0.50766  1.0000
  H   H1372     1.0  0.65740  0.58495  0.95111  1.0000
  H   H1373     1.0  0.65691  0.61010  0.88251  1.0000
  C   C758      1.0  0.65806  0.58631  0.92089  1.0000
  C   C759      1.0  0.62679  0.49694  0.58870  1.0000
  C   C760      1.0  0.41726  0.51495  0.50079  1.0000
  S   S157      1.0  0.59983  0.64527  0.99966  1.0000
  Fe  Fe75      1.0  0.37487  0.82084  0.28220  1.0000
  S   S158      1.0  0.35735  0.84146  0.29244  1.0000
  S   S159      1.0  0.40962  0.83581  0.28996  1.0000
  H   H1374     1.0  0.38498  0.90209  0.06867  1.0000
  C   C761      1.0  0.59011  0.78410  0.15347  1.0000
  C   C762      1.0  0.55825  0.79851  0.05468  1.0000
  S   S160      1.0  0.35452  0.79484  0.31616  1.0000
  H   H1375     1.0  0.46227  0.75233  0.33426  1.0000
  Fe  Fe76      1.0  0.53405  0.78321  0.31912  1.0000
  S   S161      1.0  0.55652  0.81512  0.33181  1.0000
  H   H1376     1.0  0.53125  0.77775  0.48663  1.0000
  Fe  Fe77      1.0  0.50071  0.79825  0.29439  1.0000
  S   S162      1.0  0.52082  0.83162  0.30502  1.0000
  S   S163      1.0  0.46716  0.78480  0.27527  1.0000
  Fe  Fe78      1.0  0.54578  0.82354  0.27834  1.0000
  S   S164      1.0  0.57240  0.84344  0.24349  1.0000
  Fe  Fe79      1.0  0.52986  0.82005  0.35730  1.0000
  S   S165      1.0  0.53236  0.83628  0.41223  1.0000
  S   S166      1.0  0.52498  0.79093  0.26402  1.0000
  S   S167      1.0  0.50806  0.78736  0.34840  1.0000
  H   H1377     1.0  0.44146  0.78240  0.34934  1.0000
  S   S168      1.0  0.63217  0.87998  0.03409  1.0000
  S   S169      1.0  0.57147  0.85579  0.07160  1.0000
  H   H1378     1.0  0.38842  0.79041  0.21792  1.0000
  C   C763      1.0  0.41172  0.82632  0.18622  1.0000
  H   H1379     1.0  0.44644  0.82446  0.20911  1.0000
  C   C764      1.0  0.48010  0.82004  0.18200  1.0000
  H   H1380     1.0  0.42508  0.86168  0.42912  1.0000
  C   C765      1.0  0.44688  0.75899  0.38117  1.0000
  H   H1381     1.0  0.48759  0.83617  0.17269  1.0000
  H   H1382     1.0  0.41357  0.82578  0.21625  1.0000
  C   C766      1.0  0.45693  0.81731  0.38846  1.0000
  C   C767      1.0  0.63507  0.96054  0.06172  1.0000
  C   C768      1.0  0.57197  0.84568  0.19539  1.0000
  C   C769      1.0  0.55359  0.83755  0.17467  1.0000
  C   C770      1.0  0.55381  0.84064  0.13676  1.0000
  C   C771      1.0  0.57237  0.85163  0.11910  1.0000
  C   C772      1.0  0.59084  0.85918  0.13964  1.0000
  C   C773      1.0  0.59060  0.85631  0.17763  1.0000
  H   H1383     1.0  0.53917  0.82933  0.18796  1.0000
  H   H1384     1.0  0.53946  0.83471  0.12106  1.0000
  H   H1385     1.0  0.60519  0.86778  0.12645  1.0000
  H   H1386     1.0  0.60489  0.86267  0.19346  1.0000
  H   H1387     1.0  0.57758  0.80856  0.16339  1.0000
  C   C774      1.0  0.42527  0.82124  0.28706  1.0000
  C   C775      1.0  0.44681  0.83158  0.28744  1.0000
  C   C776      1.0  0.45984  0.82056  0.28417  1.0000
  C   C777      1.0  0.45135  0.79912  0.28009  1.0000
  C   C778      1.0  0.42977  0.78875  0.27960  1.0000
  C   C779      1.0  0.41673  0.79977  0.28336  1.0000
  H   H1388     1.0  0.45343  0.84824  0.28984  1.0000
  H   H1389     1.0  0.47644  0.82871  0.28413  1.0000
  H   H1390     1.0  0.42312  0.77213  0.27646  1.0000
  H   H1391     1.0  0.40012  0.79168  0.28319  1.0000
  H   H1392     1.0  0.44867  0.78539  0.48210  1.0000
  C   C780      1.0  0.53201  0.82331  0.45350  1.0000
  C   C781      1.0  0.53072  0.80291  0.45361  1.0000
  H   H1393     1.0  0.42023  0.83017  0.46200  1.0000
  H   H1394     1.0  0.52957  0.79471  0.42807  1.0000
  S   S170      1.0  0.34952  0.84356  0.03345  1.0000
  H   H1395     1.0  0.56105  0.79663  0.11238  1.0000
  H   H1396     1.0  0.48021  0.81996  0.21227  1.0000
  H   H1397     1.0  0.35812  0.88884  0.10722  1.0000
  C   C782      1.0  0.38291  0.91103  0.04518  1.0000
  H   H1398     1.0  0.57359  0.85541  0.37616  1.0000
  H   H1399     1.0  0.62657  0.81605  0.14603  1.0000
  C   C783      1.0  0.34271  0.84356  0.07943  1.0000
  H   H1400     1.0  0.39033  0.85312  0.18515  1.0000
  C   C784      1.0  0.45186  0.78184  0.37208  1.0000
  H   H1401     1.0  0.39480  0.81996  0.18101  1.0000
  H   H1402     1.0  0.65412  0.97866  0.10565  1.0000
  C   C785      1.0  0.45796  0.81015  0.16666  1.0000
  Fe  Fe80      1.0  0.33853  0.82649  0.24218  1.0000
  C   C786      1.0  0.35327  0.83662  0.10574  1.0000
  H   H1403     1.0  0.60077  0.84733  0.48565  1.0000
  C   C787      1.0  0.59062  0.86087  0.38029  1.0000
  H   H1404     1.0  0.41825  0.85106  0.14587  1.0000
  C   C788      1.0  0.33231  0.83012  0.44847  1.0000
  C   C789      1.0  0.38799  0.90141  0.01107  1.0000
  H   H1405     1.0  0.43586  0.85766  0.18484  1.0000
  C   C790      1.0  0.62804  0.82496  0.08939  1.0000
  H   H1406     1.0  0.62067  0.96039  0.07428  1.0000
  C   C791      1.0  0.47955  0.82809  0.37587  1.0000
  H   H1407     1.0  0.45231  0.83818  0.16761  1.0000
  H   H1408     1.0  0.60686  0.82441  0.13113  1.0000
  H   H1409     1.0  0.42173  0.78981  0.20632  1.0000
  H   H1410     1.0  0.42720  0.80348  0.11436  1.0000
  H   H1411     1.0  0.40799  0.85957  0.22403  1.0000
  H   H1412     1.0  0.44706  0.81725  0.36426  1.0000
  C   C792      1.0  0.61539  0.81456  0.12307  1.0000
  H   H1413     1.0  0.61763  0.82534  0.06642  1.0000
  S   S171      1.0  0.35784  0.80814  0.22925  1.0000
  H   H1414     1.0  0.38359  0.82107  0.44740  1.0000
  S   S172      1.0  0.54610  0.75833  0.33020  1.0000
  C   C793      1.0  0.33288  0.84308  0.15371  1.0000
  C   C794      1.0  0.45912  0.78096  0.46449  1.0000
  H   H1415     1.0  0.44902  0.85751  0.42924  1.0000
  C   C795      1.0  0.40684  0.86029  0.19390  1.0000
  C   C796      1.0  0.38265  0.75956  0.20035  1.0000
  H   H1416     1.0  0.41279  0.87676  0.18615  1.0000
  H   H1417     1.0  0.36528  0.83140  0.09743  1.0000
  N   N44       1.0  0.45119  0.79580  0.40312  1.0000
  C   C797      1.0  0.35909  0.94432  0.06171  1.0000
  H   H1418     1.0  0.45883  0.80983  0.13653  1.0000
  H   H1419     1.0  0.37496  0.91294  0.17908  1.0000
  H   H1420     1.0  0.38972  0.79003  0.11430  1.0000
  H   H1421     1.0  0.36230  0.81601  0.39067  1.0000
  C   C798      1.0  0.38202  0.95834  0.05639  1.0000
  H   H1422     1.0  0.59947  0.81065  0.19152  1.0000
  H   H1423     1.0  0.59702  0.87799  0.37992  1.0000
  H   H1424     1.0  0.62721  0.78359  0.12961  1.0000
  C   C799      1.0  0.57061  0.78835  0.20891  1.0000
  H   H1425     1.0  0.40601  0.82747  0.06423  1.0000
  C   C800      1.0  0.46677  0.79650  0.43297  1.0000
  N   N45       1.0  0.60106  0.79223  0.11827  1.0000
  H   H1426     1.0  0.43149  0.75184  0.39352  1.0000
  H   H1427     1.0  0.36851  0.88577  0.17098  1.0000
  N   N46       1.0  0.59545  0.82081  0.45006  1.0000
  C   C801      1.0  0.58310  0.79788  0.45034  1.0000
  C   C802      1.0  0.59155  0.83046  0.48474  1.0000
  C   C803      1.0  0.58733  0.82968  0.41867  1.0000
  C   C804      1.0  0.61837  0.82608  0.44527  1.0000
  H   H1428     1.0  0.57545  0.77063  0.14769  1.0000
  C   C805      1.0  0.58169  0.78619  0.41363  1.0000
  C   C806      1.0  0.59597  0.85359  0.41681  1.0000
  C   C807      1.0  0.60291  0.75620  0.10653  1.0000
  H   H1429     1.0  0.43510  0.74714  0.32658  1.0000
  H   H1430     1.0  0.62817  0.75149  0.07860  1.0000
  C   C808      1.0  0.57447  0.76294  0.41916  1.0000
  C   C809      1.0  0.33572  0.76634  0.49458  1.0000
  H   H1431     1.0  0.56698  0.79485  0.45816  1.0000
  H   H1432     1.0  0.58895  0.79026  0.47175  1.0000
  H   H1433     1.0  0.62309  0.80600  0.48839  1.0000
  H   H1434     1.0  0.57502  0.82872  0.48537  1.0000
  H   H1435     1.0  0.57016  0.82432  0.41933  1.0000
  H   H1436     1.0  0.59077  0.82392  0.39218  1.0000
  H   H1437     1.0  0.62227  0.82771  0.41584  1.0000
  H   H1438     1.0  0.62743  0.84153  0.45768  1.0000
  H   H1439     1.0  0.48649  0.79669  0.49920  1.0000
  C   C810      1.0  0.53178  0.79339  0.48679  1.0000
  H   H1440     1.0  0.57025  0.78888  0.39501  1.0000
  H   H1441     1.0  0.59675  0.79155  0.39982  1.0000
  H   H1442     1.0  0.63811  0.81697  0.08009  1.0000
  H   H1443     1.0  0.58904  0.86004  0.43835  1.0000
  H   H1444     1.0  0.38038  0.98720  0.07605  1.0000
  H   H1445     1.0  0.39226  0.75668  0.22245  1.0000
  H   H1446     1.0  0.63334  0.96082  0.03163  1.0000
  C   C811      1.0  0.32715  0.85024  0.09026  1.0000
  H   H1447     1.0  0.38683  0.76512  0.41552  1.0000
  H   H1448     1.0  0.45159  0.79402  0.17625  1.0000
  H   H1449     1.0  0.40427  0.90254  0.01287  1.0000
  H   H1450     1.0  0.50056  0.85787  0.35769  1.0000
  H   H1451     1.0  0.45896  0.75773  0.39991  1.0000
  H   H1452     1.0  0.58581  0.75928  0.43644  1.0000
  H   H1453     1.0  0.55915  0.75703  0.43218  1.0000
  H   H1454     1.0  0.42952  0.82939  0.11688  1.0000
  C   C812      1.0  0.42947  0.84503  0.47598  1.0000
  Fe  Fe81      1.0  0.33589  0.81462  0.32326  1.0000
  N   N47       1.0  0.42200  0.81336  0.16800  1.0000
  H   H1455     1.0  0.38914  0.81526  0.12299  1.0000
  C   C813      1.0  0.41315  0.79137  0.18140  1.0000
  C   C814      1.0  0.44470  0.82250  0.17889  1.0000
  C   C815      1.0  0.42024  0.81375  0.12703  1.0000
  C   C816      1.0  0.39804  0.80683  0.11055  1.0000
  H   H1456     1.0  0.48934  0.81115  0.17251  1.0000
  H   H1457     1.0  0.39202  0.95824  0.08008  1.0000
  C   C817      1.0  0.41954  0.84938  0.17571  1.0000
  H   H1458     1.0  0.57301  0.75493  0.39237  1.0000
  C   C818      1.0  0.39840  0.81072  0.06962  1.0000
  H   H1459     1.0  0.47291  0.81194  0.44689  1.0000
  H   H1460     1.0  0.47369  0.85282  0.34794  1.0000
  C   C819      1.0  0.36918  0.82338  0.44790  1.0000
  H   H1461     1.0  0.59730  0.85513  0.35740  1.0000
  C   C820      1.0  0.61425  0.78002  0.10921  1.0000
  H   H1462     1.0  0.41538  0.78059  0.16095  1.0000
  C   C821      1.0  0.48467  0.85090  0.36840  1.0000
  C   C822      1.0  0.39135  0.78178  0.40981  1.0000
  H   H1463     1.0  0.62156  0.78445  0.08229  1.0000
  H   H1464     1.0  0.35253  0.95206  0.08189  1.0000
  H   H1465     1.0  0.41528  0.80645  0.38442  1.0000
  H   H1466     1.0  0.48058  0.79467  0.42099  1.0000
  H   H1467     1.0  0.37974  0.78481  0.17127  1.0000
  H   H1468     1.0  0.36187  0.93288  0.12889  1.0000
  C   C823      1.0  0.58568  0.78915  0.08729  1.0000
  H   H1469     1.0  0.59381  0.79270  0.06113  1.0000
  C   C824      1.0  0.57169  0.80172  0.08928  1.0000
  C   C825      1.0  0.33856  0.82375  0.41597  1.0000
  C   C826      1.0  0.47722  0.78092  0.48851  1.0000
  H   H1470     1.0  0.44603  0.87674  0.45940  1.0000
  Fe  Fe82      1.0  0.59729  0.86631  0.03020  1.0000
  H   H1471     1.0  0.58103  0.81842  0.09205  1.0000
  H   H1472     1.0  0.57510  0.77269  0.08479  1.0000
  H   H1473     1.0  0.48203  0.82073  0.35049  1.0000
  H   H1474     1.0  0.63719  0.94607  0.06893  1.0000
  C   C827      1.0  0.37398  0.90112  0.15796  1.0000
  C   C828      1.0  0.58502  0.79953  0.17848  1.0000
  H   H1475     1.0  0.59969  0.77815  0.17117  1.0000
  H   H1476     1.0  0.54786  0.78206  0.05119  1.0000
  C   C829      1.0  0.35719  0.82063  0.41567  1.0000
  H   H1477     1.0  0.56803  0.80344  0.03037  1.0000
  H   H1478     1.0  0.56820  0.79985  0.22739  1.0000
  C   C830      1.0  0.53383  0.83392  0.48687  1.0000
  H   H1479     1.0  0.49085  0.82738  0.39665  1.0000
  H   H1480     1.0  0.57740  0.77910  0.22525  1.0000
  H   H1481     1.0  0.48409  0.85928  0.39392  1.0000
  H   H1482     1.0  0.38331  0.75070  0.17548  1.0000
  H   H1483     1.0  0.38219  0.92881  0.10677  1.0000
  H   H1484     1.0  0.38959  0.90427  0.14705  1.0000
  C   C831      1.0  0.42974  0.78939  0.41830  1.0000
  H   H1485     1.0  0.45052  0.76498  0.45452  1.0000
  H   H1486     1.0  0.35140  0.94466  0.03501  1.0000
  C   C832      1.0  0.64233  0.84717  0.09851  1.0000
  H   H1487     1.0  0.43015  0.79946  0.44218  1.0000
  H   H1488     1.0  0.35635  0.83064  0.16264  1.0000
  H   H1489     1.0  0.38230  0.80530  0.05843  1.0000
  H   H1490     1.0  0.62222  0.79629  0.44307  1.0000
  H   H1491     1.0  0.42436  0.77348  0.42881  1.0000
  H   H1492     1.0  0.45408  0.82746  0.40940  1.0000
  H   H1493     1.0  0.65163  0.85407  0.07433  1.0000
  C   C833      1.0  0.41245  0.79030  0.39191  1.0000
  H   H1494     1.0  0.46746  0.78747  0.36019  1.0000
  C   C834      1.0  0.36242  0.82880  0.48076  1.0000
  C   C835      1.0  0.43803  0.86122  0.44666  1.0000
  H   H1495     1.0  0.63320  0.85654  0.10602  1.0000
  H   H1496     1.0  0.55531  0.77814  0.19738  1.0000
  H   H1497     1.0  0.40673  0.80224  0.05526  1.0000
  C   C836      1.0  0.65373  0.97917  0.07552  1.0000
  C   C837      1.0  0.36514  0.92238  0.10908  1.0000
  H   H1498     1.0  0.61303  0.86019  0.42055  1.0000
  C   C838      1.0  0.36044  0.91049  0.04332  1.0000
  H   H1499     1.0  0.41131  0.78111  0.36663  1.0000
  C   C839      1.0  0.34829  0.83623  0.14270  1.0000
  C   C840      1.0  0.62760  0.81059  0.46013  1.0000
  H   H1500     1.0  0.53493  0.84975  0.48703  1.0000
  C   C841      1.0  0.34403  0.83231  0.48095  1.0000
  N   N48       1.0  0.35451  0.92234  0.07286  1.0000
  H   H1501     1.0  0.32563  0.79038  0.16087  1.0000
  H   H1502     1.0  0.39162  0.79027  0.43565  1.0000
  C   C842      1.0  0.35885  0.90101  0.12732  1.0000
  H   H1503     1.0  0.32775  0.79675  0.00259  1.0000
  H   H1504     1.0  0.37945  0.78359  0.39115  1.0000
  H   H1505     1.0  0.36636  0.75397  0.20936  1.0000
  Fe  Fe83      1.0  0.33573  0.78397  0.26426  1.0000
  H   H1506     1.0  0.35774  0.91587  0.01591  1.0000
  H   H1507     1.0  0.34627  0.77782  0.47600  1.0000
  H   H1508     1.0  0.39459  0.92685  0.04835  1.0000
  H   H1509     1.0  0.38777  0.95338  0.03150  1.0000
  H   H1510     1.0  0.35019  0.89382  0.04335  1.0000
  C   C843      1.0  0.39013  0.78259  0.19248  1.0000
  H   H1511     1.0  0.37783  0.88484  0.00875  1.0000
  H   H1512     1.0  0.45416  0.83376  0.48293  1.0000
  H   H1513     1.0  0.50468  0.76095  0.41466  1.0000
  H   H1514     1.0  0.54861  0.80798  0.05660  1.0000
  H   H1515     1.0  0.59248  0.75181  0.08207  1.0000
  C   C844      1.0  0.38433  0.98072  0.05086  1.0000
  H   H1516     1.0  0.32706  0.91900  0.10323  1.0000
  H   H1517     1.0  0.65318  0.84767  0.12132  1.0000
  C   C845      1.0  0.44681  0.74641  0.34686  1.0000
  H   H1518     1.0  0.48738  0.77512  0.47274  1.0000
  H   H1519     1.0  0.37410  0.98178  0.02809  1.0000
  H   H1520     1.0  0.40056  0.99023  0.04401  1.0000
  H   H1521     1.0  0.59362  0.74982  0.13087  1.0000
  H   H1522     1.0  0.34333  0.89666  0.13942  1.0000
  H   H1523     1.0  0.32869  0.75119  0.48017  1.0000
  C   C846      1.0  0.65122  0.81968  0.45936  1.0000
  C   C847      1.0  0.33145  0.91229  0.07857  1.0000
  H   H1524     1.0  0.62858  0.74857  0.12751  1.0000
  H   H1525     1.0  0.41895  0.84974  0.49284  1.0000
  H   H1526     1.0  0.58765  0.76657  0.00426  1.0000
  C   C848      1.0  0.60420  0.77387  0.00143  1.0000
  C   C849      1.0  0.61622  0.76166  0.00157  1.0000
  S   S173      1.0  0.32620  0.84277  0.19989  1.0000
  C   C850      1.0  0.61843  0.74569  0.10277  1.0000
  H   H1527     1.0  0.32696  0.89554  0.08395  1.0000
  H   H1528     1.0  0.65656  0.82391  0.43116  1.0000
  H   H1529     1.0  0.53074  0.74537  0.22805  1.0000
  H   H1530     1.0  0.65756  0.83356  0.47745  1.0000
  H   H1531     1.0  0.65736  0.80809  0.46916  1.0000
  C   C851      1.0  0.44695  0.84248  0.49970  1.0000
  C   C852      1.0  0.39601  0.77806  0.55004  1.0000
  H   H1532     1.0  0.65709  0.94477  0.82434  1.0000
  H   H1533     1.0  0.56722  0.80327  0.82093  1.0000
  H   H1534     1.0  0.45920  0.85802  0.50364  1.0000
  Fe  Fe84      1.0  0.37117  0.80141  0.64137  1.0000
  S   S174      1.0  0.39283  0.78751  0.66511  1.0000
  S   S175      1.0  0.38074  0.83473  0.62744  1.0000
  Fe  Fe85      1.0  0.51248  0.78249  0.68744  1.0000
  S   S176      1.0  0.54479  0.79133  0.66778  1.0000
  H   H1535     1.0  0.60141  0.88822  0.76060  1.0000
  Fe  Fe86      1.0  0.50925  0.82228  0.66256  1.0000
  S   S177      1.0  0.54156  0.83460  0.64095  1.0000
  S   S178      1.0  0.48885  0.84068  0.66015  1.0000
  Fe  Fe87      1.0  0.53301  0.80249  0.61768  1.0000
  S   S179      1.0  0.53819  0.79246  0.56052  1.0000
  Fe  Fe88      1.0  0.55026  0.82250  0.69311  1.0000
  S   S180      1.0  0.57925  0.83938  0.72848  1.0000
  S   S181      1.0  0.50012  0.79108  0.63601  1.0000
  S   S182      1.0  0.51854  0.81277  0.71582  1.0000
  Fe  Fe89      1.0  0.59727  0.86325  0.94591  1.0000
  S   S183      1.0  0.63185  0.87608  0.94423  1.0000
  S   S184      1.0  0.57328  0.85214  0.89967  1.0000
  H   H1536     1.0  0.42573  0.79307  0.57505  1.0000
  H   H1537     1.0  0.40947  0.94710  0.84905  1.0000
  H   H1538     1.0  0.51988  0.78584  0.92591  1.0000
  C   C853      1.0  0.35465  0.94836  0.94839  1.0000
  N   N49       1.0  0.44034  0.83204  0.53572  1.0000
  H   H1539     1.0  0.38932  0.76902  0.57462  1.0000
  H   H1540     1.0  0.64324  0.92263  0.78082  1.0000
  C   C854      1.0  0.61580  0.90152  0.75443  1.0000
  S   S185      1.0  0.59557  0.84116  0.99055  1.0000
  C   C855      1.0  0.57767  0.84305  0.77614  1.0000
  C   C856      1.0  0.59587  0.85074  0.79797  1.0000
  C   C857      1.0  0.59498  0.85383  0.83588  1.0000
  C   C858      1.0  0.57583  0.84924  0.85222  1.0000
  C   C859      1.0  0.55774  0.84162  0.83041  1.0000
  C   C860      1.0  0.55863  0.83853  0.79268  1.0000
  H   H1541     1.0  0.61068  0.85421  0.78545  1.0000
  H   H1542     1.0  0.60901  0.85955  0.85242  1.0000
  H   H1543     1.0  0.54285  0.83803  0.84276  1.0000
  H   H1544     1.0  0.54454  0.83278  0.77642  1.0000
  H   H1545     1.0  0.38602  0.90949  0.98627  1.0000
  H   H1546     1.0  0.65792  0.88309  0.86993  1.0000
  C   C861      1.0  0.34418  0.84914  0.73781  1.0000
  C   C862      1.0  0.39088  0.97186  0.95641  1.0000
  H   H1547     1.0  0.64910  0.82717  0.88682  1.0000
  H   H1548     1.0  0.60179  0.89835  0.90271  1.0000
  H   H1549     1.0  0.64660  0.97620  0.95614  1.0000
  Fe  Fe90      1.0  0.32669  0.88757  0.94570  1.0000
  C   C863      1.0  0.46230  0.82573  0.66272  1.0000
  C   C864      1.0  0.45511  0.80461  0.66958  1.0000
  C   C865      1.0  0.43374  0.79299  0.67058  1.0000
  C   C866      1.0  0.41952  0.80241  0.66437  1.0000
  C   C867      1.0  0.42679  0.82359  0.65815  1.0000
  C   C868      1.0  0.44811  0.83524  0.65761  1.0000
  H   H1550     1.0  0.46596  0.79720  0.67435  1.0000
  H   H1551     1.0  0.60168  0.85003  0.55381  1.0000
  H   H1552     1.0  0.41607  0.83108  0.65406  1.0000
  H   H1553     1.0  0.45367  0.85164  0.65294  1.0000
  C   C869      1.0  0.55335  0.79567  0.93299  1.0000
  H   H1554     1.0  0.40392  0.87446  0.68079  1.0000
  H   H1555     1.0  0.42826  0.77664  0.67584  1.0000
  C   C870      1.0  0.37554  0.95157  0.95432  1.0000
  H   H1556     1.0  0.41427  0.79211  0.76058  1.0000
  S   S186      1.0  0.35502  0.78955  0.58782  1.0000
  S   S187      1.0  0.34197  0.79912  0.66897  1.0000
  H   H1557     1.0  0.54361  0.77800  0.88245  1.0000
  C   C871      1.0  0.34956  0.96593  0.94450  1.0000
  S   S188      1.0  0.35059  0.87324  0.94312  1.0000
  H   H1558     1.0  0.44403  0.89553  0.59007  1.0000
  H   H1559     1.0  0.55761  0.80467  0.87712  1.0000
  H   H1560     1.0  0.57913  0.79904  0.75945  1.0000
  S   S189      1.0  0.37781  0.83197  0.52065  1.0000
  H   H1561     1.0  0.55194  0.78260  0.95096  1.0000
  C   C872      1.0  0.53333  0.79961  0.93551  1.0000
  H   H1562     1.0  0.62064  0.79667  0.90758  1.0000
  H   H1563     1.0  0.41630  0.84130  0.55692  1.0000
  H   H1564     1.0  0.40144  0.76847  0.53187  1.0000
  H   H1565     1.0  0.40924  0.81412  0.51557  1.0000
  Fe  Fe91      1.0  0.33267  0.85249  0.98744  1.0000
  H   H1566     1.0  0.58873  0.77355  0.84371  1.0000
  C   C873      1.0  0.45793  0.82721  0.55230  1.0000
  C   C874      1.0  0.32851  0.76588  0.74687  1.0000
  H   H1567     1.0  0.37991  0.93841  0.95730  1.0000
  H   H1568     1.0  0.56060  0.77519  0.77550  1.0000
  H   H1569     1.0  0.56171  0.76704  0.84142  1.0000
  H   H1570     1.0  0.35515  0.82440  0.73319  1.0000
  H   H1571     1.0  0.59456  0.80897  0.82028  1.0000
  H   H1572     1.0  0.36899  0.77500  0.78427  1.0000
  H   H1573     1.0  0.62420  0.89641  0.73347  1.0000
  H   H1574     1.0  0.60572  0.89910  0.82702  1.0000
  C   C875      1.0  0.33724  0.86068  0.76200  1.0000
  C   C876      1.0  0.34766  0.82864  0.78861  1.0000
  C   C877      1.0  0.57660  0.78002  0.84787  1.0000
  H   H1575     1.0  0.63133  0.83825  0.86945  1.0000
  C   C878      1.0  0.59629  0.90990  0.89071  1.0000
  C   C879      1.0  0.38192  0.77469  0.76744  1.0000
  Fe  Fe92      1.0  0.32848  0.84968  0.90446  1.0000
  H   H1576     1.0  0.61330  0.82515  0.52339  1.0000
  H   H1577     1.0  0.44078  0.87439  0.53487  1.0000
  S   S190      1.0  0.33335  0.82360  0.59747  1.0000
  H   H1578     1.0  0.60834  0.94007  0.86637  1.0000
  C   C880      1.0  0.57904  0.79639  0.81828  1.0000
  H   H1579     1.0  0.41921  0.87445  0.58787  1.0000
  H   H1580     1.0  0.38370  0.78167  0.53561  1.0000
  H   H1581     1.0  0.59362  0.81997  0.87941  1.0000
  C   C881      1.0  0.49620  0.83777  0.56614  1.0000
  H   H1582     1.0  0.59337  0.92310  0.94347  1.0000
  C   C882      1.0  0.61747  0.91432  0.81969  1.0000
  H   H1583     1.0  0.42818  0.98495  0.85642  1.0000
  H   H1584     1.0  0.49222  0.82576  0.58732  1.0000
  C   C883      1.0  0.47866  0.84551  0.56017  1.0000
  Fe  Fe93      1.0  0.63000  0.85518  0.99193  1.0000
  N   N50       1.0  0.62979  0.92545  0.85305  1.0000
  C   C884      1.0  0.34948  0.83316  0.75135  1.0000
  C   C885      1.0  0.34076  0.84015  0.81282  1.0000
  H   H1585     1.0  0.63363  0.83486  0.91793  1.0000
  H   H1586     1.0  0.39084  0.96807  0.82490  1.0000
  H   H1587     1.0  0.45366  0.81978  0.57918  1.0000
  H   H1588     1.0  0.61766  0.80035  0.85964  1.0000
  C   C886      1.0  0.43615  0.87850  0.59130  1.0000
  Fe  Fe94      1.0  0.35043  0.83180  0.65166  1.0000
  C   C887      1.0  0.44401  0.86834  0.56111  1.0000
  C   C888      1.0  0.61685  0.80645  0.88726  1.0000
  H   H1589     1.0  0.58552  0.90257  0.86754  1.0000
  S   S191      1.0  0.49523  0.75508  0.72140  1.0000
  H   H1590     1.0  0.51053  0.85075  0.57519  1.0000
  H   H1591     1.0  0.37730  0.77365  0.73815  1.0000
  H   H1592     1.0  0.49925  0.83111  0.54039  1.0000
  H   H1593     1.0  0.53093  0.80306  0.96428  1.0000
  H   H1594     1.0  0.59482  0.82664  0.57946  1.0000
  H   H1595     1.0  0.40819  0.80610  0.58194  1.0000
  H   H1596     1.0  0.56597  0.80964  0.94389  1.0000
  H   H1597     1.0  0.62295  0.93683  0.90439  1.0000
  H   H1598     1.0  0.46114  0.81577  0.53462  1.0000
  H   H1599     1.0  0.53706  0.83293  0.54555  1.0000
  C   C889      1.0  0.61480  0.92922  0.87868  1.0000
  C   C890      1.0  0.43302  0.84453  0.56176  1.0000
  C   C891      1.0  0.59527  0.80702  0.89468  1.0000
  H   H1600     1.0  0.33354  0.96385  0.93996  1.0000
  H   H1601     1.0  0.57068  0.90163  0.92773  1.0000
  C   C892      1.0  0.41398  0.79787  0.56158  1.0000
  H   H1602     1.0  0.35152  0.81607  0.79876  1.0000
  H   H1603     1.0  0.43941  0.87348  0.61852  1.0000
  H   H1604     1.0  0.33317  0.87312  0.75173  1.0000
  S   S192      1.0  0.64698  0.83283  0.99439  1.0000
  H   H1605     1.0  0.57698  0.92655  0.90745  1.0000
  C   C893      1.0  0.57850  0.77087  0.91176  1.0000
  H   H1606     1.0  0.58091  0.77654  0.94049  1.0000
  Fe  Fe95      1.0  0.63121  0.89999  0.98598  1.0000
  C   C894      1.0  0.55993  0.74985  0.90990  1.0000
  Fe  Fe96      1.0  0.32690  0.79099  0.61370  1.0000
  H   H1607     1.0  0.40688  0.97396  0.96119  1.0000
  H   H1608     1.0  0.41718  0.88744  0.72193  1.0000
  C   C895      1.0  0.36490  0.98620  0.94629  1.0000
  C   C896      1.0  0.58361  0.91574  0.91909  1.0000
  N   N51       1.0  0.41438  0.83382  0.77630  1.0000
  C   C897      1.0  0.41545  0.83499  0.81745  1.0000
  C   C898      1.0  0.43517  0.83540  0.76268  1.0000
  C   C899      1.0  0.40863  0.85127  0.76272  1.0000
  C   C900      1.0  0.39828  0.81370  0.76253  1.0000
  C   C901      1.0  0.40128  0.79393  0.77534  1.0000
  C   C902      1.0  0.39449  0.82950  0.83672  1.0000
  C   C903      1.0  0.40893  0.85412  0.72086  1.0000
  C   C904      1.0  0.45333  0.85630  0.77029  1.0000
  C   C905      1.0  0.47348  0.85610  0.75513  1.0000
  H   H1609     1.0  0.53424  0.81309  0.91888  1.0000
  C   C906      1.0  0.39757  0.83206  0.87805  1.0000
  C   C907      1.0  0.40467  0.87331  0.71090  1.0000
  H   H1610     1.0  0.42536  0.85086  0.82692  1.0000
  H   H1611     1.0  0.42327  0.82503  0.82868  1.0000
  H   H1612     1.0  0.43980  0.82334  0.77526  1.0000
  H   H1613     1.0  0.43432  0.83189  0.73296  1.0000
  H   H1614     1.0  0.41870  0.86618  0.77580  1.0000
  H   H1615     1.0  0.39272  0.84908  0.77103  1.0000
  H   H1616     1.0  0.38248  0.81271  0.76933  1.0000
  H   H1617     1.0  0.39814  0.81289  0.73227  1.0000
  H   H1618     1.0  0.57533  0.83152  0.55300  1.0000
  C   C908      1.0  0.39496  0.96961  0.85440  1.0000
  H   H1619     1.0  0.38652  0.83974  0.82786  1.0000
  H   H1620     1.0  0.38413  0.81326  0.83095  1.0000
  H   H1621     1.0  0.39676  0.84071  0.70718  1.0000
  H   H1622     1.0  0.42411  0.85598  0.70954  1.0000
  H   H1623     1.0  0.45040  0.86921  0.75735  1.0000
  H   H1624     1.0  0.45582  0.85952  0.80000  1.0000
  H   H1625     1.0  0.47231  0.85451  0.72501  1.0000
  H   H1626     1.0  0.48644  0.87081  0.76234  1.0000
  H   H1627     1.0  0.47715  0.84318  0.76648  1.0000
  H   H1628     1.0  0.40280  0.95106  0.89514  1.0000
  H   H1629     1.0  0.50421  0.75137  0.80374  1.0000
  C   C909      1.0  0.39778  0.94992  0.86607  1.0000
  H   H1630     1.0  0.40728  0.84829  0.88563  1.0000
  H   H1631     1.0  0.38229  0.82807  0.89094  1.0000
  H   H1632     1.0  0.40497  0.82167  0.88880  1.0000
  H   H1633     1.0  0.38965  0.87244  0.72187  1.0000
  C   C910      1.0  0.63370  0.82804  0.89054  1.0000
  H   H1634     1.0  0.40471  0.79434  0.80496  1.0000
  C   C911      1.0  0.55742  0.79115  0.89302  1.0000
  H   H1635     1.0  0.38286  0.93654  0.86265  1.0000
  H   H1636     1.0  0.38173  0.97055  0.86970  1.0000
  C   C912      1.0  0.57652  0.78682  0.78000  1.0000
  H   H1637     1.0  0.47743  0.85375  0.58549  1.0000
  N   N52       1.0  0.57697  0.78725  0.88685  1.0000
  S   S193      1.0  0.34615  0.85495  0.69093  1.0000
  H   H1638     1.0  0.46096  0.87338  0.56471  1.0000
  H   H1639     1.0  0.34495  0.76452  0.51824  1.0000
  C   C913      1.0  0.42271  0.81163  0.52810  1.0000
  H   H1640     1.0  0.58793  0.77951  0.77571  1.0000
  H   H1641     1.0  0.59582  0.81167  0.92384  1.0000
  Fe  Fe97      1.0  0.36271  0.82278  0.57513  1.0000
  C   C914      1.0  0.53494  0.82440  0.52006  1.0000
  H   H1642     1.0  0.43400  0.83958  0.59005  1.0000
  H   H1643     1.0  0.60870  0.92333  0.80800  1.0000
  C   C915      1.0  0.59181  0.83333  0.55369  1.0000
  C   C916      1.0  0.53420  0.80417  0.52012  1.0000
  H   H1644     1.0  0.62975  0.89592  0.86977  1.0000
  H   H1645     1.0  0.32696  0.78874  0.52210  1.0000
  S   S194      1.0  0.33913  0.83375  0.85934  1.0000
  S   S195      1.0  0.59622  0.88748  0.98532  1.0000
  H   H1646     1.0  0.61157  0.91405  0.74295  1.0000
  H   H1647     1.0  0.59246  0.76749  0.90556  1.0000
  S   S196      1.0  0.64449  0.93546  0.97531  1.0000
  H   H1648     1.0  0.38504  0.76071  0.77428  1.0000
  H   H1649     1.0  0.41557  0.99171  0.89295  1.0000
  C   C917      1.0  0.62953  0.90915  0.78867  1.0000
  C   C918      1.0  0.63479  0.80539  0.99596  1.0000
  C   C919      1.0  0.41470  0.98908  0.86285  1.0000
  C   C920      1.0  0.38577  0.98942  0.95239  1.0000
  H   H1650     1.0  0.33015  0.86517  0.81789  1.0000
  H   H1651     1.0  0.33909  0.83716  0.50595  1.0000
  C   C921      1.0  0.64514  0.94629  0.84228  1.0000
  C   C922      1.0  0.33549  0.85619  0.79944  1.0000
  H   H1652     1.0  0.34027  0.78170  0.74383  1.0000
  S   S197      1.0  0.33426  0.92304  0.94619  1.0000
  H   H1653     1.0  0.58733  0.80550  0.52389  1.0000
  H   H1654     1.0  0.63727  0.95449  0.82553  1.0000
  C   C923      1.0  0.59660  0.82221  0.52114  1.0000
  H   H1655     1.0  0.63442  0.89647  0.79723  1.0000
  C   C924      1.0  0.63993  0.91254  0.87211  1.0000
  H   H1656     1.0  0.64158  0.91604  0.90195  1.0000
  H   H1657     1.0  0.42606  0.99452  0.79795  1.0000
  C   C925      1.0  0.64690  0.79321  0.99615  1.0000
  H   H1658     1.0  0.47133  0.77065  0.51203  1.0000
  H   H1659     1.0  0.48339  0.85665  0.53779  1.0000
  H   H1660     1.0  0.33198  0.75543  0.72741  1.0000
  H   H1661     1.0  0.54529  0.75155  0.91696  1.0000
  H   H1662     1.0  0.42735  0.80233  0.50792  1.0000
  H   H1663     1.0  0.32963  0.76061  0.77498  1.0000
  C   C926      1.0  0.65641  0.96104  0.87456  1.0000
  H   H1664     1.0  0.64596  0.96801  0.88641  1.0000
  C   C927      1.0  0.63768  0.77147  0.99866  1.0000
  H   H1665     1.0  0.64721  0.76236  0.99890  1.0000
  C   C928      1.0  0.61334  0.79547  0.99802  1.0000
  H   H1666     1.0  0.60376  0.80446  0.99788  1.0000
  H   H1667     1.0  0.74125  0.05021  0.08833  1.0000
  Fe  Fe98      1.0  0.70310  0.15626  0.30889  1.0000
  S   S198      1.0  0.70200  0.12583  0.32943  1.0000
  S   S199      1.0  0.72849  0.18434  0.33245  1.0000
  H   H1668     1.0  0.82436  0.22173  0.40523  1.0000
  C   C929      1.0  0.82342  0.22782  0.47971  1.0000
  H   H1669     1.0  0.72998  0.02458  0.06884  1.0000
  C   C930      1.0  0.69061  0.16794  0.42631  1.0000
  Fe  Fe99      1.0  0.69085  0.11429  0.27218  1.0000
  S   S200      1.0  0.70350  0.09443  0.23893  1.0000
  C   C931      1.0  0.77984  0.22190  0.13713  1.0000
  S   S201      1.0  0.69468  0.14545  0.25098  1.0000
  H   H1670     1.0  0.69318  0.15873  0.40340  1.0000
  C   C932      1.0  0.73168  0.19159  0.48490  1.0000
  H   H1671     1.0  0.82119  0.22680  0.08385  1.0000
  H   H1672     1.0  0.66223  0.20571  0.24600  1.0000
  S   S202      1.0  0.74206  0.08349  0.02765  1.0000
  S   S203      1.0  0.69942  0.10459  0.06747  1.0000
  C   C933      1.0  0.77410  0.12496  0.09813  1.0000
  C   C934      1.0  0.74561  0.22853  0.43453  1.0000
  C   C935      1.0  0.91781  0.24215  0.11219  1.0000
  C   C936      1.0  0.72785  0.03530  0.08945  1.0000
  C   C937      1.0  0.70182  0.09636  0.19113  1.0000
  C   C938      1.0  0.68891  0.10530  0.17543  1.0000
  C   C939      1.0  0.68793  0.10704  0.13744  1.0000
  C   C940      1.0  0.70009  0.10022  0.11473  1.0000
  C   C941      1.0  0.71294  0.09112  0.13031  1.0000
  C   C942      1.0  0.71366  0.08905  0.16843  1.0000
  H   H1673     1.0  0.67952  0.11073  0.19256  1.0000
  H   H1674     1.0  0.67781  0.11392  0.12562  1.0000
  H   H1675     1.0  0.72259  0.08609  0.11309  1.0000
  H   H1676     1.0  0.72370  0.08212  0.18042  1.0000
  C   C943      1.0  0.68521  0.11150  0.43609  1.0000
  H   H1677     1.0  0.66037  0.00789  0.13402  1.0000
  H   H1678     1.0  0.77361  0.14559  0.19499  1.0000
  H   H1679     1.0  0.69114  0.10756  0.41129  1.0000
  H   H1680     1.0  0.82553  0.19840  0.06706  1.0000
  H   H1681     1.0  0.76823  0.10792  0.09475  1.0000
  C   C944      1.0  0.74532  0.20199  0.30272  1.0000
  C   C945      1.0  0.74052  0.20193  0.26554  1.0000
  C   C946      1.0  0.75385  0.21714  0.24308  1.0000
  H   H1682     1.0  0.76840  0.14595  0.43594  1.0000
  H   H1683     1.0  0.76142  0.24263  0.38507  1.0000
  C   C947      1.0  0.76360  0.21691  0.31715  1.0000
  H   H1684     1.0  0.72635  0.19053  0.25433  1.0000
  H   H1685     1.0  0.74990  0.21750  0.21457  1.0000
  Fe  Fe100     1.0  0.66878  0.11976  0.34114  1.0000
  H   H1686     1.0  0.76761  0.21683  0.34567  1.0000
  H   H1687     1.0  0.68730  0.04070  0.14869  1.0000
  C   C948      1.0  0.67035  0.17083  0.41807  1.0000
  H   H1688     1.0  0.73001  0.16769  0.40112  1.0000
  H   H1689     1.0  0.76939  0.16186  0.09867  1.0000
  H   H1690     1.0  0.70922  0.15804  0.16159  1.0000
  H   H1691     1.0  0.70932  0.04598  0.05424  1.0000
  C   C949      1.0  0.88031  0.23299  0.12925  1.0000
  Fe  Fe101     1.0  0.66180  0.13672  0.26829  1.0000
  H   H1692     1.0  0.78909  0.13002  0.11343  1.0000
  C   C950      1.0  0.83469  0.24146  0.08193  1.0000
  N   N53       1.0  0.85779  0.22550  0.11731  1.0000
  C   C951      1.0  0.84564  0.22688  0.15018  1.0000
  C   C952      1.0  0.85119  0.20317  0.10561  1.0000
  H   H1693     1.0  0.68938  0.23284  0.28375  1.0000
  H   H1694     1.0  0.74802  0.19534  0.49383  1.0000
  C   C953      1.0  0.68881  0.01815  0.08085  1.0000
  C   C954      1.0  0.75357  0.13681  0.24036  1.0000
  H   H1695     1.0  0.72755  0.02885  0.11705  1.0000
  C   C955      1.0  0.82834  0.19201  0.09323  1.0000
  C   C956      1.0  0.82332  0.16905  0.08662  1.0000
  C   C957      1.0  0.76227  0.15085  0.20817  1.0000
  H   H1696     1.0  0.78157  0.15960  0.14006  1.0000
  H   H1697     1.0  0.68502  0.21465  0.32051  1.0000
  H   H1698     1.0  0.84601  0.21550  0.17095  1.0000
  H   H1699     1.0  0.76966  0.22692  0.15448  1.0000
  H   H1700     1.0  0.86023  0.20162  0.08185  1.0000
  H   H1701     1.0  0.85462  0.19417  0.12796  1.0000
  H   H1702     1.0  0.88210  0.22539  0.15494  1.0000
  S   S204      1.0  0.67065  0.15097  0.32385  1.0000
  C   C958      1.0  0.75838  0.13099  0.11876  1.0000
  H   H1703     1.0  0.83334  0.24080  0.02251  1.0000
  H   H1704     1.0  0.79773  0.20468  0.39850  1.0000
  C   C959      1.0  0.66647  0.11435  0.43514  1.0000
  H   H1705     1.0  0.75702  0.17036  0.47028  1.0000
  C   C960      1.0  0.76620  0.15462  0.12590  1.0000
  H   H1706     1.0  0.74147  0.13439  0.44687  1.0000
  C   C961      1.0  0.68409  0.21625  0.29052  1.0000
  H   H1707     1.0  0.81743  0.19332  0.11370  1.0000
  H   H1708     1.0  0.89218  0.23416  0.07378  1.0000
  C   C962      1.0  0.69587  0.11285  0.46945  1.0000
  H   H1709     1.0  0.89329  0.21315  0.10033  1.0000
  H   H1710     1.0  0.82349  0.16124  0.11274  1.0000
  H   H1711     1.0  0.79393  0.22339  0.15327  1.0000
  H   H1712     1.0  0.74145  0.14079  0.25401  1.0000
  H   H1713     1.0  0.70416  0.19944  0.44735  1.0000
  H   H1714     1.0  0.83108  0.23835  0.21337  1.0000
  C   C963      1.0  0.73216  0.16938  0.43127  1.0000
  H   H1715     1.0  0.79169  0.20688  0.46471  1.0000
  H   H1716     1.0  0.69231  0.14859  0.09952  1.0000
  H   H1717     1.0  0.74675  0.20464  0.39759  1.0000
  H   H1718     1.0  0.76198  0.20821  0.43800  1.0000
  H   H1719     1.0  0.67429  0.05481  0.12405  1.0000
  H   H1720     1.0  0.71991  0.15543  0.44200  1.0000
  H   H1721     1.0  0.67328  0.03512  0.02803  1.0000
  H   H1722     1.0  0.69470  0.20975  0.27783  1.0000
  C   C964      1.0  0.70906  0.18900  0.43012  1.0000
  C   C965      1.0  0.89524  0.22965  0.10144  1.0000
  H   H1723     1.0  0.77642  0.13173  0.07052  1.0000
  H   H1724     1.0  0.74401  0.12566  0.10179  1.0000
  H   H1725     1.0  0.82904  0.22252  0.14319  1.0000
  H   H1726     1.0  0.80779  0.16189  0.07341  1.0000
  C   C966      1.0  0.75320  0.16774  0.44075  1.0000
  H   H1727     1.0  0.76570  0.17908  0.42506  1.0000
  H   H1728     1.0  0.66100  0.07240  0.03683  1.0000
  H   H1729     1.0  0.71066  0.19543  0.40211  1.0000
  H   H1730     1.0  0.73455  0.13413  0.17511  1.0000
  C   C967      1.0  0.77195  0.23229  0.25781  1.0000
  C   C968      1.0  0.75291  0.14644  0.43048  1.0000
  C   C969      1.0  0.74657  0.20698  0.42756  1.0000
  H   H1731     1.0  0.73072  0.22903  0.42453  1.0000
  H   H1732     1.0  0.66641  0.17896  0.44111  1.0000
  N   N54       1.0  0.72958  0.18884  0.44400  1.0000
  H   H1733     1.0  0.74891  0.14298  0.40105  1.0000
  H   H1734     1.0  0.78450  0.23234  0.11354  1.0000
  H   H1735     1.0  0.83468  0.16664  0.06820  1.0000
  H   H1736     1.0  0.77782  0.18702  0.17076  1.0000
  H   H1737     1.0  0.74685  0.12045  0.23094  1.0000
  H   H1738     1.0  0.70665  0.17465  0.08515  1.0000
  H   H1739     1.0  0.81138  0.19668  0.45596  1.0000
  H   H1740     1.0  0.79090  0.24356  0.30625  1.0000
  H   H1741     1.0  0.75403  0.18992  0.17590  1.0000
  H   H1742     1.0  0.83887  0.22898  0.47034  1.0000
  H   H1743     1.0  0.77056  0.16670  0.21935  1.0000
  H   H1744     1.0  0.72803  0.20505  0.49366  1.0000
  C   C970      1.0  0.70788  0.03876  0.08137  1.0000
  C   C971      1.0  0.66004  0.02084  0.11713  1.0000
  H   H1745     1.0  0.76613  0.13852  0.26061  1.0000
  H   H1746     1.0  0.74749  0.23259  0.46401  1.0000
  C   C972      1.0  0.76850  0.19966  0.12371  1.0000
  H   H1747     1.0  0.72410  0.18353  0.14572  1.0000
  H   H1748     1.0  0.80388  0.23093  0.41336  1.0000
  Fe  Fe102     1.0  0.71693  0.09597  0.02265  1.0000
  C   C973      1.0  0.67206  0.04071  0.13963  1.0000
  H   H1749     1.0  0.73490  0.15679  0.19671  1.0000
  H   H1750     1.0  0.70997  0.10985  0.47019  1.0000
  H   H1751     1.0  0.77874  0.19590  0.10461  1.0000
  H   H1752     1.0  0.79108  0.24086  0.49399  1.0000
  C   C974      1.0  0.71689  0.16702  0.13757  1.0000
  H   H1753     1.0  0.73753  0.16519  0.09486  1.0000
  C   C975      1.0  0.65887  0.11930  0.46755  1.0000
  C   C976      1.0  0.70000  0.16489  0.10897  1.0000
  C   C977      1.0  0.66201  0.20454  0.27611  1.0000
  C   C978      1.0  0.85560  0.23848  0.08591  1.0000
  N   N55       1.0  0.75172  0.16211  0.14641  1.0000
  C   C979      1.0  0.73293  0.15874  0.12239  1.0000
  C   C980      1.0  0.76297  0.18463  0.15613  1.0000
  H   H1754     1.0  0.68814  0.16991  0.12095  1.0000
  H   H1755     1.0  0.69019  0.00894  0.10462  1.0000
  H   H1756     1.0  0.70672  0.04992  0.10167  1.0000
  C   C981      1.0  0.77687  0.23204  0.29479  1.0000
  H   H1757     1.0  0.75442  0.19907  0.10847  1.0000
  H   H1758     1.0  0.75542  0.12241  0.14462  1.0000
  H   H1759     1.0  0.67930  0.05205  0.06616  1.0000
  H   H1760     1.0  0.72426  0.14202  0.11722  1.0000
  C   C982      1.0  0.74476  0.15043  0.18117  1.0000
  C   C983      1.0  0.66790  0.03705  0.05579  1.0000
  C   C984      1.0  0.80766  0.21075  0.45547  1.0000
  H   H1761     1.0  0.68860  0.15878  0.45122  1.0000
  H   H1762     1.0  0.92809  0.23921  0.09201  1.0000
  H   H1763     1.0  0.67158  0.17975  0.39276  1.0000
  C   C985      1.0  0.66051  0.04181  0.17408  1.0000
  H   H1764     1.0  0.66984  0.05574  0.19049  1.0000
  N   N56       1.0  0.66763  0.01937  0.07935  1.0000
  H   H1765     1.0  0.85856  0.23208  0.05960  1.0000
  H   H1766     1.0  0.65926  0.06264  0.49200  1.0000
  C   C986      1.0  0.80849  0.21746  0.41581  1.0000
  H   H1767     1.0  0.69099  0.00978  0.05630  1.0000
  H   H1768     1.0  0.92157  0.23764  0.13951  1.0000
  H   H1769     1.0  0.82254  0.24289  0.47281  1.0000
  S   S205      1.0  0.87724  0.20911  0.00145  1.0000
  H   H1770     1.0  0.68389  0.19677  0.60627  1.0000
  C   C987      1.0  0.82603  0.20559  0.53065  1.0000
  Fe  Fe103     1.0  0.69760  0.15893  0.65340  1.0000
  S   S206      1.0  0.71668  0.14043  0.64032  1.0000
  S   S207      1.0  0.71154  0.19337  0.66445  1.0000
  S   S208      1.0  0.69886  0.07304  0.97932  1.0000
  S   S209      1.0  0.67439  0.09969  0.63789  1.0000
  Fe  Fe104     1.0  0.69756  0.11794  0.68099  1.0000
  S   S210      1.0  0.71424  0.10472  0.72105  1.0000
  Fe  Fe105     1.0  0.69168  0.12438  0.59870  1.0000
  S   S211      1.0  0.70216  0.11868  0.54304  1.0000
  S   S212      1.0  0.68001  0.13751  0.69701  1.0000
  S   S213      1.0  0.67356  0.14430  0.60920  1.0000
  C   C988      1.0  0.84279  0.17134  0.88440  1.0000
  H   H1771     1.0  0.71320  0.16452  0.56456  1.0000
  H   H1772     1.0  0.83346  0.20771  0.55838  1.0000
  S   S214      1.0  0.80741  0.23697  0.63476  1.0000
  C   C989      1.0  0.81464  0.13558  0.88444  1.0000
  H   H1773     1.0  0.82994  0.21344  0.82480  1.0000
  H   H1774     1.0  0.66563  0.19941  0.74817  1.0000
  Fe  Fe106     1.0  0.71828  0.09605  0.93906  1.0000
  S   S215      1.0  0.74337  0.08315  0.93870  1.0000
  S   S216      1.0  0.70246  0.10644  0.89269  1.0000
  C   C990      1.0  0.82609  0.23342  0.91000  1.0000
  H   H1775     1.0  0.76158  0.22321  0.53718  1.0000
  H   H1776     1.0  0.66070  0.19079  0.57835  1.0000
  H   H1777     1.0  0.68038  0.21647  0.57904  1.0000
  H   H1778     1.0  0.79864  0.12604  0.87494  1.0000
  C   C991      1.0  0.83564  0.20045  0.77518  1.0000
  C   C992      1.0  0.83262  0.19941  0.81636  1.0000
  C   C993      1.0  0.82045  0.15778  0.87190  1.0000
  H   H1779     1.0  0.80002  0.17305  0.98901  1.0000
  H   H1780     1.0  0.78829  0.20883  0.52375  1.0000
  H   H1781     1.0  0.85604  0.23248  0.91925  1.0000
  C   C994      1.0  0.71050  0.10479  0.76867  1.0000
  C   C995      1.0  0.72266  0.09805  0.79224  1.0000
  C   C996      1.0  0.72031  0.09823  0.83030  1.0000
  C   C997      1.0  0.70578  0.10523  0.84509  1.0000
  C   C998      1.0  0.69372  0.11210  0.82150  1.0000
  C   C999      1.0  0.69603  0.11186  0.78350  1.0000
  H   H1782     1.0  0.73389  0.09254  0.78099  1.0000
  H   H1783     1.0  0.72969  0.09293  0.84818  1.0000
  H   H1784     1.0  0.68243  0.11751  0.83273  1.0000
  H   H1785     1.0  0.68649  0.11699  0.76575  1.0000
  Fe  Fe107     1.0  0.72456  0.06118  0.98193  1.0000
  H   H1786     1.0  0.66302  0.18527  0.66241  1.0000
  C   C1000     1.0  0.80724  0.18474  0.53244  1.0000
  C   C1001     1.0  0.88758  0.19531  0.88436  1.0000
  C   C1002     1.0  0.81485  0.17155  0.99088  1.0000
  H   H1787     1.0  0.92036  0.20174  0.89167  1.0000
  N   N57       1.0  0.85005  0.19419  0.87727  1.0000
  H   H1788     1.0  0.80041  0.22387  0.74482  1.0000
  H   H1789     1.0  0.83763  0.18637  0.76484  1.0000
  C   C1003     1.0  0.78072  0.22565  0.64259  1.0000
  C   C1004     1.0  0.77006  0.20508  0.63173  1.0000
  C   C1005     1.0  0.74881  0.19539  0.63746  1.0000
  C   C1006     1.0  0.73806  0.20592  0.65504  1.0000
  C   C1007     1.0  0.74867  0.22664  0.66556  1.0000
  C   C1008     1.0  0.67041  0.21059  0.72568  1.0000
  H   H1790     1.0  0.77825  0.19660  0.61864  1.0000
  H   H1791     1.0  0.74083  0.17979  0.62803  1.0000
  N   N58       1.0  0.82174  0.22453  0.52025  1.0000
  H   H1792     1.0  0.82530  0.12872  0.87315  1.0000
  H   H1793     1.0  0.67997  0.20594  0.70647  1.0000
  H   H1794     1.0  0.69015  0.24311  0.72118  1.0000
  H   H1795     1.0  0.87007  0.20345  0.92534  1.0000
  C   C1009     1.0  0.68818  0.11751  0.50197  1.0000
  H   H1796     1.0  0.83274  0.20468  0.99415  1.0000
  H   H1797     1.0  0.67434  0.01133  0.96009  1.0000
  H   H1798     1.0  0.82018  0.19688  0.88228  1.0000
  C   C1010     1.0  0.66976  0.12105  0.50091  1.0000
  H   H1799     1.0  0.80902  0.16347  0.88341  1.0000
  H   H1800     1.0  0.83288  0.19692  0.92389  1.0000
  N   N59       1.0  0.75102  0.17007  0.77254  1.0000
  C   C1011     1.0  0.73078  0.17036  0.75789  1.0000
  C   C1012     1.0  0.75816  0.15699  0.74747  1.0000
  C   C1013     1.0  0.74679  0.15961  0.80907  1.0000
  C   C1014     1.0  0.76761  0.19142  0.77762  1.0000
  C   C1015     1.0  0.76708  0.20823  0.75062  1.0000
  C   C1016     1.0  0.71939  0.17972  0.78432  1.0000
  C   C1017     1.0  0.76469  0.15470  0.82689  1.0000
  C   C1018     1.0  0.76277  0.16436  0.70783  1.0000
  C   C1019     1.0  0.76730  0.14844  0.68447  1.0000
  H   H1801     1.0  0.83745  0.20341  0.51191  1.0000
  C   C1020     1.0  0.70355  0.18623  0.76434  1.0000
  C   C1021     1.0  0.76051  0.14915  0.86697  1.0000
  H   H1802     1.0  0.71988  0.15434  0.75089  1.0000
  H   H1803     1.0  0.73276  0.17862  0.73176  1.0000
  H   H1804     1.0  0.77271  0.15592  0.75810  1.0000
  H   H1805     1.0  0.74651  0.14090  0.74655  1.0000
  H   H1806     1.0  0.73319  0.14476  0.80675  1.0000
  H   H1807     1.0  0.74247  0.16917  0.82925  1.0000
  H   H1808     1.0  0.76699  0.19778  0.80532  1.0000
  H   H1809     1.0  0.78320  0.19059  0.77655  1.0000
  H   H1810     1.0  0.75401  0.21300  0.75675  1.0000
  H   H1811     1.0  0.76506  0.20282  0.72192  1.0000
  H   H1812     1.0  0.71099  0.16801  0.80465  1.0000
  H   H1813     1.0  0.73040  0.19338  0.79934  1.0000
  H   H1814     1.0  0.77962  0.16803  0.82545  1.0000
  H   H1815     1.0  0.76612  0.14119  0.81284  1.0000
  H   H1816     1.0  0.74956  0.16687  0.69471  1.0000
  H   H1817     1.0  0.77672  0.17882  0.70732  1.0000
  H   H1818     1.0  0.78097  0.14578  0.69556  1.0000
  H   H1819     1.0  0.75375  0.13356  0.68349  1.0000
  H   H1820     1.0  0.77053  0.15410  0.65620  1.0000
  C   C1022     1.0  0.71798  0.17334  0.50794  1.0000
  C   C1023     1.0  0.76996  0.23657  0.65908  1.0000
  H   H1821     1.0  0.82329  0.16526  0.51356  1.0000
  H   H1822     1.0  0.71140  0.19886  0.74524  1.0000
  H   H1823     1.0  0.69219  0.17298  0.74891  1.0000
  H   H1824     1.0  0.69511  0.19190  0.78436  1.0000
  H   H1825     1.0  0.77234  0.14370  0.87832  1.0000
  H   H1826     1.0  0.76094  0.16276  0.88326  1.0000
  H   H1827     1.0  0.74516  0.13655  0.86990  1.0000
  H   H1828     1.0  0.91434  0.22436  0.88560  1.0000
  H   H1829     1.0  0.74046  0.23502  0.67889  1.0000
  C   C1024     1.0  0.69713  0.00112  0.98379  1.0000
  H   H1830     1.0  0.81336  0.22873  0.88918  1.0000
  H   H1831     1.0  0.84941  0.21426  0.76828  1.0000
  H   H1832     1.0  0.85280  0.16449  0.87060  1.0000
  H   H1833     1.0  0.84941  0.23364  0.87201  1.0000
  H   H1834     1.0  0.82392  0.16891  0.56259  1.0000
  H   H1835     1.0  0.69776  0.22978  0.75679  1.0000
  H   H1836     1.0  0.79725  0.18156  0.50760  1.0000
  C   C1025     1.0  0.67228  0.20281  0.59589  1.0000
  H   H1837     1.0  0.90929  0.21095  0.92857  1.0000
  H   H1838     1.0  0.82189  0.20159  0.76121  1.0000
  C   C1026     1.0  0.84338  0.22648  0.89837  1.0000
  H   H1839     1.0  0.70147  0.17095  0.50420  1.0000
  H   H1840     1.0  0.72027  0.15894  0.50098  1.0000
  H   H1841     1.0  0.78570  0.23956  0.73543  1.0000
  C   C1027     1.0  0.66172  0.20903  0.62744  1.0000
  H   H1842     1.0  0.79768  0.18496  0.55624  1.0000
  Fe  Fe108     1.0  0.75834  0.10655  0.98437  1.0000
  H   H1843     1.0  0.81914  0.15719  0.84175  1.0000
  C   C1028     1.0  0.81427  0.16672  0.53731  1.0000
  H   H1844     1.0  0.88813  0.19376  0.85433  1.0000
  H   H1845     1.0  0.88389  0.17992  0.89662  1.0000
  C   C1029     1.0  0.78698  0.22748  0.75358  1.0000
  C   C1030     1.0  0.83808  0.24298  0.53910  1.0000
  H   H1846     1.0  0.73962  0.17969  0.55440  1.0000
  H   H1847     1.0  0.81841  0.18595  0.82182  1.0000
  H   H1848     1.0  0.85658  0.18684  0.82261  1.0000
  C   C1031     1.0  0.79387  0.24086  0.52385  1.0000
  H   H1849     1.0  0.87800  0.22108  0.88904  1.0000
  H   H1850     1.0  0.81520  0.13501  0.91466  1.0000
  H   H1851     1.0  0.80053  0.15213  0.53951  1.0000
  H   H1852     1.0  0.67754  0.07512  0.52865  1.0000
  C   C1032     1.0  0.87125  0.20431  0.89517  1.0000
  C   C1033     1.0  0.66418  0.06098  0.52036  1.0000
  H   H1853     1.0  0.72088  0.19179  0.55775  1.0000
  C   C1034     1.0  0.72332  0.17772  0.54856  1.0000
  C   C1035     1.0  0.83571  0.20266  0.89565  1.0000
  C   C1036     1.0  0.85190  0.19845  0.83687  1.0000
  H   H1854     1.0  0.84422  0.16886  0.91419  1.0000
  C   C1037     1.0  0.80093  0.22303  0.53393  1.0000
  C   C1038     1.0  0.90919  0.20899  0.89846  1.0000
  H   H1855     1.0  0.81997  0.22672  0.93667  1.0000
  H   H1856     1.0  0.86463  0.21357  0.83179  1.0000
  H   H1857     1.0  0.80075  0.22161  0.56406  1.0000
  H   H1858     1.0  0.67381  0.22152  0.64332  1.0000
  S   S217      1.0  0.73400  0.12013  0.98239  1.0000
  C   C1039     1.0  0.83345  0.18952  0.99376  1.0000
  S   S218      1.0  0.71789  0.02612  0.98786  1.0000
  H   H1859     1.0  0.86437  0.23272  0.53284  1.0000
  C   C1040     1.0  0.68426  0.23136  0.74262  1.0000
  H   H1860     1.0  0.78976  0.23372  0.78195  1.0000
  H   H1861     1.0  0.83643  0.24169  0.56929  1.0000
  H   H1862     1.0  0.66386  0.12495  0.52574  1.0000
  Fe  Fe109     1.0  0.89343  0.24389  0.98999  1.0000
  C   C1041     1.0  0.77379  0.23862  0.54264  1.0000
  H   H1863     1.0  0.77655  0.24089  0.57255  1.0000
  S   S219      1.0  0.79311  0.12799  0.98819  1.0000
  H   H1864     1.0  0.67563  0.23673  0.76279  1.0000
  C   C1042     1.0  0.67742  0.99816  0.96954  1.0000
  C   C1043     1.0  0.81553  0.15165  0.99083  1.0000
  H   H1865     1.0  0.66932  0.04779  0.52097  1.0000
  C   C1044     1.0  0.85286  0.18773  0.99644  1.0000
  C   C1045     1.0  0.85328  0.16788  0.99630  1.0000
  H   H1866     1.0  0.83590  0.13509  0.99344  1.0000
  C   C1046     1.0  0.83496  0.15017  0.99335  1.0000
  H   H1867     1.0  0.86798  0.16609  0.99859  1.0000
  H   H1868     1.0  0.82381  0.25146  0.17640  1.0000
  S   S220      1.0  0.85045  0.46035  0.34730  1.0000
  C   C1047     1.0  0.76292  0.24541  0.41502  1.0000
  C   C1048     1.0  0.87002  0.31279  0.47116  1.0000
  S   S221      1.0  0.86142  0.47012  0.26009  1.0000
  Fe  Fe110     1.0  0.83697  0.47028  0.29876  1.0000
  S   S222      1.0  0.80311  0.45507  0.28463  1.0000
  Fe  Fe111     1.0  0.87652  0.46321  0.31018  1.0000
  S   S223      1.0  0.89033  0.43876  0.31104  1.0000
  H   H1869     1.0  0.79110  0.41390  0.39407  1.0000
  Fe  Fe112     1.0  0.85932  0.29931  0.26597  1.0000
  S   S224      1.0  0.83324  0.30517  0.23856  1.0000
  H   H1870     1.0  0.78002  0.43246  0.38082  1.0000
  Fe  Fe113     1.0  0.83615  0.28733  0.33805  1.0000
  S   S225      1.0  0.80830  0.29161  0.31411  1.0000
  S   S226      1.0  0.82997  0.27477  0.39540  1.0000
  Fe  Fe114     1.0  0.81321  0.27568  0.26416  1.0000
  Fe  Fe115     1.0  0.83119  0.32058  0.29127  1.0000
  S   S227      1.0  0.82256  0.34843  0.29431  1.0000
  S   S228      1.0  0.88499  0.30199  0.05953  1.0000
  S   S229      1.0  0.85905  0.31737  0.31760  1.0000
  Fe  Fe116     1.0  0.71665  0.47349  0.37290  1.0000
  H   H1871     1.0  0.75532  0.45556  0.23631  1.0000
  Fe  Fe117     1.0  0.67606  0.44547  0.33698  1.0000
  H   H1872     1.0  0.86775  0.25436  0.08771  1.0000
  Fe  Fe118     1.0  0.67606  0.47411  0.39906  1.0000
  H   H1873     1.0  0.75267  0.47775  0.18596  1.0000
  S   S230      1.0  0.70592  0.46758  0.31430  1.0000
  S   S231      1.0  0.68841  0.44904  0.39451  1.0000
  S   S232      1.0  0.65981  0.41349  0.31298  1.0000
  H   H1874     1.0  0.81858  0.34834  0.15254  1.0000
  H   H1875     1.0  0.76202  0.26064  0.42072  1.0000
  H   H1876     1.0  0.81493  0.41855  0.47940  1.0000
  H   H1877     1.0  0.92091  0.25893  0.11255  1.0000
  S   S233      1.0  0.88744  0.30171  0.23299  1.0000
  H   H1878     1.0  0.66322  0.48392  0.13901  1.0000
  H   H1879     1.0  0.81009  0.34672  0.19894  1.0000
  H   H1880     1.0  0.85369  0.43485  0.47748  1.0000
  S   S234      1.0  0.83928  0.26887  0.28943  1.0000
  H   H1881     1.0  0.86037  0.38728  0.44898  1.0000
  C   C1049     1.0  0.79387  0.44099  0.45286  1.0000
  H   H1882     1.0  0.78684  0.47920  0.23915  1.0000
  C   C1050     1.0  0.78800  0.46126  0.31669  1.0000
  C   C1051     1.0  0.76644  0.45170  0.31425  1.0000
  C   C1052     1.0  0.75413  0.45715  0.33879  1.0000
  C   C1053     1.0  0.76342  0.47186  0.36628  1.0000
  H   H1883     1.0  0.83389  0.38312  0.44334  1.0000
  H   H1884     1.0  0.84560  0.26632  0.04297  1.0000
  H   H1885     1.0  0.75925  0.44001  0.29343  1.0000
  H   H1886     1.0  0.73747  0.44974  0.33673  1.0000
  C   C1054     1.0  0.80926  0.47606  0.47719  1.0000
  C   C1055     1.0  0.67170  0.48597  0.48951  1.0000
  C   C1056     1.0  0.87169  0.41364  0.30520  1.0000
  C   C1057     1.0  0.85096  0.41046  0.29838  1.0000
  C   C1058     1.0  0.83609  0.39035  0.29473  1.0000
  C   C1059     1.0  0.84186  0.37332  0.29761  1.0000
  C   C1060     1.0  0.86263  0.37643  0.30400  1.0000
  C   C1061     1.0  0.87754  0.39660  0.30786  1.0000
  H   H1887     1.0  0.84632  0.42350  0.29607  1.0000
  H   H1888     1.0  0.82003  0.38802  0.28975  1.0000
  H   H1889     1.0  0.86711  0.36333  0.30642  1.0000
  H   H1890     1.0  0.89358  0.39907  0.31325  1.0000
  C   C1062     1.0  0.79726  0.47574  0.34457  1.0000
  C   C1063     1.0  0.84087  0.28910  0.43555  1.0000
  C   C1064     1.0  0.86126  0.30346  0.43744  1.0000
  C   C1065     1.0  0.83285  0.25103  0.04550  1.0000
  H   H1891     1.0  0.87048  0.30680  0.41323  1.0000
  H   H1892     1.0  0.88594  0.32354  0.47266  1.0000
  H   H1893     1.0  0.88632  0.24984  0.13577  1.0000
  C   C1066     1.0  0.79467  0.43023  0.38689  1.0000
  H   H1894     1.0  0.85686  0.35618  0.47685  1.0000
  N   N60       1.0  0.84146  0.35730  0.42569  1.0000
  C   C1067     1.0  0.84156  0.34835  0.46289  1.0000
  C   C1068     1.0  0.85695  0.35285  0.40249  1.0000
  C   C1069     1.0  0.82047  0.34776  0.40704  1.0000
  C   C1070     1.0  0.81103  0.32381  0.40472  1.0000
  C   C1071     1.0  0.72315  0.44826  0.22474  1.0000
  C   C1072     1.0  0.87993  0.36319  0.41523  1.0000
  C   C1073     1.0  0.89416  0.35928  0.38749  1.0000
  C   C1074     1.0  0.78981  0.31611  0.38553  1.0000
  H   H1895     1.0  0.91466  0.29562  0.17983  1.0000
  H   H1896     1.0  0.85818  0.26075  0.14959  1.0000
  H   H1897     1.0  0.83971  0.33191  0.46052  1.0000
  H   H1898     1.0  0.85352  0.33601  0.40135  1.0000
  H   H1899     1.0  0.85553  0.35705  0.37367  1.0000
  H   H1900     1.0  0.81332  0.27385  0.46580  1.0000
  H   H1901     1.0  0.80909  0.35305  0.42027  1.0000
  H   H1902     1.0  0.82120  0.35314  0.37845  1.0000
  H   H1903     1.0  0.80893  0.31691  0.43213  1.0000
  H   H1904     1.0  0.82099  0.31777  0.38896  1.0000
  C   C1075     1.0  0.85550  0.41551  0.40261  1.0000
  H   H1905     1.0  0.71145  0.45542  0.22631  1.0000
  H   H1906     1.0  0.88485  0.38011  0.41874  1.0000
  H   H1907     1.0  0.88251  0.35674  0.44153  1.0000
  H   H1908     1.0  0.89273  0.36609  0.36086  1.0000
  H   H1909     1.0  0.91048  0.36653  0.39738  1.0000
  H   H1910     1.0  0.89029  0.34247  0.38361  1.0000
  H   H1911     1.0  0.77887  0.32107  0.40083  1.0000
  H   H1912     1.0  0.79109  0.32211  0.35736  1.0000
  H   H1913     1.0  0.78352  0.29899  0.38379  1.0000
  H   H1914     1.0  0.67320  0.43837  0.23079  1.0000
  H   H1915     1.0  0.81389  0.48283  0.34719  1.0000
  H   H1916     1.0  0.83633  0.45872  0.47370  1.0000
  H   H1917     1.0  0.81104  0.46076  0.40841  1.0000
  H   H1918     1.0  0.72382  0.44312  0.19624  1.0000
  H   H1919     1.0  0.82566  0.48587  0.22910  1.0000
  C   C1076     1.0  0.88584  0.29994  0.18466  1.0000
  H   H1920     1.0  0.86709  0.25016  0.18749  1.0000
  H   H1921     1.0  0.83759  0.38694  0.37541  1.0000
  H   H1922     1.0  0.91385  0.29501  0.11191  1.0000
  C   C1077     1.0  0.86911  0.30208  0.12695  1.0000
  C   C1078     1.0  0.86930  0.30192  0.16525  1.0000
  C   C1079     1.0  0.85341  0.24826  0.16968  1.0000
  C   C1080     1.0  0.80684  0.44474  0.41786  1.0000
  C   C1081     1.0  0.78499  0.48094  0.36951  1.0000
  C   C1082     1.0  0.84676  0.38020  0.43016  1.0000
  H   H1923     1.0  0.86472  0.39199  0.38082  1.0000
  S   S235      1.0  0.66167  0.46902  0.34254  1.0000
  H   H1924     1.0  0.78871  0.48639  0.19312  1.0000
  C   C1083     1.0  0.90178  0.29717  0.16513  1.0000
  Fe  Fe119     1.0  0.89916  0.28702  0.01825  1.0000
  C   C1084     1.0  0.82919  0.28464  0.46725  1.0000
  H   H1925     1.0  0.85916  0.42421  0.37687  1.0000
  N   N61       1.0  0.88217  0.36504  0.18202  1.0000
  C   C1085     1.0  0.88520  0.35779  0.21951  1.0000
  C   C1086     1.0  0.85982  0.35411  0.17003  1.0000
  C   C1087     1.0  0.89532  0.35852  0.15617  1.0000
  C   C1088     1.0  0.88855  0.38820  0.18008  1.0000
  C   C1089     1.0  0.88583  0.39970  0.21480  1.0000
  C   C1090     1.0  0.90802  0.36398  0.23269  1.0000
  C   C1091     1.0  0.89163  0.36085  0.11494  1.0000
  C   C1092     1.0  0.84338  0.35765  0.19393  1.0000
  C   C1093     1.0  0.88858  0.42191  0.20637  1.0000
  C   C1094     1.0  0.90956  0.36036  0.27342  1.0000
  C   C1095     1.0  0.90883  0.35854  0.09233  1.0000
  H   H1926     1.0  0.87797  0.34061  0.22045  1.0000
  H   H1927     1.0  0.87705  0.36318  0.24034  1.0000
  H   H1928     1.0  0.85708  0.35890  0.14226  1.0000
  H   H1929     1.0  0.85601  0.33718  0.16807  1.0000
  H   H1930     1.0  0.89313  0.34214  0.16042  1.0000
  H   H1931     1.0  0.91204  0.36747  0.16210  1.0000
  H   H1932     1.0  0.90521  0.39579  0.17343  1.0000
  H   H1933     1.0  0.88015  0.39211  0.15706  1.0000
  H   H1934     1.0  0.89762  0.40032  0.23594  1.0000
  H   H1935     1.0  0.87050  0.39219  0.22699  1.0000
  H   H1936     1.0  0.91514  0.35438  0.21824  1.0000
  H   H1937     1.0  0.91724  0.38042  0.22720  1.0000
  H   H1938     1.0  0.89097  0.37612  0.10923  1.0000
  H   H1939     1.0  0.87686  0.34857  0.10547  1.0000
  H   H1940     1.0  0.84487  0.35383  0.22277  1.0000
  H   H1941     1.0  0.84466  0.37388  0.19214  1.0000
  H   H1942     1.0  0.87655  0.42221  0.18643  1.0000
  H   H1943     1.0  0.88699  0.42994  0.23167  1.0000
  H   H1944     1.0  0.90416  0.43049  0.19540  1.0000
  H   H1945     1.0  0.90057  0.34395  0.27974  1.0000
  H   H1946     1.0  0.92597  0.36406  0.28156  1.0000
  H   H1947     1.0  0.90370  0.37041  0.28951  1.0000
  H   H1948     1.0  0.90503  0.35873  0.06286  1.0000
  H   H1949     1.0  0.92381  0.37140  0.09849  1.0000
  H   H1950     1.0  0.91043  0.34366  0.09806  1.0000
  H   H1951     1.0  0.80399  0.43356  0.36185  1.0000
  C   C1096     1.0  0.85106  0.39276  0.39461  1.0000
  H   H1952     1.0  0.84362  0.26585  0.20877  1.0000
  N   N62       1.0  0.80461  0.45373  0.48605  1.0000
  H   H1953     1.0  0.79529  0.47776  0.46475  1.0000
  H   H1954     1.0  0.81907  0.32762  0.18119  1.0000
  H   H1955     1.0  0.74282  0.46738  0.26671  1.0000
  H   H1956     1.0  0.77948  0.44377  0.44617  1.0000
  H   H1957     1.0  0.85682  0.30375  0.17963  1.0000
  H   H1958     1.0  0.73617  0.45564  0.47316  1.0000
  H   H1959     1.0  0.88281  0.47529  0.43053  1.0000
  H   H1960     1.0  0.85652  0.30427  0.11234  1.0000
  C   C1097     1.0  0.90131  0.29672  0.12665  1.0000
  H   H1961     1.0  0.86905  0.42224  0.42156  1.0000
  S   S236      1.0  0.91707  0.26677  0.02831  1.0000
  H   H1962     1.0  0.84180  0.41743  0.41439  1.0000
  S   S237      1.0  0.78828  0.25168  0.23017  1.0000
  H   H1963     1.0  0.78849  0.42426  0.45804  1.0000
  H   H1964     1.0  0.71670  0.47748  0.49258  1.0000
  H   H1965     1.0  0.82127  0.44191  0.42252  1.0000
  C   C1098     1.0  0.74433  0.46354  0.23786  1.0000
  C   C1099     1.0  0.88512  0.29956  0.10745  1.0000
  H   H1966     1.0  0.71820  0.43452  0.24241  1.0000
  H   H1967     1.0  0.66835  0.47072  0.20787  1.0000
  C   C1100     1.0  0.82149  0.34422  0.18068  1.0000
  H   H1968     1.0  0.82150  0.48155  0.45638  1.0000
  C   C1101     1.0  0.88038  0.48177  0.45610  1.0000
  H   H1969     1.0  0.70252  0.48797  0.23843  1.0000
  C   C1102     1.0  0.75161  0.48308  0.21420  1.0000
  H   H1970     1.0  0.71025  0.48877  0.17245  1.0000
  H   H1971     1.0  0.80926  0.34182  0.47835  1.0000
  H   H1972     1.0  0.73892  0.48892  0.21295  1.0000
  Fe  Fe120     1.0  0.86753  0.49406  0.35863  1.0000
  H   H1973     1.0  0.83344  0.25200  0.10372  1.0000
  H   H1974     1.0  0.77834  0.24609  0.42462  1.0000
  S   S238      1.0  0.74831  0.47928  0.39646  1.0000
  C   C1103     1.0  0.82518  0.34995  0.48951  1.0000
  H   H1975     1.0  0.88599  0.49436  0.19178  1.0000
  C   C1104     1.0  0.83689  0.25099  0.19346  1.0000
  H   H1976     1.0  0.90315  0.42874  0.48782  1.0000
  Fe  Fe121     1.0  0.69249  0.49158  0.32408  1.0000
  H   H1977     1.0  0.81795  0.25327  0.04375  1.0000
  H   H1978     1.0  0.89266  0.49126  0.12616  1.0000
  H   H1979     1.0  0.89124  0.46246  0.48921  1.0000
  C   C1105     1.0  0.88512  0.47450  0.48943  1.0000
  H   H1980     1.0  0.77162  0.49371  0.28380  1.0000
  H   H1981     1.0  0.79223  0.49224  0.39090  1.0000
  H   H1982     1.0  0.75207  0.49364  0.46735  1.0000
  C   C1106     1.0  0.78900  0.49254  0.22129  1.0000
  H   H1983     1.0  0.82756  0.36629  0.49491  1.0000
  C   C1107     1.0  0.82486  0.45157  0.49514  1.0000
  H   H1984     1.0  0.98709  0.33264  0.00511  1.0000
  Fe  Fe122     1.0  0.85324  0.45047  0.68296  1.0000
  S   S239      1.0  0.88343  0.47656  0.67318  1.0000
  S   S240      1.0  0.85596  0.42418  0.71471  1.0000
  Fe  Fe123     1.0  0.82853  0.47125  0.64216  1.0000
  H   H1985     1.0  0.91117  0.44714  0.52522  1.0000
  S   S241      1.0  0.91290  0.25689  0.94092  1.0000
  C   C1108     1.0  0.68373  0.48268  0.55112  1.0000
  C   C1109     1.0  0.77547  0.42550  0.52203  1.0000
  S   S242      1.0  0.84203  0.44833  0.62495  1.0000
  S   S243      1.0  0.83674  0.47074  0.70164  1.0000
  Fe  Fe124     1.0  0.82409  0.31433  0.65161  1.0000
  S   S244      1.0  0.85838  0.32933  0.64545  1.0000
  S   S245      1.0  0.80478  0.33368  0.65608  1.0000
  H   H1986     1.0  0.91751  0.39695  0.62091  1.0000
  Fe  Fe125     1.0  0.85976  0.30394  0.68147  1.0000
  S   S246      1.0  0.88536  0.31096  0.72485  1.0000
  Fe  Fe126     1.0  0.85340  0.30727  0.59812  1.0000
  S   S247      1.0  0.86988  0.31924  0.54522  1.0000
  S   S248      1.0  0.82560  0.29052  0.69127  1.0000
  S   S249      1.0  0.81892  0.29380  0.60201  1.0000
  H   H1987     1.0  0.90387  0.44758  0.69263  1.0000
  S   S250      1.0  0.68177  0.47345  0.74930  1.0000
  H   H1988     1.0  0.83133  0.49188  0.52191  1.0000
  S   S251      1.0  0.68072  0.46403  0.66003  1.0000
  H   H1989     1.0  0.73048  0.48328  0.84359  1.0000
  H   H1990     1.0  0.78317  0.41446  0.51825  1.0000
  Fe  Fe127     1.0  0.70377  0.47130  0.70697  1.0000
  S   S252      1.0  0.72514  0.45523  0.72215  1.0000
  C   C1110     1.0  0.86066  0.28126  0.81799  1.0000
  Fe  Fe128     1.0  0.89522  0.27778  0.93555  1.0000
  H   H1991     1.0  0.84919  0.28467  0.76426  1.0000
  H   H1992     1.0  0.89212  0.26660  0.54692  1.0000
  H   H1993     1.0  0.89244  0.39989  0.53152  1.0000
  C   C1111     1.0  0.86272  0.28816  0.78182  1.0000
  C   C1112     1.0  0.88223  0.30004  0.76879  1.0000
  C   C1113     1.0  0.74463  0.49006  0.82726  1.0000
  S   S253      1.0  0.97073  0.29006  0.97355  1.0000
  H   H1994     1.0  0.82471  0.37572  0.59498  1.0000
  C   C1114     1.0  0.91207  0.42455  0.66355  1.0000
  C   C1115     1.0  0.79584  0.47724  0.77566  1.0000
  C   C1116     1.0  0.84530  0.42856  0.50277  1.0000
  H   H1995     1.0  0.92437  0.42970  0.51751  1.0000
  H   H1996     1.0  0.91409  0.35562  0.90104  1.0000
  H   H1997     1.0  0.91931  0.41352  0.67151  1.0000
  H   H1998     1.0  0.92756  0.36804  0.60050  1.0000
  C   C1117     1.0  0.77836  0.46575  0.64479  1.0000
  C   C1118     1.0  0.77792  0.45592  0.67787  1.0000
  C   C1119     1.0  0.76126  0.45235  0.70117  1.0000
  C   C1120     1.0  0.74536  0.45914  0.69193  1.0000
  C   C1121     1.0  0.74584  0.46904  0.65887  1.0000
  H   H1999     1.0  0.77807  0.25254  0.66727  1.0000
  H   H2000     1.0  0.79017  0.45068  0.68519  1.0000
  H   H2001     1.0  0.76069  0.44435  0.72643  1.0000
  H   H2002     1.0  0.79990  0.45297  0.54425  1.0000
  C   C1122     1.0  0.89386  0.41539  0.54095  1.0000
  H   H2003     1.0  0.76822  0.25058  0.53268  1.0000
  H   H2004     1.0  0.87857  0.41642  0.53637  1.0000
  H   H2005     1.0  0.67252  0.45779  0.51116  1.0000
  C   C1123     1.0  0.84067  0.39902  0.69987  1.0000
  C   C1124     1.0  0.82196  0.39454  0.68068  1.0000
  C   C1125     1.0  0.81066  0.37428  0.66805  1.0000
  C   C1126     1.0  0.81836  0.35869  0.67369  1.0000
  C   C1127     1.0  0.83701  0.36324  0.69297  1.0000
  C   C1128     1.0  0.84790  0.38326  0.70661  1.0000
  H   H2006     1.0  0.81621  0.40664  0.67561  1.0000
  H   H2007     1.0  0.79615  0.37078  0.65328  1.0000
  H   H2008     1.0  0.84289  0.35126  0.69766  1.0000
  H   H2009     1.0  0.86233  0.38680  0.72141  1.0000
  S   S254      1.0  0.91804  0.30337  0.97037  1.0000
  H   H2010     1.0  0.91120  0.30071  0.84559  1.0000
  H   H2011     1.0  0.68690  0.47338  0.57197  1.0000
  N   N63       1.0  0.87444  0.35795  0.81560  1.0000
  C   C1129     1.0  0.86753  0.37590  0.81316  1.0000
  C   C1130     1.0  0.85589  0.33810  0.80968  1.0000
  C   C1131     1.0  0.88246  0.35777  0.85413  1.0000
  C   C1132     1.0  0.89144  0.35944  0.78940  1.0000
  C   C1133     1.0  0.89109  0.36961  0.75210  1.0000
  C   C1134     1.0  0.88398  0.39721  0.82503  1.0000
  C   C1135     1.0  0.88825  0.33906  0.86380  1.0000
  C   C1136     1.0  0.84374  0.33522  0.77300  1.0000
  C   C1137     1.0  0.82296  0.31707  0.77441  1.0000
  C   C1138     1.0  0.90916  0.37013  0.72873  1.0000
  C   C1139     1.0  0.87831  0.41490  0.81088  1.0000
  H   H2012     1.0  0.85375  0.37314  0.83031  1.0000
  H   H2013     1.0  0.86212  0.37741  0.78520  1.0000
  H   H2014     1.0  0.86053  0.32459  0.81109  1.0000
  H   H2015     1.0  0.84479  0.33622  0.83212  1.0000
  H   H2016     1.0  0.87086  0.35833  0.87421  1.0000
  H   H2017     1.0  0.89661  0.37177  0.85975  1.0000
  H   H2018     1.0  0.90692  0.36835  0.80208  1.0000
  H   H2019     1.0  0.89155  0.34384  0.78363  1.0000
  H   H2020     1.0  0.89258  0.38584  0.75570  1.0000
  H   H2021     1.0  0.87664  0.36119  0.73646  1.0000
  H   H2022     1.0  0.88502  0.39852  0.85526  1.0000
  H   H2023     1.0  0.89952  0.39928  0.81499  1.0000
  S   S255      1.0  0.88712  0.47261  0.56440  1.0000
  H   H2024     1.0  0.87417  0.32475  0.86525  1.0000
  H   H2025     1.0  0.84021  0.34884  0.76584  1.0000
  H   H2026     1.0  0.85265  0.33175  0.75090  1.0000
  H   H2027     1.0  0.81450  0.31552  0.74793  1.0000
  H   H2028     1.0  0.82527  0.30249  0.77964  1.0000
  H   H2029     1.0  0.81325  0.31967  0.79603  1.0000
  H   H2030     1.0  0.90818  0.37703  0.70201  1.0000
  H   H2031     1.0  0.92414  0.37956  0.74236  1.0000
  H   H2032     1.0  0.90872  0.35433  0.72368  1.0000
  H   H2033     1.0  0.80517  0.48813  0.53158  1.0000
  H   H2034     1.0  0.86279  0.41343  0.82034  1.0000
  H   H2035     1.0  0.88985  0.42988  0.82108  1.0000
  C   C1140     1.0  0.73058  0.47816  0.50852  1.0000
  H   H2036     1.0  0.88928  0.34404  0.92270  1.0000
  C   C1141     1.0  0.89927  0.34203  0.90099  1.0000
  H   H2037     1.0  0.71863  0.44475  0.50962  1.0000
  H   H2038     1.0  0.86001  0.41802  0.58443  1.0000
  H   H2039     1.0  0.76896  0.49436  0.88659  1.0000
  H   H2040     1.0  0.81566  0.34287  0.54548  1.0000
  H   H2041     1.0  0.89844  0.43438  0.58888  1.0000
  H   H2042     1.0  0.77756  0.42434  0.58132  1.0000
  H   H2043     1.0  0.90065  0.42477  0.71842  1.0000
  H   H2044     1.0  0.75740  0.43245  0.56452  1.0000
  H   H2045     1.0  0.76230  0.47923  0.60921  1.0000
  H   H2046     1.0  0.89867  0.33680  0.84326  1.0000
  Fe  Fe129     1.0  0.82381  0.27143  0.64087  1.0000
  H   H2047     1.0  0.92244  0.43604  0.64485  1.0000
  H   H2048     1.0  0.82883  0.29036  0.52506  1.0000
  H   H2049     1.0  0.77875  0.47217  0.77290  1.0000
  H   H2050     1.0  0.91772  0.42401  0.58377  1.0000
  C   C1142     1.0  0.85846  0.30778  0.50308  1.0000
  C   C1143     1.0  0.88167  0.48250  0.52288  1.0000
  C   C1144     1.0  0.91172  0.36002  0.58874  1.0000
  C   C1145     1.0  0.76218  0.47202  0.63508  1.0000
  H   H2051     1.0  0.85040  0.40667  0.62692  1.0000
  S   S256      1.0  0.87415  0.27809  0.88731  1.0000
  H   H2052     1.0  0.86606  0.38352  0.57093  1.0000
  H   H2053     1.0  0.89400  0.37752  0.63532  1.0000
  C   C1146     1.0  0.87808  0.28580  0.84131  1.0000
  H   H2054     1.0  0.91486  0.31346  0.78201  1.0000
  C   C1147     1.0  0.90183  0.37548  0.57898  1.0000
  Fe  Fe130     1.0  0.87090  0.47601  0.61591  1.0000
  C   C1148     1.0  0.90068  0.41983  0.58173  1.0000
  C   C1149     1.0  0.86758  0.39087  0.59824  1.0000
  H   H2055     1.0  0.90272  0.32814  0.90720  1.0000
  H   H2056     1.0  0.72771  0.47929  0.53794  1.0000
  C   C1150     1.0  0.89768  0.29708  0.82793  1.0000
  H   H2057     1.0  0.88623  0.36653  0.56724  1.0000
  C   C1151     1.0  0.89970  0.30432  0.79191  1.0000
  C   C1152     1.0  0.83794  0.29391  0.50083  1.0000
  H   H2058     1.0  0.73344  0.47404  0.65144  1.0000
  H   H2059     1.0  0.91164  0.38566  0.55804  1.0000
  H   H2060     1.0  0.79979  0.47460  0.80411  1.0000
  H   H2061     1.0  0.84544  0.27254  0.82812  1.0000
  H   H2062     1.0  0.86089  0.37777  0.61725  1.0000
  C   C1153     1.0  0.83208  0.39062  0.58091  1.0000
  H   H2063     1.0  0.87434  0.25816  0.58378  1.0000
  H   H2064     1.0  0.87822  0.41500  0.78062  1.0000
  C   C1154     1.0  0.81668  0.49174  0.50968  1.0000
  C   C1155     1.0  0.90103  0.38843  0.61288  1.0000
  H   H2065     1.0  0.83373  0.38743  0.55178  1.0000
  C   C1156     1.0  0.85316  0.40313  0.59854  1.0000
  Fe  Fe131     1.0  0.65988  0.46940  0.70154  1.0000
  N   N64       1.0  0.88994  0.40312  0.60855  1.0000
  H   H2066     1.0  0.91282  0.35141  0.56381  1.0000
  S   S257      1.0  0.85818  0.28329  0.63334  1.0000
  H   H2067     1.0  0.84251  0.34755  0.53838  1.0000
  H   H2068     1.0  0.92617  0.44377  0.71109  1.0000
  H   H2069     1.0  0.82182  0.39942  0.58305  1.0000
  C   C1157     1.0  0.82665  0.34043  0.52624  1.0000
  H   H2070     1.0  0.88114  0.40137  0.66500  1.0000
  Fe  Fe132     1.0  0.93517  0.28183  0.97860  1.0000
  H   H2071     1.0  0.90215  0.34868  0.60856  1.0000
  H   H2072     1.0  0.75422  0.40571  0.56097  1.0000
  S   S258      1.0  0.79896  0.47037  0.61514  1.0000
  C   C1158     1.0  0.89040  0.41311  0.64546  1.0000
  S   S259      1.0  0.87505  0.26352  0.98286  1.0000
  C   C1159     1.0  0.76557  0.42183  0.55948  1.0000
  C   C1160     1.0  0.91054  0.43583  0.69854  1.0000
  H   H2073     1.0  0.88305  0.42471  0.64373  1.0000
  H   H2074     1.0  0.83207  0.46054  0.52038  1.0000
  H   H2075     1.0  0.70207  0.49076  0.88385  1.0000
  H   H2076     1.0  0.81660  0.42383  0.52798  1.0000
  H   H2077     1.0  0.78630  0.49471  0.71836  1.0000
  H   H2078     1.0  0.83613  0.25747  0.53205  1.0000
  C   C1161     1.0  0.87599  0.26341  0.55515  1.0000
  H   H2079     1.0  0.86421  0.25241  0.50171  1.0000
  C   C1162     1.0  0.90911  0.43123  0.51645  1.0000
  H   H2080     1.0  0.83226  0.25050  0.91298  1.0000
  H   H2081     1.0  0.87321  0.27798  0.55339  1.0000
  H   H2082     1.0  0.85429  0.43757  0.52667  1.0000
  C   C1163     1.0  0.67584  0.47394  0.51661  1.0000
  H   H2083     1.0  0.88119  0.49372  0.77442  1.0000
  H   H2084     1.0  0.75248  0.47895  0.82558  1.0000
  H   H2085     1.0  0.74593  0.45688  0.51966  1.0000
  H   H2086     1.0  0.80536  0.25607  0.53252  1.0000
  H   H2087     1.0  0.82254  0.32358  0.52297  1.0000
  H   H2088     1.0  0.73975  0.49248  0.79928  1.0000
  H   H2089     1.0  0.80120  0.46776  0.75706  1.0000
  H   H2090     1.0  0.84403  0.41237  0.50516  1.0000
  H   H2091     1.0  0.76280  0.42185  0.50114  1.0000
  C   C1164     1.0  0.79054  0.44826  0.51845  1.0000
  H   H2092     1.0  0.78026  0.45714  0.51812  1.0000
  C   C1165     1.0  0.73309  0.45764  0.50227  1.0000
  H   H2093     1.0  0.89255  0.49515  0.83925  1.0000
  C   C1166     1.0  0.86089  0.24683  0.53001  1.0000
  C   C1167     1.0  0.82377  0.42936  0.50140  1.0000
  H   H2094     1.0  0.83175  0.56144  0.18951  1.0000
  H   H2095     1.0  0.81036  0.54896  0.46565  1.0000
  C   C1168     1.0  0.77444  0.51866  0.20287  1.0000
  C   C1169     1.0  0.77346  0.51038  0.00502  1.0000
  Fe  Fe133     1.0  0.91372  0.54538  0.02622  1.0000
  S   S260      1.0  0.92681  0.57963  0.03529  1.0000
  S   S261      1.0  0.90735  0.52085  0.06959  1.0000
  H   H2096     1.0  0.83180  0.62742  0.03093  1.0000
  Fe  Fe134     1.0  0.75708  0.57672  0.03109  1.0000
  C   C1170     1.0  0.85353  0.53167  0.06137  1.0000
  H   H2097     1.0  0.92816  0.61145  0.09455  1.0000
  H   H2098     1.0  0.89614  0.58019  0.09066  1.0000
  H   H2099     1.0  0.83780  0.55250  0.06562  1.0000
  Fe  Fe135     1.0  0.72391  0.54396  0.07478  1.0000
  S   S262      1.0  0.73573  0.57874  0.07588  1.0000
  S   S263      1.0  0.71860  0.51969  0.11877  1.0000
  H   H2100     1.0  0.87740  0.60913  0.12537  1.0000
  H   H2101     1.0  0.84321  0.51227  0.22585  1.0000
  H   H2102     1.0  0.65970  0.64807  0.13694  1.0000
  H   H2103     1.0  0.66619  0.68537  0.13269  1.0000
  H   H2104     1.0  0.80590  0.56223  0.00916  1.0000
  Fe  Fe136     1.0  0.71219  0.57575  0.03026  1.0000
  C   C1171     1.0  0.73313  0.51957  0.47585  1.0000
  H   H2105     1.0  0.75279  0.52563  0.26001  1.0000
  S   S264      1.0  0.89498  0.49661  0.32475  1.0000
  C   C1172     1.0  0.75431  0.51855  0.31624  1.0000
  H   H2106     1.0  0.84715  0.54585  0.18692  1.0000
  H   H2107     1.0  0.76622  0.53815  0.43475  1.0000
  C   C1173     1.0  0.71318  0.52024  0.16559  1.0000
  C   C1174     1.0  0.71206  0.53764  0.18295  1.0000
  C   C1175     1.0  0.70732  0.53701  0.22022  1.0000
  H   H2108     1.0  0.70281  0.52982  0.44237  1.0000
  H   H2109     1.0  0.87036  0.59620  0.08285  1.0000
  H   H2110     1.0  0.71468  0.55148  0.16762  1.0000
  H   H2111     1.0  0.70623  0.55045  0.23339  1.0000
  C   C1176     1.0  0.90216  0.52375  0.11593  1.0000
  C   C1177     1.0  0.71817  0.54266  0.44248  1.0000
  C   C1178     1.0  0.77719  0.53462  0.45311  1.0000
  C   C1179     1.0  0.89461  0.52725  0.19077  1.0000
  C   C1180     1.0  0.90163  0.54478  0.16873  1.0000
  C   C1181     1.0  0.90545  0.54305  0.13150  1.0000
  C   C1182     1.0  0.96364  0.56784  0.15003  1.0000
  H   H2112     1.0  0.83350  0.59441  0.17173  1.0000
  H   H2113     1.0  0.90450  0.55978  0.18075  1.0000
  H   H2114     1.0  0.91120  0.55663  0.11495  1.0000
  C   C1183     1.0  0.86353  0.57783  0.16979  1.0000
  S   S265      1.0  0.69939  0.54087  0.03221  1.0000
  H   H2115     1.0  0.81647  0.60390  0.09932  1.0000
  H   H2116     1.0  0.81263  0.61186  0.14433  1.0000
  C   C1184     1.0  0.65996  0.51175  0.12253  1.0000
  H   H2117     1.0  0.84197  0.55354  0.25055  1.0000
  H   H2118     1.0  0.79550  0.51644  0.16046  1.0000
  H   H2119     1.0  0.78471  0.53463  0.11273  1.0000
  C   C1185     1.0  0.83799  0.57874  0.12211  1.0000
  H   H2120     1.0  0.75979  0.50472  0.02276  1.0000
  C   C1186     1.0  0.81103  0.50843  0.23077  1.0000
  H   H2121     1.0  0.84786  0.61176  0.13733  1.0000
  C   C1187     1.0  0.91287  0.61286  0.09564  1.0000
  C   C1188     1.0  0.87512  0.59429  0.11127  1.0000
  C   C1189     1.0  0.85727  0.55609  0.11476  1.0000
  H   H2122     1.0  0.83589  0.58071  0.09238  1.0000
  N   N65       1.0  0.85845  0.57669  0.12949  1.0000
  H   H2123     1.0  0.86513  0.56458  0.05755  1.0000
  C   C1190     1.0  0.84753  0.56148  0.19355  1.0000
  C   C1191     1.0  0.81510  0.59946  0.12838  1.0000
  H   H2124     1.0  0.78470  0.52501  0.01708  1.0000
  H   H2125     1.0  0.85377  0.58085  0.24277  1.0000
  H   H2126     1.0  0.90854  0.61614  0.06780  1.0000
  H   H2127     1.0  0.97233  0.55675  0.03832  1.0000
  H   H2128     1.0  0.83150  0.51807  0.47471  1.0000
  C   C1192     1.0  0.83482  0.59697  0.14195  1.0000
  C   C1193     1.0  0.79849  0.55155  0.44810  1.0000
  H   H2129     1.0  0.80137  0.58496  0.13125  1.0000
  S   S266      1.0  0.74657  0.54253  0.03313  1.0000
  H   H2130     1.0  0.87152  0.55341  0.12222  1.0000
  H   H2131     1.0  0.74098  0.52282  0.32296  1.0000
  H   H2132     1.0  0.86886  0.56478  0.23952  1.0000
  C   C1194     1.0  0.85326  0.55254  0.07318  1.0000
  H   H2133     1.0  0.86623  0.59346  0.18112  1.0000
  H   H2134     1.0  0.97170  0.58119  0.16848  1.0000
  H   H2135     1.0  0.82491  0.56431  0.12896  1.0000
  H   H2136     1.0  0.71582  0.55746  0.44421  1.0000
  S   S267      1.0  0.89072  0.53030  0.23773  1.0000
  S   S268      1.0  0.79177  0.59647  0.02967  1.0000
  C   C1195     1.0  0.70966  0.50236  0.18585  1.0000
  H   H2137     1.0  0.91437  0.62604  0.11410  1.0000
  H   H2138     1.0  0.76852  0.50295  0.14889  1.0000
  C   C1196     1.0  0.89671  0.59285  0.10953  1.0000
  S   S269      1.0  0.68506  0.58715  0.02489  1.0000
  C   C1197     1.0  0.81913  0.57659  0.01116  1.0000
  H   H2139     1.0  0.90227  0.58998  0.13656  1.0000
  S   S270      1.0  0.86639  0.50732  0.41511  1.0000
  C   C1198     1.0  0.85344  0.56550  0.23401  1.0000
  C   C1199     1.0  0.67505  0.59932  0.12782  1.0000
  H   H2140     1.0  0.84446  0.54336  0.12752  1.0000
  H   H2141     1.0  0.87833  0.57572  0.17477  1.0000
  H   H2142     1.0  0.73515  0.51468  0.44769  1.0000
  C   C1200     1.0  0.73158  0.54111  0.47477  1.0000
  C   C1201     1.0  0.77987  0.51696  0.16247  1.0000
  H   H2143     1.0  0.66162  0.50832  0.09341  1.0000
  C   C1202     1.0  0.97463  0.54613  0.05864  1.0000
  H   H2144     1.0  0.73797  0.49933  0.27131  1.0000
  C   C1203     1.0  0.89129  0.50796  0.17513  1.0000
  S   S271      1.0  0.88296  0.59823  0.00129  1.0000
  H   H2145     1.0  0.96383  0.58473  0.08330  1.0000
  C   C1204     1.0  0.83367  0.61322  0.02366  1.0000
  C   C1205     1.0  0.85356  0.61361  0.01739  1.0000
  H   H2146     1.0  0.76003  0.52197  0.20243  1.0000
  C   C1206     1.0  0.70388  0.51911  0.24046  1.0000
  H   H2147     1.0  0.66774  0.58451  0.14217  1.0000
  H   H2148     1.0  0.96859  0.54151  0.17586  1.0000
  H   H2149     1.0  0.72586  0.54220  0.41645  1.0000
  H   H2150     1.0  0.80540  0.51410  0.48694  1.0000
  N   N66       1.0  0.97672  0.56758  0.11786  1.0000
  H   H2151     1.0  0.96743  0.51302  0.06104  1.0000
  H   H2152     1.0  0.86668  0.62810  0.01999  1.0000
  C   C1207     1.0  0.77130  0.50619  0.26547  1.0000
  C   C1208     1.0  0.85674  0.59566  0.00773  1.0000
  S   S272      1.0  0.85197  0.50394  0.31226  1.0000
  C   C1209     1.0  0.82767  0.50103  0.21730  1.0000
  H   H2153     1.0  0.78564  0.51963  0.27293  1.0000
  H   H2154     1.0  0.78649  0.53283  0.21500  1.0000
  H   H2155     1.0  0.80304  0.55155  0.41925  1.0000
  H   H2156     1.0  0.94751  0.51987  0.03938  1.0000
  H   H2157     1.0  0.76883  0.53199  0.32246  1.0000
  C   C1210     1.0  0.67885  0.60974  0.02132  1.0000
  H   H2158     1.0  0.86491  0.51880  0.48960  1.0000
  S   S273      1.0  0.69686  0.51854  0.28663  1.0000
  C   C1211     1.0  0.96488  0.54840  0.09532  1.0000
  H   H2159     1.0  0.78059  0.49864  0.00437  1.0000
  H   H2160     1.0  0.75376  0.50548  0.33354  1.0000
  H   H2161     1.0  0.79057  0.55010  0.15417  1.0000
  C   C1212     1.0  0.87285  0.49766  0.45599  1.0000
  C   C1213     1.0  0.98951  0.62437  0.08621  1.0000
  H   H2162     1.0  0.66658  0.62119  0.09766  1.0000
  C   C1214     1.0  0.70525  0.50185  0.22318  1.0000
  C   C1215     1.0  0.95643  0.54802  0.17324  1.0000
  H   H2163     1.0  0.77795  0.51978  0.44391  1.0000
  H   H2164     1.0  0.97095  0.52336  0.01576  1.0000
  H   H2165     1.0  0.86908  0.53125  0.06661  1.0000
  H   H2166     1.0  0.97333  0.62210  0.07847  1.0000
  C   C1216     1.0  0.96448  0.52424  0.04284  1.0000
  S   S274      1.0  0.70526  0.49904  0.38147  1.0000
  H   H2167     1.0  0.79814  0.56692  0.45484  1.0000
  H   H2168     1.0  0.98244  0.60931  0.13738  1.0000
  H   H2169     1.0  0.98860  0.58589  0.07013  1.0000
  C   C1217     1.0  0.89513  0.50625  0.13793  1.0000
  H   H2170     1.0  0.96286  0.53429  0.11104  1.0000
  N   N67       1.0  0.77164  0.50011  0.22602  1.0000
  H   H2171     1.0  0.81383  0.52356  0.21845  1.0000
  H   H2172     1.0  0.94894  0.54762  0.08891  1.0000
  C   C1218     1.0  0.68813  0.64702  0.01919  1.0000
  H   H2173     1.0  0.84988  0.52914  0.03173  1.0000
  H   H2174     1.0  0.81312  0.51068  0.26082  1.0000
  H   H2175     1.0  0.71006  0.63201  0.02561  1.0000
  C   C1219     1.0  0.87009  0.50609  0.48941  1.0000
  C   C1220     1.0  0.77983  0.53557  0.14111  1.0000
  Fe  Fe137     1.0  0.87776  0.50340  0.27693  1.0000
  H   H2176     1.0  0.84186  0.51894  0.07622  1.0000
  H   H2177     1.0  0.94941  0.57014  0.14060  1.0000
  C   C1221     1.0  0.75294  0.51233  0.27602  1.0000
  H   H2178     1.0  0.71753  0.50863  0.48343  1.0000
  H   H2179     1.0  0.82705  0.49960  0.18711  1.0000
  H   H2180     1.0  0.67531  0.52232  0.13324  1.0000
  C   C1222     1.0  0.95045  0.55210  0.21154  1.0000
  H   H2181     1.0  0.74685  0.55378  0.47216  1.0000
  H   H2182     1.0  0.76403  0.53588  0.13995  1.0000
  C   C1223     1.0  0.81623  0.59486  0.02061  1.0000
  C   C1224     1.0  0.97922  0.58589  0.09427  1.0000
  H   H2183     1.0  0.68577  0.61107  0.14689  1.0000
  H   H2184     1.0  0.93895  0.55954  0.21037  1.0000
  H   H2185     1.0  0.96430  0.56223  0.22743  1.0000
  H   H2186     1.0  0.94263  0.53604  0.15990  1.0000
  C   C1225     1.0  0.66724  0.64464  0.01481  1.0000
  H   H2187     1.0  0.67137  0.51579  0.47704  1.0000
  C   C1226     1.0  0.77060  0.53353  0.49349  1.0000
  H   H2188     1.0  0.94342  0.53728  0.22600  1.0000
  H   H2189     1.0  0.68425  0.59683  0.10519  1.0000
  C   C1227     1.0  0.69392  0.62977  0.02233  1.0000
  C   C1228     1.0  0.99001  0.60755  0.11203  1.0000
  C   C1229     1.0  0.83934  0.57702  0.00441  1.0000
  H   H2190     1.0  0.69998  0.66240  0.02011  1.0000
  S   S275      1.0  0.66092  0.66714  0.01135  1.0000
  C   C1230     1.0  0.82020  0.51349  0.49704  1.0000
  H   H2191     1.0  0.66757  0.50406  0.19517  1.0000
  C   C1231     1.0  0.67537  0.50665  0.49716  1.0000
  H   H2192     1.0  0.99145  0.54971  0.06187  1.0000
  C   C1232     1.0  0.75004  0.49653  0.49648  1.0000
  H   H2193     1.0  0.72447  0.54387  0.50008  1.0000
  C   C1233     1.0  0.97088  0.61386  0.88815  1.0000
  Fe  Fe138     1.0  0.94856  0.58152  0.98915  1.0000
  S   S276      1.0  0.70442  0.53383  0.77763  1.0000
  H   H2194     1.0  0.82629  0.52464  0.52012  1.0000
  Fe  Fe139     1.0  0.91290  0.54941  0.94235  1.0000
  S   S277      1.0  0.92586  0.58416  0.94630  1.0000
  S   S278      1.0  0.90715  0.52754  0.89303  1.0000
  C   C1234     1.0  0.66474  0.56824  0.80554  1.0000
  C   C1235     1.0  0.75868  0.51861  0.57023  1.0000
  S   S279      1.0  0.71602  0.51808  0.94537  1.0000
  C   C1236     1.0  0.67901  0.58472  0.86705  1.0000
  C   C1237     1.0  0.83005  0.52707  0.85267  1.0000
  C   C1238     1.0  0.80301  0.52736  0.67685  1.0000
  H   H2195     1.0  0.98328  0.58501  0.92067  1.0000
  C   C1239     1.0  0.66598  0.52790  0.93703  1.0000
  H   H2196     1.0  0.86763  0.58817  0.71498  1.0000
  H   H2197     1.0  0.76745  0.54185  0.78397  1.0000
  H   H2198     1.0  0.86997  0.56405  0.70369  1.0000
  H   H2199     1.0  0.87174  0.50491  0.54816  1.0000
  H   H2200     1.0  0.67896  0.59934  0.85560  1.0000
  H   H2201     1.0  0.83167  0.57000  0.73364  1.0000
  H   H2202     1.0  0.79539  0.51166  0.60560  1.0000
  C   C1240     1.0  0.70330  0.50944  0.83695  1.0000
  C   C1241     1.0  0.75006  0.51911  0.60801  1.0000
  H   H2203     1.0  0.69395  0.58399  0.85868  1.0000
  H   H2204     1.0  0.75948  0.52550  0.96885  1.0000
  H   H2205     1.0  0.94478  0.55191  0.85523  1.0000
  N   N68       1.0  0.78071  0.52667  0.90281  1.0000
  H   H2206     1.0  0.98634  0.62352  0.87815  1.0000
  C   C1242     1.0  0.70785  0.52937  0.82416  1.0000
  C   C1243     1.0  0.71529  0.54615  0.84890  1.0000
  C   C1244     1.0  0.71798  0.54298  0.88617  1.0000
  C   C1245     1.0  0.71304  0.52297  0.89895  1.0000
  H   H2207     1.0  0.72118  0.60879  0.88498  1.0000
  H   H2208     1.0  0.76384  0.49544  0.51050  1.0000
  H   H2209     1.0  0.71895  0.56163  0.83915  1.0000
  H   H2210     1.0  0.72381  0.55595  0.90500  1.0000
  C   C1246     1.0  0.95780  0.62709  0.88589  1.0000
  C   C1247     1.0  0.88510  0.52568  0.77315  1.0000
  C   C1248     1.0  0.89085  0.54411  0.79391  1.0000
  C   C1249     1.0  0.89701  0.54489  0.83097  1.0000
  C   C1250     1.0  0.89775  0.52726  0.84754  1.0000
  C   C1251     1.0  0.89194  0.50886  0.82680  1.0000
  S   S280      1.0  0.87801  0.52556  0.72628  1.0000
  H   H2211     1.0  0.89083  0.55793  0.78114  1.0000
  H   H2212     1.0  0.90160  0.55920  0.84642  1.0000
  C   C1252     1.0  0.87408  0.49832  0.52267  1.0000
  H   H2213     1.0  0.71980  0.59075  0.92012  1.0000
  C   C1253     1.0  0.66217  0.56642  0.84679  1.0000
  H   H2214     1.0  0.83377  0.53793  0.75532  1.0000
  H   H2215     1.0  0.86645  0.57018  0.75048  1.0000
  C   C1254     1.0  0.76663  0.51390  0.96671  1.0000
  H   H2216     1.0  0.82188  0.52028  0.59210  1.0000
  H   H2217     1.0  0.73145  0.61959  0.96637  1.0000
  C   C1255     1.0  0.73391  0.62254  0.93678  1.0000
  H   H2218     1.0  0.66336  0.58265  0.79582  1.0000
  H   H2219     1.0  0.95797  0.56678  0.91490  1.0000
  H   H2220     1.0  0.96829  0.53925  0.90089  1.0000
  H   H2221     1.0  0.81305  0.54621  0.89834  1.0000
  C   C1256     1.0  0.75917  0.51060  0.84411  1.0000
  H   H2222     1.0  0.74425  0.53701  0.54352  1.0000
  C   C1257     1.0  0.77260  0.54382  0.90397  1.0000
  H   H2223     1.0  0.80113  0.53916  0.76707  1.0000
  S   S281      1.0  0.67047  0.50344  0.69216  1.0000
  H   H2224     1.0  0.94174  0.57150  0.80287  1.0000
  C   C1258     1.0  0.78510  0.56284  0.92838  1.0000
  N   N69       1.0  0.67800  0.58505  0.90806  1.0000
  H   H2225     1.0  0.77314  0.51630  0.82730  1.0000
  H   H2226     1.0  0.96011  0.59944  0.83640  1.0000
  H   H2227     1.0  0.74964  0.62324  0.93039  1.0000
  C   C1259     1.0  0.77813  0.58074  0.92158  1.0000
  C   C1260     1.0  0.68756  0.50349  0.55845  1.0000
  C   C1261     1.0  0.76025  0.53526  0.75718  1.0000
  C   C1262     1.0  0.80947  0.51746  0.87208  1.0000
  H   H2228     1.0  0.74393  0.52504  0.76170  1.0000
  H   H2229     1.0  0.75638  0.53801  0.91331  1.0000
  H   H2230     1.0  0.77174  0.54950  0.87600  1.0000
  S   S282      1.0  0.93638  0.54691  0.98278  1.0000
  H   H2231     1.0  0.94179  0.61837  0.89481  1.0000
  H   H2232     1.0  0.66486  0.61946  0.92853  1.0000
  C   C1263     1.0  0.78516  0.52095  0.94066  1.0000
  H   H2233     1.0  0.81920  0.50830  0.65493  1.0000
  C   C1264     1.0  0.88550  0.50800  0.78996  1.0000
  H   H2234     1.0  0.80191  0.56845  0.92341  1.0000
  H   H2235     1.0  0.78266  0.55890  0.95757  1.0000
  H   H2236     1.0  0.93986  0.54829  0.75220  1.0000
  H   H2237     1.0  0.84189  0.53836  0.87098  1.0000
  H   H2238     1.0  0.67192  0.52356  0.91168  1.0000
  C   C1265     1.0  0.69556  0.60407  0.92231  1.0000
  C   C1266     1.0  0.68364  0.51545  0.53118  1.0000
  H   H2239     1.0  0.76076  0.50379  0.56734  1.0000
  S   S283      1.0  0.73455  0.57655  0.98581  1.0000
  H   H2240     1.0  0.74960  0.50360  0.89890  1.0000
  C   C1267     1.0  0.83046  0.53840  0.72567  1.0000
  H   H2241     1.0  0.79710  0.55114  0.72728  1.0000
  S   S284      1.0  0.88908  0.54483  0.98548  1.0000
  H   H2242     1.0  0.78201  0.58663  0.89360  1.0000
  H   H2243     1.0  0.76120  0.57574  0.92505  1.0000
  H   H2244     1.0  0.78611  0.59350  0.94142  1.0000
  H   H2245     1.0  0.69088  0.56135  0.90608  1.0000
  H   H2246     1.0  0.80225  0.54251  0.66997  1.0000
  H   H2247     1.0  0.74711  0.53348  0.61237  1.0000
  H   H2248     1.0  0.81086  0.53902  0.60373  1.0000
  H   H2249     1.0  0.95721  0.63233  0.85757  1.0000
  N   N70       1.0  0.80788  0.52646  0.71692  1.0000
  C   C1268     1.0  0.81105  0.52367  0.61046  1.0000
  H   H2250     1.0  0.96765  0.54967  0.83913  1.0000
  Fe  Fe140     1.0  0.69434  0.50715  0.73642  1.0000
  C   C1269     1.0  0.83869  0.56159  0.71591  1.0000
  S   S285      1.0  0.69834  0.51560  0.60034  1.0000
  H   H2251     1.0  0.76027  0.54799  0.73931  1.0000
  H   H2252     1.0  0.84012  0.53095  0.71240  1.0000
  H   H2253     1.0  0.94498  0.58575  0.87313  1.0000
  C   C1270     1.0  0.79526  0.53582  0.73839  1.0000
  H   H2254     1.0  0.79867  0.50542  0.85363  1.0000
  H   H2255     1.0  0.73302  0.63769  0.93058  1.0000
  N   N71       1.0  0.97250  0.57935  0.86435  1.0000
  H   H2256     1.0  0.76505  0.51832  0.71140  1.0000
  H   H2257     1.0  0.67777  0.53073  0.95923  1.0000
  C   C1271     1.0  0.98141  0.55419  0.90616  1.0000
  H   H2258     1.0  0.72800  0.51087  0.54567  1.0000
  H   H2259     1.0  0.75123  0.52164  0.84224  1.0000
  C   C1272     1.0  0.97356  0.57212  0.90264  1.0000
  H   H2260     1.0  0.93185  0.53340  0.79275  1.0000
  H   H2261     1.0  0.96760  0.57584  0.78835  1.0000
  H   H2262     1.0  0.68912  0.57014  0.95076  1.0000
  C   C1273     1.0  0.94524  0.54504  0.77925  1.0000
  H   H2263     1.0  0.83510  0.56392  0.68717  1.0000
  C   C1274     1.0  0.81812  0.52342  0.65002  1.0000
  C   C1275     1.0  0.86212  0.57155  0.72166  1.0000
  H   H2264     1.0  0.73540  0.50558  0.61124  1.0000
  C   C1276     1.0  0.71775  0.60532  0.91415  1.0000
  H   H2265     1.0  0.68654  0.53153  0.53671  1.0000
  C   C1277     1.0  0.77169  0.52295  0.73927  1.0000
  H   H2266     1.0  0.69435  0.60551  0.95235  1.0000
  H   H2267     1.0  0.76123  0.51839  0.62926  1.0000
  C   C1278     1.0  0.95392  0.56491  0.80222  1.0000
  H   H2268     1.0  0.69461  0.61830  0.91065  1.0000
  C   C1279     1.0  0.95961  0.56063  0.84155  1.0000
  H   H2269     1.0  0.83393  0.53541  0.65290  1.0000
  H   H2270     1.0  0.97875  0.55201  0.96522  1.0000
  C   C1280     1.0  0.96122  0.59399  0.86441  1.0000
  H   H2271     1.0  0.95728  0.53851  0.77506  1.0000
  C   C1281     1.0  0.80065  0.53409  0.88218  1.0000
  Fe  Fe141     1.0  0.72295  0.54218  0.99068  1.0000
  C   C1282     1.0  0.74412  0.52117  0.53992  1.0000
  H   H2272     1.0  0.79900  0.54183  0.85665  1.0000
  H   H2273     1.0  0.77408  0.53135  0.56923  1.0000
  H   H2274     1.0  0.78732  0.51574  0.66993  1.0000
  C   C1283     1.0  0.66094  0.54706  0.93095  1.0000
  C   C1284     1.0  0.68080  0.56630  0.92380  1.0000
  H   H2275     1.0  0.79809  0.53397  0.95404  1.0000
  H   H2276     1.0  0.68002  0.56809  0.79786  1.0000
  H   H2277     1.0  0.97211  0.61025  0.91724  1.0000
  S   S286      1.0  0.71759  0.50518  0.69663  1.0000
  C   C1285     1.0  0.70587  0.50628  0.87418  1.0000
  H   H2278     1.0  0.78266  0.53045  0.50985  1.0000
  H   H2279     1.0  0.82818  0.53500  0.82760  1.0000
  C   C1286     1.0  0.80621  0.50010  0.76700  1.0000
  H   H2280     1.0  0.81195  0.49747  0.71043  1.0000
  H   H2281     1.0  0.75456  0.49913  0.95703  1.0000
  Fe  Fe142     1.0  0.90300  0.57922  0.99211  1.0000
  H   H2282     1.0  0.76856  0.50874  0.75520  1.0000
  H   H2283     1.0  0.96477  0.64092  0.90396  1.0000
  H   H2284     1.0  0.79063  0.50799  0.93939  1.0000
  H   H2285     1.0  0.81240  0.50984  0.89668  1.0000
  H   H2286     1.0  0.79994  0.50864  0.78572  1.0000
  H   H2287     1.0  0.83581  0.51485  0.84487  1.0000
  H   H2288     1.0  0.82305  0.50483  0.77297  1.0000
  C   C1287     1.0  0.80261  0.50418  0.72649  1.0000
  H   H2289     1.0  0.84148  0.56301  0.99680  1.0000
  H   H2290     1.0  0.66357  0.55170  0.85437  1.0000
  S   S287      1.0  0.85681  0.49904  0.63015  1.0000
  C   C1288     1.0  0.76453  0.50801  0.88450  1.0000
  C   C1289     1.0  0.99042  0.55357  0.94419  1.0000
  Fe  Fe143     1.0  0.69260  0.49834  0.65344  1.0000
  S   S288      1.0  0.98461  0.59593  0.99529  1.0000
  Fe  Fe144     1.0  0.86636  0.49690  0.68883  1.0000
  H   H2291     1.0  0.69761  0.49641  0.81824  1.0000
  H   H2292     1.0  0.77199  0.54920  0.50267  1.0000
  N   N72       1.0  0.74947  0.51773  0.50147  1.0000
  H   H2293     1.0  0.66781  0.97727  0.06543  1.0000
  H   H2294     1.0  0.71565  0.98547  0.00697  1.0000
  H   H2295     1.0  0.68794  0.95040  0.00311  1.0000
  H   H2296     1.0  0.67341  0.93040  0.86801  1.0000
  H   H2297     1.0  0.67040  0.90116  0.90693  1.0000
  H   H2298     1.0  0.68440  0.90074  0.86651  1.0000
  H   H2299     1.0  0.68727  0.97267  0.85183  1.0000
  H   H2300     1.0  0.66097  0.95274  0.89655  1.0000
  H   H2301     1.0  0.66269  0.91359  0.82977  1.0000
  C   C1290     1.0  0.67580  0.97871  0.86236  1.0000
  H   H2302     1.0  0.68302  0.98916  0.88600  1.0000
  C   C1291     1.0  0.70057  0.98357  0.99584  1.0000
  C   C1292     1.0  0.66516  0.96055  0.97919  1.0000
  H   H2303     1.0  0.67184  0.98777  0.84089  1.0000
  C   C1293     1.0  0.66190  0.91502  0.85962  1.0000
  C   C1294     1.0  0.68480  0.96355  0.99370  1.0000
  C   C1295     1.0  0.66167  0.97811  0.96723  1.0000
  C   C1296     1.0  0.66898  0.89895  0.87685  1.0000
  H   H2304     1.0  0.66353  0.80064  0.99450  1.0000
