data_image0
_chemical_formula_structural       HSHFeSHFeSCSFe2S2FeHFeS3C6H5CHC7H4CHSC4SH5C2HCH2CHCH10CSH5FeC3H2S2H3FeH3CH2CH5NC12H17SH2C2H7NH2C3HCH3C3HFeSFeS3H2CSC6H4C6H2NC3H11NH3SH2CHNH2CH2CHC2H4C2HFeCH4C2H5CSHC2HCHCH2C2H4CH2CHCSH3CH10CHC3H3CH4CH3C3H4C2HCHCH2CH4CH5C2H5CHCHSCFeH6CHC5H4NCHSH2CHCHCSFeSCFeSCFe2S2HFeS2FeSH2FeSHSH2C2HNC3H3C7H7C4HSH8CH3CH4CHCHCH2CH4NH2SHSHC5HCHCHSHNC9HC2H19CH8CH6SH3C3H2C3H3C2HC2HSH3C3H2CH2SHCH2CH2CH5CHFeHC2HC3H4C3SFeS2FeS2FeSFeHS2CHCH6CH5C6H4C6H4C6H7CHC2H11CH4C3H10CHC2H5NH5CH2C2H4CH3C3SHC2NCHNH4C2H5C2H5CH3CNC12H26C2NC7HCH13CH2CH8CHCH2CH3C3H3NCSC2H3C2H8FeHFeS2FeHFeHS3H2FeSFeS2FeHFeHS2H7C6H4SH5SC8HC5H2C6H3C6H2C3H2CHCH4CHCH5SH2CHCH3CH7CH3CHCHCHCHNC7H5C2H6CNC9SCH20SHCH5CHCH2C2HCH2C2NH14CH7CHC2H6NC6H3CH2CH10CH2CH8NC2H3CHC2HSC4HC2H4FeHNC2HCH3CHCH3C3H3FeSHSH4C2H2CHC2HSCHCHC3H4S2CHSH3S2FeSFeSHFeS2FeSFeHS2CHFeS2FeCFeS4FeSHFeSCFeSFeSFeCFeS2FeHFeHS2H6C4FeHCFeH2CH2C6H6C2HC6H4C6H7C6H4C6H4CH3CH2CNH5CH2CHSCHSH3CH4CH3CH4C2H3SH4CH5NC3HC4HCHCH15CH3SCSCSCH2SC2H2CFeCHSH5CHCH3CH2NC11H14CH12NH2C2HCH4CH5C2H4CSHCH2CH5SH3CHN2C6HC2HCH5CH4CH8SCH2C3HC2HCH2CH4CH3FeH2CHC2H3C2HC2H2CH4SHC2S2HFe2S2CFeHS2FeSH2SFe2S2H3C6H4SHCH2CH2CFeC2H3CH5NCH3SCH2CFeCH2C2H3CH3CH4C2H2CH2CH2CSCSH3C2HSH3SH2FeS2FeS2FeSFeS3CSHCH2CHCH5C8H4C6H4C6H4C2HCHCHC6H4CNHCH4C2H4NC3HNC3H2C6H6CH2CH3CH7CH3CSH2NC5HC4HC2H16C2H9NC8HC2H13CH3CH4CHCH2CH4C2HCH4CHCH12C2SC2H2CH2NH2CH4CH4SCH3CHC2H5CH6C3H6C2H4CHNHSH2SCH2FeSHFeS2FeSFeSFeS3FeSFeHSCS2FeHSFeHSNH3S2H2CH4C7H4C2H2CHC2HC4HCH4C6H4C3H2CH3CH3CH4C3FeH7CH5CSCNC2HC2HCH2CHCH10CH2CH3NH4C2NC3H3CHCH10C2H2CSCHCHC3H5CH5CH2CH3C4H9NC6HCH7CH4CHCHC3H3CHSH3CHCH3C2H3C2H2CH7C3H4CHC2H2CH3NHSFeHCH3NH2CHC4FeH6SHS2H3FeH2CHSC2H3CFeH3FeCSCH4S2HSFeS2FeSHFeSFeSHFe2S2FeHFeS3FeHFeS2FeSFeCS2H2FeHFeS2FeHFeS3HCHSHCSC4H5FeH3C6H4CH4C6H4C7H4CHC6H4C6H2CHCH4CH2CH4CHC3H2CHCH2CH4CH2SNCHCH7CSNHCHC3H2SCHNH11CH3CHCH7CHCH3NC3H2CH4C2H2SCH2SHC2H2CHCH3SCH3CH2NC8HC3H28C3HCH4C2H3FeCH2CH2C3H5CNH5C3HCH3SH3C3H2CH4CH2SCHCSCH2CH4CH7CHC3HC2FeSHSFeSFeS2FeS2FeSFeS3H3CS2HCHCH2C2H5CSH4SCH4FeHCH6FeC2SHCHCH2C6H4C6H5C3H4C6H4C6H2CHCHNC6HC5H13CH10CSH2CH3NC4HC4H2CH8CH10CHCHC3H3CHSH3NH5CS2H2C3HC2HC3HCHNH4CH2CHNH8SH4CH2C2H7C3H5CHFeCFeCH2C4H2CH3CH4CH5C2H4CH4CHC2HCH2C3H2CHNH2C2H2CHCH2NHCH4CH5CFeH3SC2FeHCH3CHCH11CHC2HC2H3FeS2FeS2FeSFeS3H4FeSHSHC2H2C3HC2HNH2C6H4C6H4C6H4C5HCH2CH2CH2C3H2CHCH4CSH5CHCHSH2C5H15NC9HCH13CH6CH5CHCNC6HNCH11CH4NH2SHCH2CH2CH4CHC2HC2H2CHNCH3CHCH3C2H7CH8CH2NH2CHCHCH3CH4C2H2C2HC2H4CHC3HCH6C2H7CHCH11FeS2FeHFeHFeS3CH2SCSFeS2FeSHFeS2CFeS2FeHCFeHSCSC2FeC3H4CH2C2HC2HSC6H4C4H2SHFeNC2H3NC12H22CHNH3NC12H29SH6C2H3CHSHCH3CH2CHCHCH7SH3C4HSCSH8CH2CFeCH2C2H3SCHFeSFeS2H5FeHC6H2CHC6H4CSHCHCH2CHCH2NH3CHSH10CHCHCH3SCHCNH2CH4C2HCHC3H3CH3CH6SHC2H3CHC2H7NC4HC2H2C2H8NH5CHCHCH3CH2C3HCHCH5CHSCH4C2H4CH3CH4CH6C2HFeS2FeCFeSFeHS2FeHFeS2FeSHCFeS2FeSC2SC3H4C6H4SHNHC2H4SCH2SHC2H5CHSCHC3H5FeCHCHC2H4CHSCH4CH2CH5FeH3C2HCH6SNC2HSCH4CHCH3C3HCHSHCSH4C2HFeH2CHC2SH3C2HS
_chemical_formula_sum              "H2304 S288 Fe144 C1296 N72"
_cell_length_a       73.3758
_cell_length_b       73.4404
_cell_length_c       36.4128
_cell_angle_alpha    90.8853
_cell_angle_beta     90.8526
_cell_angle_gamma    111.777

_space_group_name_H-M_alt    "P 1"
_space_group_IT_number       1

loop_
  _space_group_symop_operation_xyz
  'x, y, z'

loop_
  _atom_site_type_symbol
  _atom_site_label
  _atom_site_symmetry_multiplicity
  _atom_site_fract_x
  _atom_site_fract_y
  _atom_site_fract_z
  _atom_site_occupancy
  H   H1        1.0  0.16017  0.38127  0.46063  1.0000
  S   S1        1.0  0.07322  0.34955  0.03524  1.0000
  H   H2        1.0  0.10832  0.30877  0.28337  1.0000
  Fe  Fe1       1.0  0.10582  0.32010  0.00989  1.0000
  S   S2        1.0  0.11646  0.34685  0.04612  1.0000
  H   H3        1.0  0.18600  0.33512  0.28110  1.0000
  Fe  Fe2       1.0  0.08722  0.33420  0.07372  1.0000
  S   S3        1.0  0.08193  0.32610  0.13482  1.0000
  C   C1        1.0  0.22121  0.34851  0.23993  1.0000
  S   S4        1.0  0.07703  0.30631  0.03878  1.0000
  Fe  Fe3       1.0  0.10188  0.36423  0.44152  1.0000
  Fe  Fe4       1.0  0.09173  0.34719  0.36096  1.0000
  S   S5        1.0  0.07917  0.31616  0.38127  1.0000
  S   S6        1.0  0.09702  0.35889  0.30196  1.0000
  Fe  Fe5       1.0  0.06453  0.32758  0.42612  1.0000
  H   H4        1.0  0.18410  0.33912  0.32843  1.0000
  Fe  Fe6       1.0  0.10610  0.32607  0.41931  1.0000
  S   S7        1.0  0.12679  0.30964  0.42868  1.0000
  S   S8        1.0  0.07584  0.35818  0.40333  1.0000
  S   S9        1.0  0.11889  0.35633  0.39736  1.0000
  C   C2        1.0  0.15277  0.32172  0.42822  1.0000
  C   C3        1.0  0.16490  0.31078  0.43146  1.0000
  C   C4        1.0  0.18556  0.32019  0.43382  1.0000
  C   C5        1.0  0.19421  0.34068  0.43347  1.0000
  C   C6        1.0  0.18210  0.35152  0.42918  1.0000
  C   C7        1.0  0.16157  0.34212  0.42635  1.0000
  H   H5        1.0  0.15827  0.29497  0.43290  1.0000
  H   H6        1.0  0.19468  0.31164  0.43737  1.0000
  H   H7        1.0  0.18860  0.36737  0.42896  1.0000
  H   H8        1.0  0.15256  0.35077  0.42391  1.0000
  H   H9        1.0  0.03489  0.38429  0.45905  1.0000
  C   C8        1.0  0.00916  0.28056  0.45755  1.0000
  H   H10       1.0  0.15085  0.35515  0.99586  1.0000
  C   C9        1.0  0.20802  0.31919  0.34865  1.0000
  C   C10       1.0  0.09246  0.34933  0.25575  1.0000
  C   C11       1.0  0.09998  0.36221  0.22658  1.0000
  C   C12       1.0  0.09675  0.35552  0.18952  1.0000
  C   C13       1.0  0.08589  0.33575  0.18098  1.0000
  C   C14       1.0  0.07837  0.32286  0.21014  1.0000
  C   C15       1.0  0.08163  0.32955  0.24721  1.0000
  H   H11       1.0  0.10829  0.37756  0.23271  1.0000
  H   H12       1.0  0.10256  0.36570  0.16762  1.0000
  H   H13       1.0  0.06993  0.30754  0.20401  1.0000
  H   H14       1.0  0.07566  0.31943  0.26916  1.0000
  C   C16       1.0  0.18944  0.31288  0.03177  1.0000
  H   H15       1.0  0.21781  0.37001  0.01421  1.0000
  S   S10       1.0  0.21965  0.35376  0.44202  1.0000
  C   C17       1.0  0.15133  0.30963  0.00703  1.0000
  C   C18       1.0  0.16131  0.32335  0.03480  1.0000
  C   C19       1.0  0.18027  0.32492  0.04722  1.0000
  C   C20       1.0  0.05974  0.39759  0.42540  1.0000
  S   S11       1.0  0.11564  0.39243  0.47620  1.0000
  H   H16       1.0  0.17419  0.29466  0.10312  1.0000
  H   H17       1.0  0.20070  0.28978  0.32511  1.0000
  H   H18       1.0  0.19225  0.31650  0.35179  1.0000
  H   H19       1.0  0.97801  0.28891  0.40814  1.0000
  H   H20       1.0  0.00848  0.29811  0.10758  1.0000
  C   C21       1.0  0.00390  0.29936  0.35236  1.0000
  C   C22       1.0  0.97608  0.26973  0.48368  1.0000
  H   H21       1.0  0.05938  0.41250  0.42901  1.0000
  C   C23       1.0  0.17637  0.29309  0.13298  1.0000
  H   H22       1.0  0.22549  0.30084  0.34366  1.0000
  H   H23       1.0  0.97783  0.30436  0.10720  1.0000
  C   C24       1.0  0.99612  0.30455  0.47818  1.0000
  H   H24       1.0  0.21609  0.32730  0.37349  1.0000
  C   C25       1.0  0.18656  0.36399  0.29687  1.0000
  H   H25       1.0  0.20988  0.40010  0.02654  1.0000
  H   H26       1.0  0.15190  0.37492  0.10479  1.0000
  H   H27       1.0  0.97615  0.31145  0.04221  1.0000
  H   H28       1.0  0.10191  0.28240  0.05862  1.0000
  H   H29       1.0  0.19448  0.37268  0.27347  1.0000
  H   H30       1.0  0.08785  0.28185  0.09916  1.0000
  H   H31       1.0  0.01119  0.29872  0.37900  1.0000
  H   H32       1.0  0.18746  0.33483  0.06982  1.0000
  H   H33       1.0  0.11795  0.29040  0.27016  1.0000
  H   H34       1.0  0.21019  0.35825  0.36535  1.0000
  C   C26       1.0  0.00131  0.29907  0.08097  1.0000
  S   S12       1.0  0.03313  0.32016  0.44845  1.0000
  H   H35       1.0  0.97658  0.28490  0.32326  1.0000
  H   H36       1.0  0.17829  0.27893  0.13688  1.0000
  H   H37       1.0  0.10402  0.26825  0.09716  1.0000
  H   H38       1.0  0.15424  0.33238  0.04718  1.0000
  H   H39       1.0  0.18956  0.37343  0.32206  1.0000
  Fe  Fe7       1.0  0.10171  0.35946  0.00396  1.0000
  C   C27       1.0  0.05015  0.38474  0.45775  1.0000
  C   C28       1.0  0.01159  0.30028  0.46244  1.0000
  C   C29       1.0  0.16458  0.35758  0.28821  1.0000
  H   H40       1.0  0.00841  0.31423  0.07083  1.0000
  H   H41       1.0  0.00412  0.31444  0.34885  1.0000
  S   S13       1.0  0.21034  0.31043  0.05331  1.0000
  S   S14       1.0  0.09039  0.33442  0.46564  1.0000
  H   H42       1.0  0.15582  0.34906  0.31118  1.0000
  H   H43       1.0  0.05169  0.39090  0.39949  1.0000
  H   H44       1.0  0.00381  0.28867  0.06102  1.0000
  Fe  Fe8       1.0  0.06404  0.32189  0.99964  1.0000
  H   H45       1.0  0.18998  0.30518  0.14278  1.0000
  H   H46       1.0  0.02077  0.27690  0.44541  1.0000
  H   H47       1.0  0.22108  0.39040  0.32334  1.0000
  C   C30       1.0  0.19235  0.34608  0.30374  1.0000
  H   H48       1.0  0.16056  0.34856  0.26248  1.0000
  H   H49       1.0  0.98380  0.26970  0.35432  1.0000
  C   C31       1.0  0.99155  0.26547  0.46797  1.0000
  H   H50       1.0  0.13445  0.31514  0.28207  1.0000
  H   H51       1.0  0.14985  0.37540  0.15412  1.0000
  H   H52       1.0  0.16070  0.37071  0.28452  1.0000
  H   H53       1.0  0.20525  0.34241  0.23352  1.0000
  H   H54       1.0  0.01247  0.29613  0.33000  1.0000
  N   N1        1.0  0.13768  0.31443  0.16633  1.0000
  C   C32       1.0  0.15645  0.31344  0.15167  1.0000
  C   C33       1.0  0.13795  0.33510  0.16389  1.0000
  C   C34       1.0  0.13677  0.30930  0.20652  1.0000
  C   C35       1.0  0.11963  0.29988  0.14709  1.0000
  C   C36       1.0  0.11903  0.29993  0.10455  1.0000
  C   C37       1.0  0.15856  0.29323  0.15402  1.0000
  C   C38       1.0  0.11982  0.31195  0.22829  1.0000
  C   C39       1.0  0.14805  0.34726  0.13040  1.0000
  C   C40       1.0  0.14429  0.36636  0.12867  1.0000
  C   C41       1.0  0.10213  0.28198  0.08911  1.0000
  C   C42       1.0  0.98286  0.28430  0.35090  1.0000
  C   C43       1.0  0.12026  0.30619  0.26837  1.0000
  H   H55       1.0  0.16933  0.32440  0.16660  1.0000
  H   H56       1.0  0.15846  0.31778  0.12251  1.0000
  H   H57       1.0  0.12273  0.33493  0.16476  1.0000
  H   H58       1.0  0.14576  0.34415  0.18830  1.0000
  H   H59       1.0  0.15082  0.31826  0.22098  1.0000
  H   H60       1.0  0.13510  0.29372  0.20976  1.0000
  H   H61       1.0  0.11721  0.28470  0.15571  1.0000
  H   H62       1.0  0.10622  0.30231  0.15582  1.0000
  H   H63       1.0  0.13260  0.29954  0.09233  1.0000
  H   H64       1.0  0.11645  0.31305  0.09505  1.0000
  H   H65       1.0  0.16063  0.28985  0.18303  1.0000
  H   H66       1.0  0.14547  0.28130  0.14210  1.0000
  H   H67       1.0  0.10533  0.30257  0.21631  1.0000
  H   H68       1.0  0.12088  0.32743  0.22835  1.0000
  H   H69       1.0  0.16419  0.35121  0.13256  1.0000
  H   H70       1.0  0.14277  0.33907  0.10428  1.0000
  H   H71       1.0  0.12832  0.36319  0.12525  1.0000
  S   S15       1.0  0.12686  0.30546  0.99178  1.0000
  H   H72       1.0  0.07524  0.39885  0.42285  1.0000
  H   H73       1.0  0.04981  0.36981  0.45165  1.0000
  C   C44       1.0  0.17952  0.29956  0.00360  1.0000
  C   C45       1.0  0.21640  0.33072  0.31336  1.0000
  H   H74       1.0  0.98987  0.25031  0.46366  1.0000
  H   H75       1.0  0.98895  0.24364  0.99534  1.0000
  H   H76       1.0  0.18648  0.36349  0.00845  1.0000
  H   H77       1.0  0.20929  0.32070  0.28970  1.0000
  H   H78       1.0  0.18597  0.28967  0.99236  1.0000
  H   H79       1.0  0.02069  0.27211  0.00077  1.0000
  H   H80       1.0  0.20507  0.29176  0.37414  1.0000
  N   N2        1.0  0.21397  0.35017  0.30937  1.0000
  H   H81       1.0  0.16412  0.38113  0.00236  1.0000
  H   H82       1.0  0.18178  0.40092  0.47812  1.0000
  C   C46       1.0  0.20997  0.29918  0.34770  1.0000
  C   C47       1.0  0.97932  0.29394  0.08624  1.0000
  C   C48       1.0  0.16079  0.29810  0.99114  1.0000
  H   H83       1.0  0.99764  0.31966  0.48180  1.0000
  C   C49       1.0  0.22175  0.36225  0.34424  1.0000
  H   H84       1.0  0.21783  0.39141  0.39130  1.0000
  H   H85       1.0  0.22473  0.37457  0.27206  1.0000
  H   H86       1.0  0.22496  0.37290  0.20348  1.0000
  C   C50       1.0  0.00844  0.27345  0.98570  1.0000
  C   C51       1.0  0.22514  0.40079  0.02346  1.0000
  C   C52       1.0  0.22561  0.38352  0.99888  1.0000
  H   H87       1.0  0.22481  0.38609  0.07531  1.0000
  Fe  Fe9       1.0  0.13960  0.43693  0.77484  1.0000
  S   S16       1.0  0.11842  0.42529  0.82237  1.0000
  Fe  Fe10      1.0  0.14005  0.42920  0.69021  1.0000
  S   S17       1.0  0.12265  0.40382  0.65064  1.0000
  S   S18       1.0  0.15150  0.41879  0.73995  1.0000
  S   S19       1.0  0.12613  0.44566  0.72543  1.0000
  H   H88       1.0  0.10453  0.36443  0.53623  1.0000
  H   H89       1.0  0.10712  0.36962  0.60406  1.0000
  C   C53       1.0  0.14782  0.35338  0.58957  1.0000
  S   S20       1.0  0.16783  0.45560  0.68339  1.0000
  C   C54       1.0  0.11996  0.41440  0.86512  1.0000
  C   C55       1.0  0.10272  0.40593  0.88524  1.0000
  C   C56       1.0  0.10304  0.39736  0.91954  1.0000
  C   C57       1.0  0.12068  0.39718  0.93435  1.0000
  C   C58       1.0  0.13799  0.40587  0.91446  1.0000
  C   C59       1.0  0.13764  0.41425  0.87986  1.0000
  H   H90       1.0  0.08900  0.40613  0.87436  1.0000
  H   H91       1.0  0.08969  0.39120  0.93487  1.0000
  H   H92       1.0  0.15180  0.40626  0.92605  1.0000
  H   H93       1.0  0.15107  0.42089  0.86497  1.0000
  C   C60       1.0  0.12265  0.40090  0.60211  1.0000
  C   C61       1.0  0.13060  0.41679  0.57894  1.0000
  C   C62       1.0  0.12869  0.41385  0.54046  1.0000
  C   C63       1.0  0.11912  0.39500  0.52469  1.0000
  C   C64       1.0  0.11187  0.37900  0.54790  1.0000
  C   C65       1.0  0.11340  0.38200  0.58635  1.0000
  H   H94       1.0  0.13768  0.43142  0.59064  1.0000
  H   H95       1.0  0.13439  0.42633  0.52278  1.0000
  N   N3        1.0  0.10238  0.35146  0.83308  1.0000
  C   C66       1.0  0.09817  0.36567  0.80784  1.0000
  C   C67       1.0  0.11028  0.37068  0.77230  1.0000
  C   C68       1.0  0.10185  0.38142  0.74536  1.0000
  H   H96       1.0  0.10064  0.37980  0.82269  1.0000
  H   H97       1.0  0.08245  0.35988  0.79894  1.0000
  H   H98       1.0  0.06740  0.36076  0.85450  1.0000
  H   H99       1.0  0.11046  0.35726  0.75820  1.0000
  H   H100      1.0  0.12564  0.38055  0.77896  1.0000
  H   H101      1.0  0.08657  0.37216  0.73686  1.0000
  H   H102      1.0  0.10208  0.39540  0.75789  1.0000
  H   H103      1.0  0.11091  0.38491  0.72044  1.0000
  H   H104      1.0  0.14770  0.34945  0.49623  1.0000
  H   H105      1.0  0.16556  0.39389  0.64998  1.0000
  H   H106      1.0  0.05973  0.40772  0.49791  1.0000
  N   N4        1.0  0.15292  0.34562  0.55412  1.0000
  H   H107      1.0  0.13309  0.35433  0.58727  1.0000
  H   H108      1.0  0.14688  0.34294  0.61205  1.0000
  H   H109      1.0  0.01137  0.27865  0.80184  1.0000
  S   S21       1.0  0.16744  0.46384  0.77380  1.0000
  H   H110      1.0  0.07003  0.35605  0.57473  1.0000
  H   H111      1.0  0.06385  0.38414  0.58548  1.0000
  C   C69       1.0  0.02241  0.28973  0.85591  1.0000
  H   H112      1.0  0.04015  0.32134  0.53083  1.0000
  N   N5        1.0  0.05502  0.38109  0.52784  1.0000
  H   H113      1.0  0.05285  0.41300  0.56936  1.0000
  H   H114      1.0  0.06653  0.32816  0.53146  1.0000
  C   C70       1.0  0.05659  0.34977  0.55703  1.0000
  H   H115      1.0  0.04391  0.34953  0.57350  1.0000
  H   H116      1.0  0.03156  0.37630  0.56664  1.0000
  C   C71       1.0  0.13778  0.32521  0.54702  1.0000
  H   H117      1.0  0.13939  0.31485  0.56775  1.0000
  C   C72       1.0  0.07853  0.42140  0.60473  1.0000
  C   C73       1.0  0.05390  0.32861  0.54730  1.0000
  H   H118      1.0  0.11125  0.32444  0.57543  1.0000
  H   H119      1.0  0.21558  0.41862  0.66690  1.0000
  H   H120      1.0  0.99555  0.37130  0.51049  1.0000
  H   H121      1.0  0.05293  0.32025  0.57282  1.0000
  C   C74       1.0  0.05875  0.36235  0.52227  1.0000
  C   C75       1.0  0.97638  0.27634  0.94649  1.0000
  H   H122      1.0  0.17798  0.35089  0.96482  1.0000
  Fe  Fe11      1.0  0.15463  0.47176  0.72234  1.0000
  C   C76       1.0  0.99730  0.35875  0.52465  1.0000
  H   H123      1.0  0.14537  0.46765  0.84281  1.0000
  H   H124      1.0  0.15324  0.28736  0.96990  1.0000
  H   H125      1.0  0.20998  0.44985  0.65883  1.0000
  H   H126      1.0  0.03485  0.30213  0.84482  1.0000
  C   C77       1.0  0.01070  0.29119  0.96901  1.0000
  C   C78       1.0  0.11600  0.32331  0.54694  1.0000
  H   H127      1.0  0.13217  0.45534  0.89644  1.0000
  H   H128      1.0  0.18221  0.37013  0.50123  1.0000
  H   H129      1.0  0.99596  0.30608  0.93646  1.0000
  H   H130      1.0  0.07873  0.43643  0.60977  1.0000
  H   H131      1.0  0.10948  0.43887  0.94476  1.0000
  C   C79       1.0  0.13176  0.34870  0.87049  1.0000
  S   S22       1.0  0.09195  0.33286  0.96691  1.0000
  H   H132      1.0  0.20010  0.32396  0.92046  1.0000
  C   C80       1.0  0.06914  0.34693  0.86253  1.0000
  C   C81       1.0  0.15222  0.35835  0.52223  1.0000
  H   H133      1.0  0.09794  0.36461  0.88382  1.0000
  C   C82       1.0  0.09125  0.35064  0.86790  1.0000
  H   H134      1.0  0.06225  0.33569  0.84065  1.0000
  C   C83       1.0  0.11344  0.45486  0.94106  1.0000
  H   H135      1.0  0.10725  0.45123  0.88318  1.0000
  H   H136      1.0  0.08433  0.32964  0.79316  1.0000
  C   C84       1.0  0.99447  0.29248  0.94949  1.0000
  C   C85       1.0  0.98832  0.26451  0.84116  1.0000
  H   H137      1.0  0.14055  0.36441  0.52639  1.0000
  H   H138      1.0  0.21127  0.40108  0.89352  1.0000
  H   H139      1.0  0.12565  0.46282  0.96068  1.0000
  H   H140      1.0  0.09395  0.42221  0.60434  1.0000
  C   C86       1.0  0.00555  0.28264  0.82747  1.0000
  H   H141      1.0  0.09838  0.46201  0.76462  1.0000
  H   H142      1.0  0.16219  0.36067  0.85292  1.0000
  C   C87       1.0  0.10241  0.30346  0.53093  1.0000
  H   H143      1.0  0.20898  0.35093  0.52427  1.0000
  C   C88       1.0  0.06801  0.41320  0.56805  1.0000
  S   S23       1.0  0.12203  0.38833  0.97920  1.0000
  H   H144      1.0  0.10044  0.45855  0.94744  1.0000
  H   H145      1.0  0.10388  0.29129  0.54689  1.0000
  H   H146      1.0  0.18871  0.42845  0.64705  1.0000
  C   C89       1.0  0.09650  0.33171  0.81347  1.0000
  H   H147      1.0  0.10886  0.33111  0.79675  1.0000
  H   H148      1.0  0.10129  0.29560  0.80403  1.0000
  H   H149      1.0  0.99446  0.35964  0.55438  1.0000
  H   H150      1.0  0.12989  0.33395  0.85947  1.0000
  H   H151      1.0  0.20958  0.41240  0.61903  1.0000
  H   H152      1.0  0.08140  0.28168  0.83280  1.0000
  H   H153      1.0  0.20276  0.34184  0.97930  1.0000
  H   H154      1.0  0.16984  0.31609  0.53129  1.0000
  H   H155      1.0  0.12849  0.37526  0.85243  1.0000
  H   H156      1.0  0.09265  0.33951  0.88672  1.0000
  C   C90       1.0  0.12412  0.35981  0.84213  1.0000
  H   H157      1.0  0.13276  0.36045  0.81702  1.0000
  C   C91       1.0  0.21639  0.42472  0.63897  1.0000
  C   C92       1.0  0.15725  0.37825  0.64235  1.0000
  C   C93       1.0  0.16157  0.37418  0.60276  1.0000
  H   H158      1.0  0.07626  0.29262  0.79188  1.0000
  H   H159      1.0  0.01978  0.35715  0.48928  1.0000
  H   H160      1.0  0.20328  0.32591  0.50964  1.0000
  C   C94       1.0  0.16209  0.36829  0.98396  1.0000
  H   H161      1.0  0.17727  0.37622  0.60213  1.0000
  H   H162      1.0  0.06435  0.35113  0.92054  1.0000
  H   H163      1.0  0.01764  0.29492  0.88153  1.0000
  H   H164      1.0  0.18466  0.35830  0.56212  1.0000
  C   C95       1.0  0.20003  0.33545  0.53043  1.0000
  H   H165      1.0  0.15902  0.38532  0.58526  1.0000
  H   H166      1.0  0.07475  0.31108  0.84913  1.0000
  H   H167      1.0  0.15834  0.39680  0.49823  1.0000
  C   C96       1.0  0.05793  0.34018  0.89787  1.0000
  C   C97       1.0  0.08929  0.31317  0.83758  1.0000
  C   C98       1.0  0.11971  0.46005  0.90153  1.0000
  H   H168      1.0  0.04910  0.35294  0.50024  1.0000
  H   H169      1.0  0.01847  0.34538  0.53214  1.0000
  H   H170      1.0  0.20779  0.36024  0.91621  1.0000
  H   H171      1.0  0.16168  0.36897  0.66160  1.0000
  C   C99       1.0  0.19671  0.38182  0.95953  1.0000
  C   C100      1.0  0.20389  0.43736  0.63885  1.0000
  H   H172      1.0  0.19093  0.38046  0.93083  1.0000
  C   C101      1.0  0.06140  0.39340  0.49413  1.0000
  H   H173      1.0  0.07090  0.41205  0.62775  1.0000
  C   C102      1.0  0.03386  0.37747  0.53644  1.0000
  H   H174      1.0  0.04232  0.33835  0.89366  1.0000
  H   H175      1.0  0.11391  0.33499  0.53057  1.0000
  C   C103      1.0  0.06802  0.39242  0.55963  1.0000
  H   H176      1.0  0.00105  0.29510  0.82149  1.0000
  H   H177      1.0  0.05840  0.32584  0.90599  1.0000
  H   H178      1.0  0.15661  0.37448  0.88975  1.0000
  H   H179      1.0  0.98621  0.34496  0.51294  1.0000
  C   C104      1.0  0.01790  0.35872  0.51908  1.0000
  H   H180      1.0  0.14016  0.31937  0.51977  1.0000
  H   H181      1.0  0.15886  0.35129  0.89882  1.0000
  H   H182      1.0  0.08692  0.30240  0.53192  1.0000
  H   H183      1.0  0.14138  0.37523  0.64553  1.0000
  H   H184      1.0  0.20428  0.33186  0.55799  1.0000
  C   C105      1.0  0.17262  0.34375  0.55923  1.0000
  C   C106      1.0  0.15372  0.35951  0.87838  1.0000
  H   H185      1.0  0.17849  0.38459  0.53820  1.0000
  H   H186      1.0  0.02764  0.27777  0.86268  1.0000
  H   H187      1.0  0.17309  0.33629  0.58547  1.0000
  H   H188      1.0  0.12422  0.34733  0.89707  1.0000
  H   H189      1.0  0.98172  0.25308  0.76880  1.0000
  C   C107      1.0  0.97858  0.28946  0.48891  1.0000
  H   H190      1.0  0.09944  0.31416  0.86094  1.0000
  C   C108      1.0  0.08693  0.29469  0.81502  1.0000
  H   H191      1.0  0.15641  0.37075  0.95686  1.0000
  S   S24       1.0  0.20512  0.43722  0.74284  1.0000
  C   C109      1.0  0.17820  0.33207  0.52850  1.0000
  Fe  Fe12      1.0  0.17864  0.44604  0.73525  1.0000
  H   H192      1.0  0.08351  0.39424  0.55487  1.0000
  H   H193      1.0  0.20324  0.44312  0.61104  1.0000
  H   H194      1.0  0.10590  0.30179  0.50177  1.0000
  H   H195      1.0  0.03025  0.39033  0.52839  1.0000
  H   H196      1.0  0.17464  0.33633  0.50114  1.0000
  H   H197      1.0  0.11328  0.46396  0.82782  1.0000
  C   C110      1.0  0.21394  0.32850  0.93708  1.0000
  H   H198      1.0  0.07383  0.36566  0.51192  1.0000
  C   C111      1.0  0.21858  0.36460  0.93965  1.0000
  C   C112      1.0  0.17147  0.37571  0.51347  1.0000
  C   C113      1.0  0.99036  0.25728  0.98253  1.0000
  C   C114      1.0  0.16765  0.38945  0.48592  1.0000
  C   C115      1.0  0.11705  0.48010  0.82942  1.0000
  H   H199      1.0  0.07736  0.39687  0.48970  1.0000
  H   H200      1.0  0.98139  0.27688  0.77345  1.0000
  H   H201      1.0  0.99425  0.25254  0.84165  1.0000
  H   H202      1.0  0.07604  0.42357  0.54664  1.0000
  N   N6        1.0  0.21744  0.38226  0.96016  1.0000
  C   C116      1.0  0.21589  0.34603  0.96212  1.0000
  H   H203      1.0  0.21364  0.31596  0.95408  1.0000
  S   S25       1.0  0.03339  0.31198  0.97056  1.0000
  H   H204      1.0  0.19640  0.39602  0.97004  1.0000
  H   H205      1.0  0.17790  0.46651  0.86136  1.0000
  C   C117      1.0  0.18136  0.36494  0.98030  1.0000
  H   H206      1.0  0.98591  0.26734  0.87053  1.0000
  C   C118      1.0  0.10377  0.47828  0.76417  1.0000
  H   H207      1.0  0.10323  0.48187  0.83763  1.0000
  C   C119      1.0  0.12529  0.48233  0.89515  1.0000
  S   S26       1.0  0.20465  0.83050  0.03117  1.0000
  Fe  Fe13      1.0  0.07246  0.69238  0.04003  1.0000
  S   S27       1.0  0.07444  0.66622  0.06807  1.0000
  C   C120      1.0  0.05853  0.62004  0.01533  1.0000
  Fe  Fe14      1.0  0.11705  0.71792  0.05800  1.0000
  S   S28       1.0  0.12025  0.69245  0.08736  1.0000
  C   C121      1.0  0.02129  0.67008  0.99980  1.0000
  Fe  Fe15      1.0  0.10338  0.67415  0.03886  1.0000
  Fe  Fe16      1.0  0.09130  0.68759  0.11361  1.0000
  S   S29       1.0  0.08257  0.68691  0.17460  1.0000
  S   S30       1.0  0.08852  0.71382  0.08616  1.0000
  H   H208      1.0  0.21768  0.87241  0.13541  1.0000
  Fe  Fe17      1.0  0.11424  0.72584  0.42789  1.0000
  S   S31       1.0  0.12902  0.70415  0.42624  1.0000
  S   S32       1.0  0.13162  0.75716  0.40853  1.0000
  Fe  Fe18      1.0  0.07370  0.69258  0.44606  1.0000
  S   S33       1.0  0.08686  0.66942  0.44418  1.0000
  H   H209      1.0  0.04511  0.71775  0.34591  1.0000
  H   H210      1.0  0.19264  0.84525  0.16905  1.0000
  Fe  Fe19      1.0  0.10227  0.68489  0.39329  1.0000
  S   S34       1.0  0.10619  0.67104  0.33836  1.0000
  H   H211      1.0  0.19148  0.81631  0.39596  1.0000
  S   S35       1.0  0.08779  0.70681  0.39367  1.0000
  H   H212      1.0  0.21261  0.79582  0.05356  1.0000
  H   H213      1.0  0.14602  0.69821  0.35639  1.0000
  C   C122      1.0  0.04010  0.64665  0.33534  1.0000
  C   C123      1.0  0.19241  0.80210  0.44678  1.0000
  H   H214      1.0  0.07384  0.63053  0.01968  1.0000
  N   N7        1.0  0.02529  0.65635  0.33966  1.0000
  C   C124      1.0  0.15555  0.77355  0.42304  1.0000
  C   C125      1.0  0.16567  0.78976  0.40125  1.0000
  C   C126      1.0  0.18409  0.80380  0.41275  1.0000
  H   H215      1.0  0.15458  0.78740  0.11283  1.0000
  H   H216      1.0  0.15728  0.76724  0.13707  1.0000
  H   H217      1.0  0.19024  0.76163  0.06553  1.0000
  C   C127      1.0  0.16704  0.69067  0.05701  1.0000
  C   C128      1.0  0.08965  0.68234  0.21968  1.0000
  C   C129      1.0  0.10390  0.67423  0.22616  1.0000
  C   C130      1.0  0.10873  0.67081  0.26253  1.0000
  C   C131      1.0  0.09976  0.67583  0.29296  1.0000
  C   C132      1.0  0.08568  0.68410  0.28648  1.0000
  C   C133      1.0  0.08049  0.68707  0.25015  1.0000
  H   H218      1.0  0.11101  0.67036  0.20315  1.0000
  H   H219      1.0  0.11956  0.66428  0.26709  1.0000
  H   H220      1.0  0.07876  0.68814  0.30949  1.0000
  H   H221      1.0  0.06946  0.69335  0.24557  1.0000
  H   H222      1.0  0.07220  0.63288  0.39039  1.0000
  H   H223      1.0  0.14007  0.77789  0.15249  1.0000
  H   H224      1.0  0.17007  0.70261  0.33930  1.0000
  C   C134      1.0  0.18941  0.80542  0.03748  1.0000
  C   C135      1.0  0.19696  0.79152  0.04917  1.0000
  C   C136      1.0  0.02023  0.64733  0.47313  1.0000
  C   C137      1.0  0.16379  0.76602  0.04939  1.0000
  H   H225      1.0  0.16805  0.80978  0.16498  1.0000
  S   S36       1.0  0.21392  0.82092  0.46565  1.0000
  H   H226      1.0  0.15024  0.69280  0.99035  1.0000
  H   H227      1.0  0.19868  0.78944  0.28748  1.0000
  H   H228      1.0  0.01439  0.68390  0.38603  1.0000
  H   H229      1.0  0.02719  0.71926  0.37788  1.0000
  H   H230      1.0  0.04798  0.68511  0.33495  1.0000
  H   H231      1.0  0.17582  0.68493  0.07528  1.0000
  H   H232      1.0  0.00313  0.61684  0.48330  1.0000
  H   H233      1.0  0.05080  0.61640  0.36576  1.0000
  C   C138      1.0  0.19715  0.84225  0.14145  1.0000
  H   H234      1.0  0.00461  0.68137  0.07934  1.0000
  H   H235      1.0  0.16867  0.79028  0.19334  1.0000
  H   H236      1.0  0.19290  0.78421  0.15894  1.0000
  C   C139      1.0  0.00869  0.63752  0.27990  1.0000
  H   H237      1.0  0.04370  0.64357  0.39521  1.0000
  H   H238      1.0  0.21873  0.77282  0.00210  1.0000
  H   H239      1.0  0.99058  0.62442  0.23164  1.0000
  H   H240      1.0  0.18057  0.79182  0.31797  1.0000
  C   C140      1.0  0.16521  0.70435  0.99415  1.0000
  H   H241      1.0  0.03258  0.63102  0.32644  1.0000
  C   C141      1.0  0.18235  0.78584  0.46841  1.0000
  H   H242      1.0  0.17054  0.85526  0.42920  1.0000
  C   C142      1.0  0.06215  0.63146  0.36649  1.0000
  H   H243      1.0  0.21274  0.88001  0.45664  1.0000
  H   H244      1.0  0.00812  0.62898  0.36577  1.0000
  C   C143      1.0  0.16420  0.77152  0.45644  1.0000
  H   H245      1.0  0.17369  0.82947  0.46188  1.0000
  H   H246      1.0  0.21881  0.78641  0.12493  1.0000
  H   H247      1.0  0.05859  0.60504  0.01121  1.0000
  H   H248      1.0  0.03308  0.64460  0.46477  1.0000
  N   N8        1.0  0.20874  0.81554  0.16745  1.0000
  H   H249      1.0  0.16295  0.80997  0.02213  1.0000
  H   H250      1.0  0.18418  0.83219  0.12561  1.0000
  S   S37       1.0  0.04137  0.68697  0.45899  1.0000
  H   H251      1.0  0.21437  0.82731  0.28253  1.0000
  S   S38       1.0  0.10076  0.69943  0.00906  1.0000
  H   H252      1.0  0.20718  0.88089  0.38822  1.0000
  C   C144      1.0  0.99968  0.63562  0.00365  1.0000
  C   C145      1.0  0.99570  0.63855  0.24742  1.0000
  C   C146      1.0  0.17709  0.69610  0.02012  1.0000
  C   C147      1.0  0.18278  0.78645  0.29030  1.0000
  C   C148      1.0  0.98888  0.64481  0.36101  1.0000
  H   H253      1.0  0.00409  0.65044  0.22875  1.0000
  C   C149      1.0  0.03615  0.67702  0.35411  1.0000
  H   H254      1.0  0.01404  0.68953  0.33788  1.0000
  C   C150      1.0  0.19353  0.86776  0.39112  1.0000
  H   H255      1.0  0.17814  0.79466  0.26912  1.0000
  S   S39       1.0  0.04348  0.69054  0.01112  1.0000
  H   H256      1.0  0.15219  0.67909  0.05300  1.0000
  N   N9        1.0  0.13540  0.73875  0.28305  1.0000
  C   C151      1.0  0.13780  0.72980  0.24664  1.0000
  C   C152      1.0  0.13859  0.72682  0.31444  1.0000
  C   C153      1.0  0.11455  0.73799  0.28414  1.0000
  C   C154      1.0  0.14883  0.75996  0.28745  1.0000
  C   C155      1.0  0.17109  0.76442  0.28594  1.0000
  C   C156      1.0  0.13237  0.73856  0.21152  1.0000
  C   C157      1.0  0.10798  0.74410  0.32110  1.0000
  C   C158      1.0  0.15359  0.71666  0.30847  1.0000
  C   C159      1.0  0.15913  0.70945  0.34449  1.0000
  H   H257      1.0  0.99689  0.62126  0.01468  1.0000
  C   C160      1.0  0.13683  0.72905  0.17687  1.0000
  C   C161      1.0  0.08603  0.74018  0.32002  1.0000
  H   H258      1.0  0.12845  0.71387  0.24590  1.0000
  H   H259      1.0  0.15303  0.73049  0.24336  1.0000
  H   H260      1.0  0.14284  0.73597  0.34020  1.0000
  H   H261      1.0  0.12462  0.71459  0.32089  1.0000
  H   H262      1.0  0.10420  0.72297  0.27670  1.0000
  H   H263      1.0  0.11202  0.74779  0.26336  1.0000
  H   H264      1.0  0.14505  0.76903  0.26671  1.0000
  H   H265      1.0  0.14660  0.76590  0.31461  1.0000
  H   H266      1.0  0.17506  0.75940  0.25945  1.0000
  H   H267      1.0  0.17578  0.75743  0.30909  1.0000
  H   H268      1.0  0.11640  0.73565  0.21021  1.0000
  H   H269      1.0  0.14070  0.75459  0.21059  1.0000
  H   H270      1.0  0.11585  0.75998  0.32715  1.0000
  H   H271      1.0  0.11077  0.73582  0.34415  1.0000
  H   H272      1.0  0.14701  0.70369  0.28971  1.0000
  H   H273      1.0  0.16733  0.72642  0.29610  1.0000
  H   H274      1.0  0.19692  0.85431  0.38726  1.0000
  H   H275      1.0  0.16560  0.72181  0.36460  1.0000
  H   H276      1.0  0.99768  0.65513  0.08275  1.0000
  C   C162      1.0  0.01738  0.65131  0.01345  1.0000
  H   H277      1.0  0.15284  0.73242  0.17486  1.0000
  H   H278      1.0  0.12891  0.71287  0.17690  1.0000
  H   H279      1.0  0.13180  0.73468  0.15210  1.0000
  H   H280      1.0  0.08175  0.74464  0.34684  1.0000
  H   H281      1.0  0.08246  0.74872  0.29804  1.0000
  H   H282      1.0  0.07742  0.72430  0.31509  1.0000
  H   H283      1.0  0.04366  0.67697  0.38082  1.0000
  H   H284      1.0  0.04679  0.71203  0.39373  1.0000
  C   C163      1.0  0.00990  0.64473  0.36640  1.0000
  H   H285      1.0  0.02789  0.64892  0.03198  1.0000
  H   H286      1.0  0.98167  0.64484  0.41866  1.0000
  H   H287      1.0  0.07086  0.63375  0.34109  1.0000
  H   H288      1.0  0.15906  0.79162  0.37556  1.0000
  H   H289      1.0  0.00530  0.66345  0.30306  1.0000
  H   H290      1.0  0.06458  0.66131  0.37356  1.0000
  S   S40       1.0  0.14856  0.74125  0.05842  1.0000
  H   H291      1.0  0.02100  0.63395  0.26862  1.0000
  H   H292      1.0  0.14064  0.77546  0.03197  1.0000
  H   H293      1.0  0.16568  0.70373  0.07069  1.0000
  C   C164      1.0  0.05260  0.64670  0.37006  1.0000
  C   C165      1.0  0.01696  0.65729  0.30187  1.0000
  C   C166      1.0  0.16899  0.79939  0.03129  1.0000
  H   H294      1.0  0.19204  0.70713  0.02573  1.0000
  H   H295      1.0  0.17825  0.68259  0.00821  1.0000
  C   C167      1.0  0.99567  0.66823  0.09482  1.0000
  C   C168      1.0  0.00317  0.63159  0.48361  1.0000
  C   C169      1.0  0.03654  0.71093  0.37029  1.0000
  H   H296      1.0  0.05055  0.65367  0.31314  1.0000
  H   H297      1.0  0.16291  0.71638  0.00974  1.0000
  H   H298      1.0  0.00118  0.67019  0.12375  1.0000
  C   C170      1.0  0.15627  0.77980  0.03686  1.0000
  C   C171      1.0  0.02360  0.68954  0.36169  1.0000
  H   H299      1.0  0.20254  0.80656  0.22333  1.0000
  C   C172      1.0  0.21562  0.84016  0.26564  1.0000
  C   C173      1.0  0.19146  0.79833  0.15181  1.0000
  H   H300      1.0  0.01489  0.64987  0.39510  1.0000
  S   S41       1.0  0.11472  0.65353  0.00678  1.0000
  H   H301      1.0  0.05021  0.62026  0.04046  1.0000
  H   H302      1.0  0.02851  0.66769  0.28462  1.0000
  H   H303      1.0  0.20150  0.84247  0.26564  1.0000
  C   C174      1.0  0.17063  0.79588  0.16489  1.0000
  C   C175      1.0  0.15471  0.78116  0.14036  1.0000
  C   C176      1.0  0.18465  0.86798  0.42876  1.0000
  H   H304      1.0  0.98890  0.65977  0.35804  1.0000
  H   H305      1.0  0.00003  0.62528  0.29756  1.0000
  C   C177      1.0  0.18421  0.77207  0.05561  1.0000
  H   H306      1.0  0.19148  0.82301  0.20899  1.0000
  H   H307      1.0  0.19137  0.79867  0.12126  1.0000
  S   S42       1.0  0.09852  0.71415  0.48019  1.0000
  H   H308      1.0  0.22556  0.79924  0.18994  1.0000
  C   C178      1.0  0.20505  0.81984  0.20673  1.0000
  H   H309      1.0  0.18154  0.88162  0.43112  1.0000
  H   H310      1.0  0.18292  0.86790  0.36916  1.0000
  C   C179      1.0  0.19889  0.86711  0.46005  1.0000
  H   H311      1.0  0.20793  0.85932  0.09252  1.0000
  H   H312      1.0  0.18960  0.74242  0.00947  1.0000
  C   C180      1.0  0.20442  0.86167  0.12134  1.0000
  H   H313      1.0  0.15661  0.75924  0.47367  1.0000
  H   H314      1.0  0.20292  0.85414  0.45469  1.0000
  H   H315      1.0  0.19277  0.86792  0.12073  1.0000
  H   H316      1.0  0.98167  0.63615  0.33602  1.0000
  H   H317      1.0  0.98263  0.64124  0.25721  1.0000
  C   C181      1.0  0.21313  0.83325  0.14359  1.0000
  H   H318      1.0  0.21541  0.82958  0.11470  1.0000
  Fe  Fe20      1.0  0.11217  0.69126  0.47715  1.0000
  H   H319      1.0  0.13844  0.81958  0.47673  1.0000
  C   C182      1.0  0.22144  0.83723  0.22646  1.0000
  C   C183      1.0  0.02052  0.66649  0.47313  1.0000
  H   H320      1.0  0.22410  0.85107  0.21177  1.0000
  C   C184      1.0  0.97601  0.63562  0.39353  1.0000
  C   C185      1.0  0.21776  0.75898  0.98790  1.0000
  C   C186      1.0  0.00351  0.66960  0.48396  1.0000
  H   H321      1.0  0.00347  0.68432  0.48405  1.0000
  H   H322      1.0  0.22555  0.75172  0.00523  1.0000
  H   H323      1.0  0.04858  0.64046  0.98832  1.0000
  H   H324      1.0  0.97569  0.62061  0.39845  1.0000
  C   C187      1.0  0.14003  0.51152  0.85785  1.0000
  C   C188      1.0  0.21138  0.73589  0.81507  1.0000
  C   C189      1.0  0.15214  0.55538  0.58752  1.0000
  S   S43       1.0  0.15121  0.50091  0.70799  1.0000
  Fe  Fe21      1.0  0.14858  0.64588  0.79544  1.0000
  S   S44       1.0  0.17557  0.63981  0.80965  1.0000
  S   S45       1.0  0.13141  0.65820  0.83444  1.0000
  Fe  Fe22      1.0  0.15283  0.63915  0.71274  1.0000
  S   S46       1.0  0.18064  0.63317  0.72215  1.0000
  S   S47       1.0  0.13778  0.63310  0.65568  1.0000
  Fe  Fe23      1.0  0.16466  0.61433  0.76868  1.0000
  S   S48       1.0  0.16807  0.58533  0.78477  1.0000
  Fe  Fe24      1.0  0.18944  0.65897  0.76201  1.0000
  H   H325      1.0  0.97883  0.65953  0.94819  1.0000
  S   S49       1.0  0.13641  0.61912  0.75775  1.0000
  S   S50       1.0  0.16283  0.66624  0.74934  1.0000
  C   C190      1.0  0.99316  0.63492  0.60569  1.0000
  H   H326      1.0  0.19070  0.61460  0.61503  1.0000
  C   C191      1.0  0.19429  0.71872  0.79763  1.0000
  H   H327      1.0  0.20595  0.59101  0.72672  1.0000
  H   H328      1.0  0.97999  0.63142  0.58736  1.0000
  H   H329      1.0  0.09706  0.57770  0.64049  1.0000
  H   H330      1.0  0.06843  0.69902  0.94513  1.0000
  H   H331      1.0  0.14774  0.80060  0.48589  1.0000
  H   H332      1.0  0.19978  0.71033  0.77796  1.0000
  C   C192      1.0  0.07930  0.62607  0.87186  1.0000
  H   H333      1.0  0.16182  0.68038  0.93970  1.0000
  H   H334      1.0  0.03957  0.64166  0.53598  1.0000
  H   H335      1.0  0.22123  0.78236  0.81243  1.0000
  H   H336      1.0  0.08589  0.69296  0.91830  1.0000
  H   H337      1.0  0.09816  0.61561  0.83954  1.0000
  C   C193      1.0  0.12809  0.65708  0.88277  1.0000
  C   C194      1.0  0.13207  0.64344  0.90468  1.0000
  C   C195      1.0  0.12801  0.64258  0.94261  1.0000
  C   C196      1.0  0.12008  0.65539  0.95910  1.0000
  C   C197      1.0  0.11640  0.66917  0.93721  1.0000
  C   C198      1.0  0.12024  0.66990  0.89935  1.0000
  H   H338      1.0  0.13795  0.63335  0.89231  1.0000
  H   H339      1.0  0.19020  0.48999  0.84018  1.0000
  H   H340      1.0  0.11029  0.67909  0.94926  1.0000
  H   H341      1.0  0.11696  0.68041  0.88266  1.0000
  C   C199      1.0  0.13495  0.64923  0.62195  1.0000
  C   C200      1.0  0.14226  0.66960  0.62735  1.0000
  C   C201      1.0  0.13955  0.68175  0.59981  1.0000
  C   C202      1.0  0.12959  0.67378  0.56647  1.0000
  C   C203      1.0  0.12241  0.65341  0.56097  1.0000
  C   C204      1.0  0.12499  0.64124  0.58862  1.0000
  H   H342      1.0  0.14998  0.67599  0.65275  1.0000
  H   H343      1.0  0.14526  0.69748  0.60437  1.0000
  H   H344      1.0  0.11501  0.64705  0.53535  1.0000
  H   H345      1.0  0.11930  0.62552  0.58406  1.0000
  C   C205      1.0  0.15562  0.52398  0.73084  1.0000
  C   C206      1.0  0.14712  0.53670  0.71602  1.0000
  C   C207      1.0  0.15046  0.55526  0.73251  1.0000
  C   C208      1.0  0.16277  0.56168  0.76358  1.0000
  C   C209      1.0  0.17104  0.54886  0.77875  1.0000
  C   C210      1.0  0.16748  0.53015  0.76261  1.0000
  H   H346      1.0  0.13774  0.53206  0.69175  1.0000
  H   H347      1.0  0.14340  0.56460  0.72155  1.0000
  H   H348      1.0  0.18050  0.55357  0.80292  1.0000
  H   H349      1.0  0.17424  0.52069  0.77432  1.0000
  H   H350      1.0  0.10791  0.56389  0.66779  1.0000
  H   H351      1.0  0.13097  0.55014  0.54208  1.0000
  H   H352      1.0  0.18914  0.75412  0.96622  1.0000
  C   C211      1.0  0.22171  0.78096  0.56686  1.0000
  H   H353      1.0  0.07589  0.63486  0.95184  1.0000
  C   C212      1.0  0.01787  0.60506  0.90897  1.0000
  C   C213      1.0  0.98937  0.65712  0.96657  1.0000
  H   H354      1.0  0.11179  0.48541  0.90021  1.0000
  H   H355      1.0  0.19995  0.86049  0.55291  1.0000
  H   H356      1.0  0.13959  0.54723  0.83215  1.0000
  H   H357      1.0  0.03357  0.61520  0.98033  1.0000
  H   H358      1.0  0.07926  0.65744  0.90475  1.0000
  H   H359      1.0  0.08757  0.62603  0.89761  1.0000
  H   H360      1.0  0.22096  0.72959  0.82974  1.0000
  H   H361      1.0  0.01032  0.63034  0.56224  1.0000
  H   H362      1.0  0.14833  0.74832  0.91152  1.0000
  H   H363      1.0  0.15201  0.61662  0.58552  1.0000
  H   H364      1.0  0.05052  0.60509  0.88283  1.0000
  C   C214      1.0  0.06999  0.68904  0.92323  1.0000
  H   H365      1.0  0.17820  0.88825  0.48978  1.0000
  H   H366      1.0  0.18849  0.78440  0.49490  1.0000
  H   H367      1.0  0.11275  0.51483  0.83812  1.0000
  H   H368      1.0  0.12754  0.72513  0.91009  1.0000
  C   C215      1.0  0.06319  0.65361  0.90578  1.0000
  C   C216      1.0  0.13253  0.54259  0.85901  1.0000
  C   C217      1.0  0.18490  0.91070  0.55207  1.0000
  H   H369      1.0  0.15049  0.51802  0.88122  1.0000
  H   H370      1.0  0.19256  0.56762  0.70477  1.0000
  H   H371      1.0  0.06804  0.66661  0.96132  1.0000
  H   H372      1.0  0.16731  0.85014  0.53221  1.0000
  H   H373      1.0  0.07678  0.59637  0.85639  1.0000
  H   H374      1.0  0.18391  0.72402  0.78289  1.0000
  H   H375      1.0  0.05870  0.65757  0.87858  1.0000
  H   H376      1.0  0.06264  0.69135  0.89782  1.0000
  H   H377      1.0  0.19643  0.60815  0.67645  1.0000
  H   H378      1.0  0.12897  0.74373  0.94413  1.0000
  C   C218      1.0  0.03089  0.62724  0.91121  1.0000
  H   H379      1.0  0.05047  0.62423  0.85349  1.0000
  C   C219      1.0  0.12378  0.52021  0.86085  1.0000
  C   C220      1.0  0.08224  0.61131  0.84485  1.0000
  H   H380      1.0  0.17217  0.66436  0.88439  1.0000
  H   H381      1.0  0.21153  0.75548  0.77256  1.0000
  H   H382      1.0  0.17364  0.58279  0.56983  1.0000
  H   H383      1.0  0.02658  0.63414  0.88723  1.0000
  H   H384      1.0  0.04759  0.62818  0.56759  1.0000
  N   N10       1.0  0.05276  0.63192  0.91166  1.0000
  H   H385      1.0  0.07451  0.61110  0.81830  1.0000
  H   H386      1.0  0.08585  0.64072  0.85937  1.0000
  H   H387      1.0  0.20790  0.84932  0.51661  1.0000
  H   H388      1.0  0.17284  0.64848  0.56324  1.0000
  H   H389      1.0  0.00983  0.68722  0.96561  1.0000
  C   C221      1.0  0.06012  0.62563  0.94650  1.0000
  H   H390      1.0  0.20473  0.72066  0.97301  1.0000
  H   H391      1.0  0.02388  0.59636  0.92668  1.0000
  C   C222      1.0  0.14373  0.54624  0.55003  1.0000
  C   C223      1.0  0.98649  0.65387  0.49469  1.0000
  H   H392      1.0  0.19002  0.76680  0.56972  1.0000
  H   H393      1.0  0.05978  0.61040  0.94331  1.0000
  H   H394      1.0  0.22040  0.78766  0.54039  1.0000
  H   H395      1.0  0.17294  0.91198  0.53448  1.0000
  C   C224      1.0  0.16045  0.71797  0.93437  1.0000
  H   H396      1.0  0.08517  0.63822  0.49639  1.0000
  H   H397      1.0  0.99655  0.60461  0.95014  1.0000
  H   H398      1.0  0.07245  0.66282  0.52066  1.0000
  C   C225      1.0  0.17835  0.64214  0.58643  1.0000
  C   C226      1.0  0.18058  0.69571  0.89603  1.0000
  C   C227      1.0  0.18593  0.89039  0.54728  1.0000
  S   S51       1.0  0.12665  0.69005  0.53304  1.0000
  H   H399      1.0  0.18186  0.91311  0.58117  1.0000
  C   C228      1.0  0.20593  0.86312  0.52473  1.0000
  C   C229      1.0  0.14853  0.72836  0.95510  1.0000
  N   N11       1.0  0.17397  0.71101  0.95711  1.0000
  C   C230      1.0  0.17573  0.69341  0.93756  1.0000
  H   H400      1.0  0.16874  0.72772  0.91225  1.0000
  N   N12       1.0  0.19165  0.86695  0.49865  1.0000
  H   H401      1.0  0.19762  0.88979  0.56633  1.0000
  H   H402      1.0  0.11613  0.51634  0.88731  1.0000
  H   H403      1.0  0.17928  0.82486  0.50826  1.0000
  H   H404      1.0  0.15711  0.49075  0.82283  1.0000
  C   C231      1.0  0.22258  0.75033  0.78528  1.0000
  C   C232      1.0  0.17165  0.85108  0.50296  1.0000
  H   H405      1.0  0.16418  0.55026  0.59482  1.0000
  H   H406      1.0  0.15776  0.74033  0.97380  1.0000
  H   H407      1.0  0.19359  0.70906  0.89089  1.0000
  H   H408      1.0  0.16797  0.69646  0.87975  1.0000
  H   H409      1.0  0.14361  0.54899  0.88145  1.0000
  C   C233      1.0  0.00706  0.67283  0.97644  1.0000
  C   C234      1.0  0.01165  0.64214  0.58272  1.0000
  H   H410      1.0  0.99050  0.61035  0.90449  1.0000
  H   H411      1.0  0.01168  0.65518  0.56773  1.0000
  H   H412      1.0  0.05893  0.62993  0.48973  1.0000
  H   H413      1.0  0.20375  0.89878  0.49863  1.0000
  H   H414      1.0  0.13868  0.53002  0.55129  1.0000
  C   C235      1.0  0.19016  0.88656  0.50683  1.0000
  H   H415      1.0  0.20495  0.74327  0.83489  1.0000
  H   H416      1.0  0.19801  0.67718  0.89518  1.0000
  H   H417      1.0  0.20336  0.75537  0.59696  1.0000
  C   C236      1.0  0.15035  0.48372  0.84869  1.0000
  N   N13       1.0  0.04974  0.65672  0.58816  1.0000
  C   C237      1.0  0.06607  0.66053  0.61653  1.0000
  C   C238      1.0  0.04962  0.67587  0.57318  1.0000
  C   C239      1.0  0.03049  0.64669  0.60711  1.0000
  C   C240      1.0  0.05102  0.64329  0.55744  1.0000
  C   C241      1.0  0.07065  0.64970  0.53705  1.0000
  C   C242      1.0  0.06836  0.64219  0.63346  1.0000
  C   C243      1.0  0.99686  0.60125  0.92041  1.0000
  C   C244      1.0  0.06957  0.69344  0.57155  1.0000
  C   C245      1.0  0.06702  0.71123  0.55438  1.0000
  C   C246      1.0  0.98612  0.63467  0.49443  1.0000
  C   C247      1.0  0.08631  0.64814  0.65939  1.0000
  C   C248      1.0  0.18495  0.67824  0.88097  1.0000
  H   H418      1.0  0.06414  0.66981  0.63953  1.0000
  H   H419      1.0  0.08058  0.66915  0.60496  1.0000
  H   H420      1.0  0.04282  0.67353  0.54504  1.0000
  H   H421      1.0  0.04019  0.68148  0.59010  1.0000
  H   H422      1.0  0.02947  0.65572  0.63135  1.0000
  H   H423      1.0  0.01721  0.59951  0.88020  1.0000
  H   H424      1.0  0.02953  0.63234  0.61808  1.0000
  H   H425      1.0  0.13588  0.49068  0.91725  1.0000
  H   H426      1.0  0.08339  0.65308  0.55615  1.0000
  H   H427      1.0  0.14862  0.51750  0.83290  1.0000
  H   H428      1.0  0.05540  0.63377  0.64971  1.0000
  H   H429      1.0  0.07046  0.63239  0.61184  1.0000
  H   H430      1.0  0.99202  0.62140  0.62035  1.0000
  H   H431      1.0  0.11452  0.58992  0.67663  1.0000
  H   H432      1.0  0.07577  0.69811  0.59970  1.0000
  H   H433      1.0  0.08045  0.68970  0.55546  1.0000
  H   H434      1.0  0.06123  0.70774  0.52575  1.0000
  H   H435      1.0  0.05677  0.71596  0.57056  1.0000
  H   H436      1.0  0.08144  0.72361  0.55388  1.0000
  H   H437      1.0  0.18611  0.70858  0.81912  1.0000
  H   H438      1.0  0.19444  0.64630  0.58386  1.0000
  H   H439      1.0  0.04490  0.66483  0.94030  1.0000
  H   H440      1.0  0.08803  0.63483  0.67045  1.0000
  H   H441      1.0  0.09986  0.65654  0.64453  1.0000
  H   H442      1.0  0.08467  0.65725  0.68279  1.0000
  H   H443      1.0  0.12074  0.54855  0.86187  1.0000
  C   C249      1.0  0.20311  0.76264  0.57052  1.0000
  C   C250      1.0  0.05722  0.62123  0.87922  1.0000
  N   N14       1.0  0.16468  0.58858  0.62351  1.0000
  C   C251      1.0  0.16014  0.57814  0.58659  1.0000
  C   C252      1.0  0.17461  0.61054  0.61868  1.0000
  C   C253      1.0  0.17906  0.58169  0.64362  1.0000
  C   C254      1.0  0.14661  0.58379  0.64671  1.0000
  C   C255      1.0  0.12729  0.58274  0.62733  1.0000
  C   C256      1.0  0.18748  0.59245  0.68069  1.0000
  C   C257      1.0  0.16791  0.61982  0.58561  1.0000
  H   H444      1.0  0.19176  0.58308  0.62589  1.0000
  C   C258      1.0  0.11072  0.57825  0.65484  1.0000
  H   H445      1.0  0.17155  0.61431  0.55924  1.0000
  H   H446      1.0  0.14942  0.58251  0.57068  1.0000
  H   H447      1.0  0.17331  0.61865  0.64397  1.0000
  H   H448      1.0  0.17169  0.87944  0.55585  1.0000
  H   H449      1.0  0.17375  0.50551  0.88257  1.0000
  H   H450      1.0  0.17212  0.56583  0.65004  1.0000
  H   H451      1.0  0.14316  0.56930  0.65959  1.0000
  H   H452      1.0  0.14943  0.59450  0.67015  1.0000
  H   H453      1.0  0.12246  0.57096  0.60583  1.0000
  H   H454      1.0  0.12887  0.59673  0.61464  1.0000
  H   H455      1.0  0.14044  0.54963  0.60800  1.0000
  H   H456      1.0  0.17552  0.59153  0.69965  1.0000
  H   H457      1.0  0.02646  0.63387  0.93543  1.0000
  C   C259      1.0  0.06056  0.66776  0.93526  1.0000
  H   H458      1.0  0.99322  0.64642  0.62593  1.0000
  H   H459      1.0  0.98753  0.58556  0.91543  1.0000
  C   C260      1.0  0.13771  0.73688  0.92838  1.0000
  H   H460      1.0  0.15510  0.55136  0.52872  1.0000
  H   H461      1.0  0.13094  0.63183  0.95921  1.0000
  H   H462      1.0  0.17542  0.64859  0.61243  1.0000
  H   H463      1.0  0.12638  0.50348  0.78803  1.0000
  H   H464      1.0  0.22197  0.79114  0.58985  1.0000
  H   H465      1.0  0.18804  0.68005  0.85120  1.0000
  H   H466      1.0  0.14395  0.81489  0.52357  1.0000
  H   H467      1.0  0.20019  0.73158  0.93299  1.0000
  C   C261      1.0  0.12175  0.48735  0.78963  1.0000
  H   H468      1.0  0.19908  0.92231  0.54484  1.0000
  C   C262      1.0  0.18362  0.48269  0.86591  1.0000
  H   H469      1.0  0.20168  0.75209  0.54742  1.0000
  H   H470      1.0  0.14904  0.70529  0.91994  1.0000
  C   C263      1.0  0.20073  0.58343  0.69973  1.0000
  H   H471      1.0  0.06943  0.61996  0.52599  1.0000
  H   H472      1.0  0.21571  0.69912  0.70598  1.0000
  H   H473      1.0  0.18731  0.68926  0.95100  1.0000
  C   C264      1.0  0.16721  0.48939  0.87804  1.0000
  C   C265      1.0  0.19428  0.72669  0.96055  1.0000
  C   C266      1.0  0.19621  0.74565  0.98206  1.0000
  H   H474      1.0  0.21369  0.58509  0.68280  1.0000
  H   H475      1.0  0.21243  0.79056  0.87454  1.0000
  H   H476      1.0  0.22521  0.76277  0.96117  1.0000
  N   N15       1.0  0.13316  0.48942  0.85780  1.0000
  C   C267      1.0  0.04895  0.62583  0.98232  1.0000
  S   S52       1.0  0.22021  0.68145  0.77583  1.0000
  C   C268      1.0  0.07096  0.63341  0.51069  1.0000
  C   C269      1.0  0.98549  0.63833  0.98011  1.0000
  H   H477      1.0  0.13728  0.71758  0.97194  1.0000
  H   H478      1.0  0.16020  0.85475  0.48784  1.0000
  H   H479      1.0  0.19535  0.48663  0.88755  1.0000
  C   C270      1.0  0.14864  0.81548  0.49461  1.0000
  C   C271      1.0  0.16970  0.83006  0.49094  1.0000
  H   H480      1.0  0.16197  0.48245  0.90466  1.0000
  H   H481      1.0  0.09183  0.48321  0.77258  1.0000
  H   H482      1.0  0.13364  0.48305  0.77873  1.0000
  H   H483      1.0  0.10781  0.48298  0.73558  1.0000
  H   H484      1.0  0.46104  0.08472  0.03968  1.0000
  H   H485      1.0  0.40856  0.09451  0.11151  1.0000
  H   H486      1.0  0.46572  0.11081  0.39413  1.0000
  H   H487      1.0  0.30872  0.30503  0.25694  1.0000
  Fe  Fe25      1.0  0.27383  0.36248  0.00753  1.0000
  H   H488      1.0  0.35882  0.33090  0.35124  1.0000
  Fe  Fe26      1.0  0.27651  0.35657  0.09263  1.0000
  S   S53       1.0  0.26504  0.32398  0.08503  1.0000
  S   S54       1.0  0.28474  0.37123  0.15024  1.0000
  Fe  Fe27      1.0  0.28534  0.32899  0.03690  1.0000
  H   H489      1.0  0.35709  0.28764  0.99170  1.0000
  Fe  Fe28      1.0  0.24295  0.32830  0.04548  1.0000
  H   H490      1.0  0.45764  0.10775  0.46046  1.0000
  S   S55       1.0  0.29787  0.36189  0.04597  1.0000
  S   S56       1.0  0.25367  0.36076  0.05500  1.0000
  S   S57       1.0  0.44516  0.08718  0.32905  1.0000
  H   H491      1.0  0.40153  0.08097  0.04748  1.0000
  H   H492      1.0  0.44176  0.23401  0.28696  1.0000
  Fe  Fe29      1.0  0.29080  0.36960  0.45088  1.0000
  S   S58       1.0  0.45674  0.30804  0.16173  1.0000
  Fe  Fe30      1.0  0.27650  0.34556  0.37685  1.0000
  S   S59       1.0  0.25286  0.32171  0.40687  1.0000
  S   S60       1.0  0.27446  0.33767  0.31450  1.0000
  Fe  Fe31      1.0  0.24701  0.34622  0.43567  1.0000
  H   H493      1.0  0.23417  0.41515  0.01200  1.0000
  Fe  Fe32      1.0  0.27612  0.32518  0.45080  1.0000
  H   H494      1.0  0.38306  0.10111  0.00754  1.0000
  S   S61       1.0  0.26992  0.36994  0.40482  1.0000
  S   S62       1.0  0.30008  0.34753  0.41978  1.0000
  H   H495      1.0  0.43337  0.13477  0.41924  1.0000
  H   H496      1.0  0.39101  0.10781  0.05443  1.0000
  H   H497      1.0  0.24506  0.38969  0.32879  1.0000
  H   H498      1.0  0.44712  0.21105  0.33214  1.0000
  H   H499      1.0  0.23902  0.41132  0.37547  1.0000
  H   H500      1.0  0.23404  0.35876  0.35656  1.0000
  H   H501      1.0  0.46788  0.06622  0.29175  1.0000
  C   C272      1.0  0.28149  0.36152  0.19567  1.0000
  C   C273      1.0  0.28823  0.37450  0.22621  1.0000
  C   C274      1.0  0.28595  0.36761  0.26263  1.0000
  C   C275      1.0  0.27708  0.34752  0.26920  1.0000
  C   C276      1.0  0.27025  0.33454  0.23866  1.0000
  C   C277      1.0  0.27231  0.34146  0.20226  1.0000
  H   H502      1.0  0.29529  0.39006  0.22166  1.0000
  H   H503      1.0  0.29134  0.37785  0.28558  1.0000
  H   H504      1.0  0.26333  0.31897  0.24321  1.0000
  H   H505      1.0  0.26684  0.33125  0.17931  1.0000
  S   S63       1.0  0.45079  0.12398  0.25265  1.0000
  H   H506      1.0  0.33603  0.99874  0.37729  1.0000
  H   H507      1.0  0.34765  0.31339  0.02192  1.0000
  H   H508      1.0  0.32655  0.37947  0.12074  1.0000
  H   H509      1.0  0.41777  0.11243  0.39571  1.0000
  H   H510      1.0  0.35851  0.99394  0.11666  1.0000
  S   S64       1.0  0.45510  0.28789  0.33155  1.0000
  C   C278      1.0  0.44994  0.29544  0.11823  1.0000
  C   C279      1.0  0.46335  0.29087  0.09669  1.0000
  C   C280      1.0  0.45763  0.28177  0.06166  1.0000
  C   C281      1.0  0.43838  0.27698  0.04759  1.0000
  C   C282      1.0  0.42489  0.28143  0.06920  1.0000
  C   C283      1.0  0.43070  0.29071  0.10411  1.0000
  C   C284      1.0  0.31781  0.32062  0.25176  1.0000
  C   C285      1.0  0.45654  0.15275  0.08747  1.0000
  H   H511      1.0  0.31244  0.32996  0.26949  1.0000
  C   C286      1.0  0.45064  0.28636  0.37968  1.0000
  C   C287      1.0  0.45928  0.29677  0.44368  1.0000
  C   C288      1.0  0.44179  0.28234  0.45577  1.0000
  C   C289      1.0  0.42893  0.26976  0.42956  1.0000
  C   C290      1.0  0.43318  0.27197  0.39184  1.0000
  H   H512      1.0  0.41559  0.25840  0.43835  1.0000
  H   H513      1.0  0.42290  0.26230  0.37195  1.0000
  C   C291      1.0  0.43948  0.08692  0.37657  1.0000
  C   C292      1.0  0.42182  0.07274  0.38852  1.0000
  C   C293      1.0  0.41693  0.07132  0.42600  1.0000
  C   C294      1.0  0.42987  0.08377  0.45229  1.0000
  C   C295      1.0  0.44753  0.09801  0.44039  1.0000
  C   C296      1.0  0.45221  0.09974  0.40276  1.0000
  H   H514      1.0  0.41188  0.06268  0.36864  1.0000
  H   H515      1.0  0.40339  0.06017  0.43466  1.0000
  H   H516      1.0  0.45439  0.24880  0.41572  1.0000
  C   C297      1.0  0.43883  0.09715  0.11228  1.0000
  C   C298      1.0  0.45356  0.09432  0.09176  1.0000
  C   C299      1.0  0.44953  0.08684  0.05532  1.0000
  C   C300      1.0  0.43077  0.08203  0.03904  1.0000
  C   C301      1.0  0.41605  0.08483  0.05955  1.0000
  C   C302      1.0  0.42010  0.09245  0.09584  1.0000
  H   H517      1.0  0.34051  0.35800  0.01865  1.0000
  H   H518      1.0  0.31697  0.99032  0.41093  1.0000
  C   C303      1.0  0.37651  0.99472  0.06760  1.0000
  C   C304      1.0  0.44333  0.19483  0.15454  1.0000
  C   C305      1.0  0.46649  0.24140  0.34891  1.0000
  H   H519      1.0  0.36414  0.37226  0.46381  1.0000
  H   H520      1.0  0.41602  0.01181  0.05226  1.0000
  C   C306      1.0  0.32842  0.27432  0.48307  1.0000
  H   H521      1.0  0.42909  0.19476  0.16401  1.0000
  C   C307      1.0  0.34795  0.36730  0.46045  1.0000
  H   H522      1.0  0.34229  0.35314  0.44480  1.0000
  H   H523      1.0  0.42695  0.31745  0.46729  1.0000
  H   H524      1.0  0.22927  0.35246  0.18254  1.0000
  H   H525      1.0  0.35499  0.30552  0.15343  1.0000
  C   C308      1.0  0.42123  0.25287  0.20711  1.0000
  H   H526      1.0  0.43154  0.24421  0.32294  1.0000
  C   C309      1.0  0.37223  0.25224  0.39479  1.0000
  H   H527      1.0  0.28720  0.28132  0.99207  1.0000
  H   H528      1.0  0.42542  0.00719  0.98872  1.0000
  H   H529      1.0  0.24903  0.40157  0.06063  1.0000
  H   H530      1.0  0.24206  0.39073  0.39718  1.0000
  H   H531      1.0  0.41955  0.21886  0.30890  1.0000
  S   S65       1.0  0.44277  0.10655  0.15827  1.0000
  H   H532      1.0  0.45383  0.32609  0.03295  1.0000
  H   H533      1.0  0.39209  0.34293  0.38065  1.0000
  C   C310      1.0  0.43404  0.23090  0.31350  1.0000
  H   H534      1.0  0.41123  0.14956  0.46556  1.0000
  C   C311      1.0  0.34188  0.28620  0.99164  1.0000
  H   H535      1.0  0.42048  0.11427  0.00437  1.0000
  H   H536      1.0  0.43689  0.16483  0.17154  1.0000
  H   H537      1.0  0.38853  0.01721  0.13079  1.0000
  C   C312      1.0  0.34702  0.37083  0.00076  1.0000
  H   H538      1.0  0.35990  0.10009  0.38302  1.0000
  H   H539      1.0  0.47118  0.21416  0.13744  1.0000
  H   H540      1.0  0.37212  0.30644  0.37351  1.0000
  H   H541      1.0  0.35787  0.06712  0.36354  1.0000
  H   H542      1.0  0.36812  0.13120  0.39600  1.0000
  H   H543      1.0  0.36334  0.35298  0.37823  1.0000
  H   H544      1.0  0.33154  0.28292  0.42648  1.0000
  C   C313      1.0  0.47277  0.05806  0.31258  1.0000
  H   H545      1.0  0.34446  0.37840  0.44442  1.0000
  H   H546      1.0  0.38352  0.31393  0.47127  1.0000
  H   H547      1.0  0.46828  0.27860  0.04519  1.0000
  C   C314      1.0  0.39256  0.13289  0.01977  1.0000
  H   H548      1.0  0.34871  0.15317  0.43897  1.0000
  C   C315      1.0  0.33644  0.30079  0.00880  1.0000
  H   H549      1.0  0.40806  0.01112  0.11423  1.0000
  C   C316      1.0  0.32445  0.28354  0.45197  1.0000
  H   H550      1.0  0.39367  0.09857  0.43277  1.0000
  C   C317      1.0  0.35369  0.28818  0.10493  1.0000
  H   H551      1.0  0.35801  0.16012  0.39347  1.0000
  N   N16       1.0  0.39333  0.30895  0.41757  1.0000
  C   C318      1.0  0.38778  0.28705  0.42107  1.0000
  C   C319      1.0  0.41176  0.31772  0.39571  1.0000
  C   C320      1.0  0.41061  0.31074  0.35516  1.0000
  C   C321      1.0  0.44500  0.32325  0.00694  1.0000
  C   C322      1.0  0.37360  0.27341  0.39136  1.0000
  C   C323      1.0  0.35554  0.04587  0.07942  1.0000
  C   C324      1.0  0.42921  0.32280  0.33501  1.0000
  H   H552      1.0  0.40117  0.28350  0.42249  1.0000
  H   H553      1.0  0.41705  0.33401  0.39671  1.0000
  H   H554      1.0  0.42392  0.31418  0.40830  1.0000
  H   H555      1.0  0.39799  0.31210  0.34004  1.0000
  H   H556      1.0  0.40951  0.29525  0.35392  1.0000
  C   C325      1.0  0.23025  0.38495  0.34097  1.0000
  C   C326      1.0  0.44821  0.17969  0.17684  1.0000
  H   H557      1.0  0.37814  0.27808  0.36312  1.0000
  H   H558      1.0  0.39202  0.02298  0.99241  1.0000
  H   H559      1.0  0.30770  0.29964  0.42876  1.0000
  H   H560      1.0  0.42864  0.31670  0.30671  1.0000
  H   H561      1.0  0.43055  0.33832  0.33320  1.0000
  H   H562      1.0  0.44245  0.32223  0.34937  1.0000
  C   C327      1.0  0.45130  0.23281  0.46517  1.0000
  N   N17       1.0  0.31937  0.31351  0.14511  1.0000
  C   C328      1.0  0.29764  0.30731  0.13687  1.0000
  C   C329      1.0  0.33046  0.33363  0.12998  1.0000
  C   C330      1.0  0.32623  0.29899  0.12541  1.0000
  C   C331      1.0  0.32375  0.31304  0.18566  1.0000
  C   C332      1.0  0.31597  0.32535  0.21147  1.0000
  C   C333      1.0  0.28435  0.28697  0.15109  1.0000
  C   C334      1.0  0.34879  0.30415  0.12512  1.0000
  C   C335      1.0  0.32030  0.34877  0.13113  1.0000
  C   C336      1.0  0.33443  0.36914  0.12071  1.0000
  S   S66       1.0  0.47316  0.28254  0.23961  1.0000
  C   C337      1.0  0.26272  0.28277  0.14227  1.0000
  H   H563      1.0  0.44653  0.24326  0.48101  1.0000
  H   H564      1.0  0.29508  0.30723  0.10660  1.0000
  H   H565      1.0  0.29172  0.31802  0.14827  1.0000
  H   H566      1.0  0.34511  0.34040  0.14393  1.0000
  H   H567      1.0  0.33350  0.33238  0.10030  1.0000
  H   H568      1.0  0.32097  0.29703  0.09613  1.0000
  H   H569      1.0  0.31980  0.28425  0.13770  1.0000
  H   H570      1.0  0.31818  0.29765  0.19521  1.0000
  H   H571      1.0  0.33985  0.31849  0.19105  1.0000
  H   H572      1.0  0.30030  0.32256  0.20589  1.0000
  H   H573      1.0  0.32476  0.34119  0.20848  1.0000
  H   H574      1.0  0.28792  0.27502  0.13797  1.0000
  H   H575      1.0  0.28592  0.28633  0.18134  1.0000
  H   H576      1.0  0.45461  0.16307  0.03356  1.0000
  H   H577      1.0  0.35641  0.31811  0.11090  1.0000
  H   H578      1.0  0.30785  0.34427  0.11101  1.0000
  H   H579      1.0  0.31439  0.35004  0.15835  1.0000
  H   H580      1.0  0.36696  0.24665  0.42238  1.0000
  H   H581      1.0  0.34687  0.37471  0.14087  1.0000
  H   H582      1.0  0.34015  0.36871  0.09276  1.0000
  S   S67       1.0  0.46941  0.17754  0.27535  1.0000
  H   H583      1.0  0.35500  0.08991  0.04719  1.0000
  C   C338      1.0  0.43482  0.25241  0.17601  1.0000
  H   H584      1.0  0.25351  0.26825  0.15303  1.0000
  H   H585      1.0  0.25806  0.29410  0.15523  1.0000
  H   H586      1.0  0.26013  0.28245  0.11207  1.0000
  H   H587      1.0  0.34722  0.27397  0.11901  1.0000
  H   H588      1.0  0.38675  0.25119  0.39036  1.0000
  C   C339      1.0  0.38244  0.10499  0.42700  1.0000
  H   H589      1.0  0.39529  0.16985  0.00718  1.0000
  C   C340      1.0  0.44217  0.23525  0.18027  1.0000
  H   H590      1.0  0.46332  0.25420  0.35889  1.0000
  H   H591      1.0  0.44683  0.13107  0.35968  1.0000
  C   C341      1.0  0.44644  0.23245  0.11215  1.0000
  C   C342      1.0  0.42463  0.21866  0.10534  1.0000
  H   H592      1.0  0.40783  0.23929  0.20644  1.0000
  C   C343      1.0  0.38314  0.11106  0.03088  1.0000
  H   H593      1.0  0.33336  0.32356  0.25952  1.0000
  H   H594      1.0  0.42447  0.12904  0.33614  1.0000
  C   C344      1.0  0.41527  0.22584  0.07373  1.0000
  C   C345      1.0  0.39968  0.01369  0.00334  1.0000
  N   N18       1.0  0.41436  0.14074  0.01272  1.0000
  H   H595      1.0  0.36529  0.17785  0.43101  1.0000
  H   H596      1.0  0.42908  0.22178  0.18365  1.0000
  H   H597      1.0  0.47349  0.24589  0.32190  1.0000
  H   H598      1.0  0.44726  0.26668  0.17679  1.0000
  H   H599      1.0  0.46275  0.17940  0.16940  1.0000
  H   H600      1.0  0.42888  0.25441  0.23422  1.0000
  H   H601      1.0  0.44774  0.24752  0.10453  1.0000
  H   H602      1.0  0.43588  0.20259  0.00133  1.0000
  H   H603      1.0  0.41528  0.21738  0.12943  1.0000
  H   H604      1.0  0.42373  0.20375  0.09734  1.0000
  H   H605      1.0  0.37644  0.06798  0.39714  1.0000
  H   H606      1.0  0.38333  0.16035  0.46169  1.0000
  H   H607      1.0  0.38314  0.10018  0.36718  1.0000
  H   H608      1.0  0.38969  0.99811  0.00038  1.0000
  C   C346      1.0  0.22595  0.36022  0.27699  1.0000
  H   H609      1.0  0.44138  0.18956  0.12549  1.0000
  H   H610      1.0  0.31537  0.00640  0.37531  1.0000
  H   H611      1.0  0.45431  0.16534  0.10109  1.0000
  H   H612      1.0  0.36987  0.29234  0.10442  1.0000
  H   H613      1.0  0.40062  0.21464  0.06626  1.0000
  H   H614      1.0  0.41327  0.23958  0.08200  1.0000
  H   H615      1.0  0.42464  0.22871  0.04916  1.0000
  C   C347      1.0  0.31671  0.29924  0.00915  1.0000
  H   H616      1.0  0.36546  0.99265  0.04494  1.0000
  C   C348      1.0  0.23240  0.39518  0.37856  1.0000
  C   C349      1.0  0.36120  0.33722  0.37964  1.0000
  H   H617      1.0  0.36314  0.30628  0.41831  1.0000
  H   H618      1.0  0.35063  0.01575  0.08771  1.0000
  H   H619      1.0  0.36124  0.11400  0.06791  1.0000
  H   H620      1.0  0.44841  0.18315  0.20667  1.0000
  H   H621      1.0  0.42156  0.15370  0.06754  1.0000
  H   H622      1.0  0.41006  0.27796  0.05886  1.0000
  N   N19       1.0  0.39001  0.01611  0.07114  1.0000
  C   C350      1.0  0.39959  0.02070  0.10896  1.0000
  C   C351      1.0  0.41888  0.12628  0.98788  1.0000
  C   C352      1.0  0.40628  0.01967  0.04389  1.0000
  C   C353      1.0  0.37905  0.02925  0.06161  1.0000
  C   C354      1.0  0.36336  0.02988  0.08903  1.0000
  C   C355      1.0  0.41356  0.04229  0.11645  1.0000
  H   H623      1.0  0.38492  0.98546  0.05935  1.0000
  H   H624      1.0  0.42021  0.29434  0.12027  1.0000
  H   H625      1.0  0.36207  0.12610  0.44285  1.0000
  C   C356      1.0  0.42167  0.04531  0.15592  1.0000
  H   H626      1.0  0.42665  0.25125  0.14968  1.0000
  H   H627      1.0  0.24113  0.38452  0.99801  1.0000
  C   C357      1.0  0.41149  0.17511  0.01127  1.0000
  H   H628      1.0  0.41234  0.15194  0.40238  1.0000
  H   H629      1.0  0.43950  0.15190  0.35907  1.0000
  H   H630      1.0  0.41195  0.20435  0.00096  1.0000
  H   H631      1.0  0.41579  0.03551  0.04335  1.0000
  H   H632      1.0  0.38953  0.04451  0.05751  1.0000
  H   H633      1.0  0.37118  0.02463  0.03468  1.0000
  H   H634      1.0  0.36929  0.03296  0.11756  1.0000
  H   H635      1.0  0.47256  0.15601  0.08630  1.0000
  H   H636      1.0  0.42634  0.04665  0.09814  1.0000
  H   H637      1.0  0.40564  0.05238  0.11256  1.0000
  C   C358      1.0  0.37632  0.31322  0.40130  1.0000
  H   H638      1.0  0.36769  0.06046  0.07890  1.0000
  H   H639      1.0  0.34776  0.04258  0.05230  1.0000
  C   C359      1.0  0.41944  0.16016  0.99389  1.0000
  H   H640      1.0  0.45923  0.21124  0.27178  1.0000
  H   H641      1.0  0.41977  0.12918  0.06433  1.0000
  H   H642      1.0  0.43010  0.03577  0.16132  1.0000
  H   H643      1.0  0.43171  0.06083  0.16035  1.0000
  H   H644      1.0  0.40960  0.04210  0.17579  1.0000
  H   H645      1.0  0.41678  0.26567  0.20385  1.0000
  H   H646      1.0  0.44999  0.23728  0.20742  1.0000
  H   H647      1.0  0.35858  0.27342  0.39493  1.0000
  N   N20       1.0  0.39111  0.12714  0.42921  1.0000
  C   C360      1.0  0.36538  0.98483  0.10232  1.0000
  C   C361      1.0  0.31077  0.29290  0.45309  1.0000
  H   H648      1.0  0.47145  0.26440  0.14580  1.0000
  H   H649      1.0  0.45138  0.13740  0.03572  1.0000
  H   H650      1.0  0.38432  0.13445  0.99487  1.0000
  C   C362      1.0  0.36186  0.10589  0.04226  1.0000
  H   H651      1.0  0.44984  0.13950  0.10425  1.0000
  C   C363      1.0  0.30244  0.28283  0.99204  1.0000
  C   C364      1.0  0.37925  0.33514  0.39775  1.0000
  H   H652      1.0  0.46915  0.04284  0.30197  1.0000
  S   S68       1.0  0.34493  0.26170  0.47900  1.0000
  C   C365      1.0  0.44758  0.14931  0.04861  1.0000
  C   C366      1.0  0.43402  0.13566  0.36059  1.0000
  C   C367      1.0  0.42022  0.19501  0.99293  1.0000
  C   C368      1.0  0.44604  0.22489  0.34223  1.0000
  H   H653      1.0  0.39768  0.13318  0.37187  1.0000
  C   C369      1.0  0.40549  0.13574  0.39903  1.0000
  C   C370      1.0  0.42501  0.14317  0.04938  1.0000
  H   H654      1.0  0.46460  0.05745  0.33828  1.0000
  H   H655      1.0  0.35295  0.06804  0.41171  1.0000
  H   H656      1.0  0.34787  0.32964  0.39582  1.0000
  H   H657      1.0  0.34799  0.28631  0.07612  1.0000
  Fe  Fe33      1.0  0.46543  0.10915  0.28919  1.0000
  H   H658      1.0  0.36163  0.24279  0.37386  1.0000
  N   N21       1.0  0.45521  0.23306  0.15016  1.0000
  C   C371      1.0  0.36172  0.16218  0.42332  1.0000
  C   C372      1.0  0.46371  0.29878  0.40590  1.0000
  H   H659      1.0  0.41499  0.17740  0.04109  1.0000
  C   C373      1.0  0.42280  0.12862  0.39601  1.0000
  H   H660      1.0  0.39165  0.16574  0.41551  1.0000
  H   H661      1.0  0.34492  0.04648  0.10036  1.0000
  H   H662      1.0  0.38918  0.14174  0.04188  1.0000
  C   C374      1.0  0.37931  0.15651  0.43228  1.0000
  H   H663      1.0  0.35321  0.10956  0.02031  1.0000
  C   C375      1.0  0.37248  0.09574  0.38974  1.0000
  H   H664      1.0  0.38133  0.34257  0.42511  1.0000
  H   H665      1.0  0.45509  0.22813  0.09134  1.0000
  H   H666      1.0  0.38038  0.28201  0.44751  1.0000
  C   C376      1.0  0.36448  0.07335  0.39074  1.0000
  C   C377      1.0  0.30018  0.29239  0.48493  1.0000
  C   C378      1.0  0.37434  0.13426  0.42446  1.0000
  H   H667      1.0  0.42086  0.11816  0.46781  1.0000
  H   H668      1.0  0.44181  0.33651  0.00047  1.0000
  H   H669      1.0  0.36227  0.37243  0.99419  1.0000
  Fe  Fe34      1.0  0.46611  0.11667  0.20494  1.0000
  S   S69       1.0  0.31093  0.31812  0.03177  1.0000
  H   H670      1.0  0.43097  0.31077  0.01130  1.0000
  S   S70       1.0  0.26202  0.32982  0.99648  1.0000
  H   H671      1.0  0.24187  0.36374  0.28325  1.0000
  H   H672      1.0  0.45913  0.21501  0.40699  1.0000
  H   H673      1.0  0.24728  0.36886  0.21396  1.0000
  H   H674      1.0  0.43795  0.22047  0.45512  1.0000
  C   C379      1.0  0.46026  0.21525  0.15727  1.0000
  C   C380      1.0  0.40053  0.13416  0.46671  1.0000
  H   H675      1.0  0.43764  0.22189  0.36801  1.0000
  H   H676      1.0  0.46761  0.21695  0.18479  1.0000
  C   C381      1.0  0.31998  0.99397  0.38158  1.0000
  H   H677      1.0  0.46945  0.30652  0.46367  1.0000
  C   C382      1.0  0.47134  0.22951  0.41097  1.0000
  C   C383      1.0  0.23130  0.36152  0.20812  1.0000
  H   H678      1.0  0.23229  0.33291  0.31280  1.0000
  S   S71       1.0  0.43229  0.26586  0.00273  1.0000
  C   C384      1.0  0.47393  0.21533  0.26163  1.0000
  H   H679      1.0  0.47268  0.20711  0.35250  1.0000
  C   C385      1.0  0.39746  0.31818  0.45574  1.0000
  H   H680      1.0  0.46804  0.09789  0.10395  1.0000
  C   C386      1.0  0.41235  0.31296  0.48002  1.0000
  C   C387      1.0  0.46368  0.24331  0.43294  1.0000
  C   C388      1.0  0.23342  0.40010  0.06197  1.0000
  H   H681      1.0  0.34751  0.38417  0.01619  1.0000
  H   H682      1.0  0.23269  0.41241  0.07920  1.0000
  H   H683      1.0  0.40337  0.33445  0.45438  1.0000
  H   H684      1.0  0.37141  0.09933  0.44894  1.0000
  S   S72       1.0  0.42641  0.07261  0.99312  1.0000
  S   S73       1.0  0.26763  0.34733  0.48274  1.0000
  C   C389      1.0  0.47411  0.25097  0.15325  1.0000
  H   H685      1.0  0.43552  0.16774  0.99153  1.0000
  S   S74       1.0  0.31144  0.39701  0.48260  1.0000
  H   H686      1.0  0.22666  0.33627  0.24083  1.0000
  H   H687      1.0  0.40707  0.29698  0.48479  1.0000
  H   H688      1.0  0.45995  0.22715  0.48394  1.0000
  S   S75       1.0  0.30916  0.43541  0.74408  1.0000
  S   S76       1.0  0.35601  0.44301  0.73923  1.0000
  Fe  Fe35      1.0  0.33040  0.43649  0.69910  1.0000
  S   S77       1.0  0.31873  0.41044  0.65771  1.0000
  Fe  Fe36      1.0  0.33496  0.44388  0.78359  1.0000
  S   S78       1.0  0.33629  0.43037  0.84001  1.0000
  H   H689      1.0  0.31127  0.46207  0.62020  1.0000
  Fe  Fe37      1.0  0.38075  0.05499  0.87799  1.0000
  S   S79       1.0  0.34970  0.04390  0.89819  1.0000
  S   S80       1.0  0.39198  0.06162  0.81897  1.0000
  Fe  Fe38      1.0  0.36103  0.07058  0.93649  1.0000
  S   S81       1.0  0.34577  0.09226  0.94558  1.0000
  Fe  Fe39      1.0  0.35984  0.02803  0.94263  1.0000
  H   H690      1.0  0.39128  0.10277  0.85123  1.0000
  S   S82       1.0  0.39151  0.08182  0.91543  1.0000
  S   S83       1.0  0.39031  0.03757  0.91929  1.0000
  C   C390      1.0  0.24078  0.41980  0.88236  1.0000
  H   H691      1.0  0.37435  0.01071  0.62060  1.0000
  Fe  Fe40      1.0  0.39222  0.25117  0.88135  1.0000
  S   S84       1.0  0.36309  0.22734  0.89133  1.0000
  S   S85       1.0  0.40652  0.26090  0.82516  1.0000
  Fe  Fe41      1.0  0.36216  0.24569  0.94185  1.0000
  C   C391      1.0  0.23782  0.46995  0.72505  1.0000
  Fe  Fe42      1.0  0.37916  0.21344  0.92803  1.0000
  S   S86       1.0  0.38348  0.18438  0.91674  1.0000
  S   S87       1.0  0.39067  0.27041  0.92971  1.0000
  S   S88       1.0  0.40830  0.23685  0.91629  1.0000
  S   S89       1.0  0.43660  0.28051  0.50363  1.0000
  Fe  Fe43      1.0  0.35715  0.07552  0.53050  1.0000
  S   S90       1.0  0.38369  0.08287  0.56750  1.0000
  H   H692      1.0  0.24607  0.40248  0.94441  1.0000
  Fe  Fe44      1.0  0.35433  0.03227  0.51676  1.0000
  S   S91       1.0  0.38141  0.03800  0.55245  1.0000
  C   C392      1.0  0.29784  0.32796  0.58251  1.0000
  Fe  Fe45      1.0  0.36811  0.05319  0.59242  1.0000
  S   S92       1.0  0.35982  0.04339  0.65190  1.0000
  Fe  Fe46      1.0  0.39420  0.06696  0.52378  1.0000
  S   S93       1.0  0.34058  0.04656  0.55731  1.0000
  Fe  Fe47      1.0  0.40710  0.26205  0.52900  1.0000
  C   C393      1.0  0.46453  0.25850  0.90065  1.0000
  Fe  Fe48      1.0  0.38110  0.25384  0.59894  1.0000
  S   S94       1.0  0.35604  0.23091  0.56753  1.0000
  S   S95       1.0  0.37319  0.25691  0.65938  1.0000
  Fe  Fe49      1.0  0.37891  0.21992  0.54613  1.0000
  H   H693      1.0  0.42548  0.31876  0.53477  1.0000
  Fe  Fe50      1.0  0.36326  0.25203  0.52063  1.0000
  H   H694      1.0  0.38407  0.19219  0.80157  1.0000
  S   S96       1.0  0.40374  0.24272  0.57804  1.0000
  S   S97       1.0  0.38676  0.27569  0.55306  1.0000
  H   H695      1.0  0.39533  0.19790  0.73739  1.0000
  H   H696      1.0  0.35974  0.36823  0.58152  1.0000
  H   H697      1.0  0.39202  0.17667  0.68794  1.0000
  H   H698      1.0  0.36772  0.08652  0.73490  1.0000
  H   H699      1.0  0.39861  0.00263  0.68803  1.0000
  H   H700      1.0  0.41889  0.10395  0.81107  1.0000
  C   C394      1.0  0.35472  0.12414  0.52806  1.0000
  C   C395      1.0  0.37077  0.13172  0.55254  1.0000
  C   C396      1.0  0.41823  0.11747  0.82413  1.0000
  C   C397      1.0  0.37072  0.16496  0.54620  1.0000
  Fe  Fe51      1.0  0.31797  0.46770  0.73539  1.0000
  H   H701      1.0  0.32372  0.05437  0.83422  1.0000
  C   C398      1.0  0.34292  0.08517  0.70224  1.0000
  Fe  Fe52      1.0  0.39801  0.06343  0.95854  1.0000
  H   H702      1.0  0.30836  0.00512  0.58544  1.0000
  H   H703      1.0  0.30256  0.98855  0.51366  1.0000
  C   C399      1.0  0.42236  0.13229  0.52027  1.0000
  H   H704      1.0  0.42507  0.13004  0.80583  1.0000
  H   H705      1.0  0.26440  0.41720  0.55081  1.0000
  C   C400      1.0  0.39679  0.25874  0.77916  1.0000
  C   C401      1.0  0.40978  0.26297  0.74953  1.0000
  C   C402      1.0  0.40289  0.26207  0.71275  1.0000
  C   C403      1.0  0.38286  0.25722  0.70501  1.0000
  C   C404      1.0  0.36987  0.25285  0.73464  1.0000
  C   C405      1.0  0.37672  0.25342  0.77134  1.0000
  H   H706      1.0  0.42534  0.26714  0.75507  1.0000
  H   H707      1.0  0.41314  0.26561  0.69049  1.0000
  H   H708      1.0  0.35436  0.24913  0.72918  1.0000
  H   H709      1.0  0.36649  0.25015  0.79364  1.0000
  H   H710      1.0  0.23828  0.42721  0.75860  1.0000
  H   H711      1.0  0.26807  0.40166  0.58512  1.0000
  C   C406      1.0  0.41733  0.01643  0.97920  1.0000
  C   C407      1.0  0.27149  0.47099  0.73161  1.0000
  H   H712      1.0  0.41808  0.20148  0.67276  1.0000
  C   C408      1.0  0.38260  0.05623  0.77279  1.0000
  C   C409      1.0  0.39499  0.06525  0.74372  1.0000
  C   C410      1.0  0.38830  0.06176  0.70668  1.0000
  C   C411      1.0  0.36910  0.04900  0.69810  1.0000
  C   C412      1.0  0.35673  0.03995  0.72718  1.0000
  C   C413      1.0  0.36335  0.04361  0.76424  1.0000
  H   H713      1.0  0.40993  0.07502  0.74988  1.0000
  H   H714      1.0  0.39806  0.06877  0.68479  1.0000
  H   H715      1.0  0.34185  0.03004  0.72100  1.0000
  H   H716      1.0  0.35361  0.03655  0.78613  1.0000
  C   C414      1.0  0.35641  0.11788  0.93762  1.0000
  C   C415      1.0  0.37446  0.12632  0.92048  1.0000
  C   C416      1.0  0.38236  0.14665  0.91433  1.0000
  C   C417      1.0  0.37256  0.15891  0.92578  1.0000
  C   C418      1.0  0.35462  0.15055  0.94334  1.0000
  C   C419      1.0  0.34655  0.13012  0.94898  1.0000
  H   H717      1.0  0.38224  0.11719  0.91161  1.0000
  H   H718      1.0  0.39621  0.15295  0.90059  1.0000
  H   H719      1.0  0.38570  0.21735  0.80039  1.0000
  H   H720      1.0  0.33010  0.32410  0.60077  1.0000
  H   H721      1.0  0.36076  0.21604  0.68417  1.0000
  H   H722      1.0  0.29665  0.31258  0.57760  1.0000
  H   H723      1.0  0.30612  0.33418  0.52704  1.0000
  C   C420      1.0  0.31831  0.41661  0.87194  1.0000
  C   C421      1.0  0.32463  0.41298  0.90688  1.0000
  C   C422      1.0  0.31112  0.40174  0.93281  1.0000
  C   C423      1.0  0.29101  0.39396  0.92425  1.0000
  C   C424      1.0  0.28464  0.39770  0.88946  1.0000
  C   C425      1.0  0.29816  0.40889  0.86345  1.0000
  H   H724      1.0  0.34011  0.41907  0.91407  1.0000
  H   H725      1.0  0.31625  0.39951  0.95972  1.0000
  H   H726      1.0  0.26914  0.39189  0.88250  1.0000
  H   H727      1.0  0.29300  0.41154  0.83682  1.0000
  C   C426      1.0  0.31585  0.40813  0.60885  1.0000
  C   C427      1.0  0.32760  0.42237  0.58517  1.0000
  C   C428      1.0  0.32590  0.41888  0.54668  1.0000
  C   C429      1.0  0.31221  0.40133  0.53124  1.0000
  C   C430      1.0  0.29991  0.38752  0.55493  1.0000
  C   C431      1.0  0.30199  0.39072  0.59337  1.0000
  H   H728      1.0  0.33844  0.43578  0.59653  1.0000
  H   H729      1.0  0.33546  0.42977  0.52876  1.0000
  H   H730      1.0  0.28902  0.37417  0.54366  1.0000
  H   H731      1.0  0.29279  0.37960  0.61131  1.0000
  C   C432      1.0  0.26412  0.45194  0.74494  1.0000
  H   H732      1.0  0.27410  0.44493  0.75306  1.0000
  H   H733      1.0  0.44996  0.11296  0.97196  1.0000
  H   H734      1.0  0.36559  0.38201  0.64582  1.0000
  C   C433      1.0  0.34353  0.36390  0.58195  1.0000
  H   H735      1.0  0.43196  0.10674  0.93472  1.0000
  H   H736      1.0  0.26945  0.40807  0.72249  1.0000
  C   C434      1.0  0.35833  0.32957  0.57769  1.0000
  N   N22       1.0  0.37866  0.19849  0.68802  1.0000
  H   H737      1.0  0.30922  0.35545  0.55349  1.0000
  H   H738      1.0  0.26014  0.31868  0.91420  1.0000
  H   H739      1.0  0.32196  0.36288  0.62344  1.0000
  H   H740      1.0  0.41264  0.13580  0.53992  1.0000
  H   H741      1.0  0.23199  0.39662  0.60597  1.0000
  C   C435      1.0  0.47200  0.32041  0.89677  1.0000
  H   H742      1.0  0.29571  0.28226  0.54055  1.0000
  H   H743      1.0  0.33258  0.12377  0.96230  1.0000
  C   C436      1.0  0.36143  0.16080  0.69552  1.0000
  H   H744      1.0  0.26379  0.39386  0.64192  1.0000
  S   S98       1.0  0.34256  0.47655  0.77801  1.0000
  C   C437      1.0  0.24244  0.41038  0.59418  1.0000
  H   H745      1.0  0.45330  0.24858  0.91887  1.0000
  S   S99       1.0  0.38195  0.19042  0.55793  1.0000
  H   H746      1.0  0.23883  0.37378  0.56176  1.0000
  H   H747      1.0  0.26375  0.34419  0.90754  1.0000
  H   H748      1.0  0.34152  0.38175  0.94935  1.0000
  C   C438      1.0  0.35026  0.38142  0.64402  1.0000
  H   H749      1.0  0.37721  0.12201  0.56427  1.0000
  H   H750      1.0  0.35862  0.35414  0.52280  1.0000
  H   H751      1.0  0.24346  0.44795  0.65287  1.0000
  H   H752      1.0  0.41840  0.32832  0.81773  1.0000
  C   C439      1.0  0.30405  0.28308  0.51598  1.0000
  H   H753      1.0  0.32802  0.08559  0.70496  1.0000
  H   H754      1.0  0.23813  0.40514  0.66699  1.0000
  H   H755      1.0  0.39162  0.22025  0.73139  1.0000
  C   C440      1.0  0.35977  0.14138  0.67713  1.0000
  H   H756      1.0  0.35658  0.14145  0.64717  1.0000
  H   H757      1.0  0.37360  0.13868  0.68112  1.0000
  H   H758      1.0  0.34752  0.12919  0.68927  1.0000
  H   H759      1.0  0.34423  0.37976  0.51183  1.0000
  C   C441      1.0  0.37816  0.17820  0.67880  1.0000
  C   C442      1.0  0.39425  0.21278  0.66477  1.0000
  H   H760      1.0  0.33395  0.13136  0.49469  1.0000
  H   H761      1.0  0.46930  0.28407  0.86810  1.0000
  H   H762      1.0  0.32649  0.19298  0.60440  1.0000
  S   S100      1.0  0.34500  0.09893  0.51393  1.0000
  H   H763      1.0  0.23344  0.41530  0.57461  1.0000
  H   H764      1.0  0.37762  0.17583  0.64838  1.0000
  H   H765      1.0  0.39324  0.22754  0.66625  1.0000
  H   H766      1.0  0.25266  0.38479  0.70411  1.0000
  C   C443      1.0  0.33715  0.36312  0.62235  1.0000
  H   H767      1.0  0.32741  0.06847  0.87693  1.0000
  H   H768      1.0  0.35819  0.00579  0.68177  1.0000
  H   H769      1.0  0.44546  0.23174  0.65664  1.0000
  H   H770      1.0  0.37494  0.31219  0.59626  1.0000
  H   H771      1.0  0.42868  0.24413  0.64924  1.0000
  N   N23       1.0  0.45230  0.30575  0.90775  1.0000
  C   C444      1.0  0.45300  0.28616  0.91780  1.0000
  C   C445      1.0  0.44413  0.31352  0.93961  1.0000
  C   C446      1.0  0.43794  0.30214  0.87571  1.0000
  H   H772      1.0  0.34470  0.38113  0.67231  1.0000
  C   C447      1.0  0.24579  0.38687  0.54475  1.0000
  C   C448      1.0  0.45778  0.27442  0.88602  1.0000
  C   C449      1.0  0.43331  0.32003  0.86275  1.0000
  C   C450      1.0  0.25825  0.47995  0.72163  1.0000
  H   H773      1.0  0.29664  0.25545  0.96239  1.0000
  C   C451      1.0  0.30193  0.99181  0.60221  1.0000
  H   H774      1.0  0.27355  0.46657  0.64625  1.0000
  C   C452      1.0  0.42153  0.31534  0.82648  1.0000
  H   H775      1.0  0.43854  0.27655  0.92838  1.0000
  H   H776      1.0  0.34070  0.37656  0.57038  1.0000
  H   H777      1.0  0.44241  0.32745  0.93250  1.0000
  H   H778      1.0  0.42914  0.30291  0.94577  1.0000
  H   H779      1.0  0.42369  0.29036  0.88225  1.0000
  H   H780      1.0  0.44337  0.29659  0.85122  1.0000
  H   H781      1.0  0.23801  0.44572  0.60477  1.0000
  H   H782      1.0  0.46671  0.24965  0.87733  1.0000
  H   H783      1.0  0.38925  0.13453  0.48649  1.0000
  H   H784      1.0  0.47241  0.33561  0.90109  1.0000
  H   H785      1.0  0.44438  0.26702  0.86865  1.0000
  H   H786      1.0  0.30741  0.98457  0.95684  1.0000
  H   H787      1.0  0.44697  0.33295  0.85867  1.0000
  H   H788      1.0  0.42419  0.32396  0.88312  1.0000
  H   H789      1.0  0.44962  0.14622  0.97652  1.0000
  C   C453      1.0  0.38818  0.01023  0.69172  1.0000
  H   H790      1.0  0.30044  0.99633  0.63093  1.0000
  H   H791      1.0  0.43445  0.14603  0.51270  1.0000
  H   H792      1.0  0.36270  0.98359  0.68803  1.0000
  S   S101      1.0  0.36812  0.06058  0.48624  1.0000
  C   C454      1.0  0.30169  0.47049  0.62539  1.0000
  S   S102      1.0  0.38390  0.23876  0.49585  1.0000
  C   C455      1.0  0.33464  0.36836  0.96557  1.0000
  S   S103      1.0  0.35047  0.99679  0.96637  1.0000
  C   C456      1.0  0.31836  0.27446  0.51536  1.0000
  H   H793      1.0  0.42986  0.31141  0.80451  1.0000
  H   H794      1.0  0.40733  0.30290  0.82977  1.0000
  S   S104      1.0  0.42487  0.08168  0.50016  1.0000
  C   C457      1.0  0.26701  0.39689  0.70016  1.0000
  C   C458      1.0  0.27115  0.44019  0.61300  1.0000
  H   H795      1.0  0.22885  0.41381  0.95305  1.0000
  H   H796      1.0  0.34754  0.19173  0.69673  1.0000
  C   C459      1.0  0.26746  0.40598  0.66252  1.0000
  Fe  Fe53      1.0  0.40439  0.25376  0.96555  1.0000
  C   C460      1.0  0.37872  0.15197  0.56141  1.0000
  H   H797      1.0  0.23326  0.36834  0.92708  1.0000
  S   S105      1.0  0.33771  0.46840  0.68835  1.0000
  H   H798      1.0  0.26949  0.44690  0.58652  1.0000
  H   H799      1.0  0.28152  0.43269  0.60759  1.0000
  H   H800      1.0  0.35884  0.20791  0.75265  1.0000
  H   H801      1.0  0.28258  0.41656  0.65844  1.0000
  H   H802      1.0  0.34685  0.15975  0.95218  1.0000
  C   C461      1.0  0.33170  0.19691  0.63330  1.0000
  H   H803      1.0  0.34954  0.17953  0.63180  1.0000
  C   C462      1.0  0.32759  0.26968  0.97482  1.0000
  H   H804      1.0  0.46350  0.28762  0.94089  1.0000
  H   H805      1.0  0.33800  0.35020  0.63647  1.0000
  H   H806      1.0  0.25608  0.42046  0.88611  1.0000
  C   C463      1.0  0.35443  0.15735  0.52230  1.0000
  H   H807      1.0  0.32645  0.33716  0.96236  1.0000
  H   H808      1.0  0.36184  0.20461  0.61905  1.0000
  N   N24       1.0  0.32175  0.34590  0.90772  1.0000
  C   C464      1.0  0.32422  0.32880  0.88787  1.0000
  C   C465      1.0  0.32905  0.36351  0.88342  1.0000
  C   C466      1.0  0.33321  0.34958  0.94363  1.0000
  C   C467      1.0  0.30049  0.34172  0.91597  1.0000
  C   C468      1.0  0.28591  0.33502  0.88268  1.0000
  C   C469      1.0  0.31554  0.30873  0.90692  1.0000
  C   C470      1.0  0.34238  0.34933  0.52076  1.0000
  C   C471      1.0  0.35137  0.37162  0.87572  1.0000
  C   C472      1.0  0.35712  0.39012  0.85286  1.0000
  C   C473      1.0  0.26489  0.33088  0.89451  1.0000
  C   C474      1.0  0.31815  0.29246  0.88346  1.0000
  H   H809      1.0  0.35275  0.30802  0.62108  1.0000
  H   H810      1.0  0.34007  0.33164  0.88442  1.0000
  H   H811      1.0  0.31797  0.32709  0.85940  1.0000
  H   H812      1.0  0.32148  0.36002  0.85606  1.0000
  H   H813      1.0  0.32512  0.37567  0.89477  1.0000
  H   H814      1.0  0.34834  0.34996  0.93937  1.0000
  H   H815      1.0  0.27881  0.39086  0.70215  1.0000
  H   H816      1.0  0.29527  0.33058  0.93777  1.0000
  H   H817      1.0  0.29879  0.35507  0.92773  1.0000
  H   H818      1.0  0.28612  0.32138  0.86955  1.0000
  H   H819      1.0  0.28947  0.34660  0.86180  1.0000
  H   H820      1.0  0.32323  0.30928  0.93357  1.0000
  H   H821      1.0  0.29963  0.30444  0.91189  1.0000
  H   H822      1.0  0.35156  0.29798  0.57496  1.0000
  C   C475      1.0  0.31178  0.34150  0.55409  1.0000
  H   H823      1.0  0.36034  0.37552  0.90147  1.0000
  H   H824      1.0  0.35540  0.36065  0.86001  1.0000
  H   H825      1.0  0.34837  0.38729  0.82676  1.0000
  H   H826      1.0  0.35476  0.40211  0.86851  1.0000
  H   H827      1.0  0.37291  0.39512  0.84611  1.0000
  H   H828      1.0  0.43283  0.14151  0.93834  1.0000
  H   H829      1.0  0.25482  0.32661  0.87013  1.0000
  H   H830      1.0  0.39945  0.10767  0.49500  1.0000
  H   H831      1.0  0.33397  0.29551  0.87929  1.0000
  H   H832      1.0  0.31178  0.27825  0.89761  1.0000
  H   H833      1.0  0.31053  0.29099  0.85636  1.0000
  H   H834      1.0  0.36562  0.33160  0.55079  1.0000
  N   N25       1.0  0.33352  0.34568  0.55846  1.0000
  H   H835      1.0  0.32892  0.31498  0.55533  1.0000
  H   H836      1.0  0.42740  0.22348  0.61987  1.0000
  C   C476      1.0  0.44406  0.11889  0.94873  1.0000
  C   C477      1.0  0.27717  0.32823  0.57891  1.0000
  H   H837      1.0  0.32233  0.36126  0.49288  1.0000
  C   C478      1.0  0.24378  0.44193  0.74817  1.0000
  H   H838      1.0  0.34800  0.16709  0.51057  1.0000
  H   H839      1.0  0.28510  0.45131  0.66703  1.0000
  H   H840      1.0  0.32063  0.18691  0.65164  1.0000
  H   H841      1.0  0.23440  0.38939  0.52740  1.0000
  C   C479      1.0  0.34649  0.13707  0.51335  1.0000
  H   H842      1.0  0.35188  0.09723  0.68450  1.0000
  H   H843      1.0  0.38487  0.09585  0.78534  1.0000
  H   H844      1.0  0.36678  0.34194  0.59654  1.0000
  H   H845      1.0  0.22662  0.33216  0.91855  1.0000
  H   H846      1.0  0.36359  0.19847  0.81535  1.0000
  C   C480      1.0  0.38429  0.20401  0.72803  1.0000
  C   C481      1.0  0.23053  0.45087  0.73842  1.0000
  H   H847      1.0  0.32790  0.09736  0.84410  1.0000
  H   H848      1.0  0.35744  0.18301  0.75324  1.0000
  H   H849      1.0  0.27738  0.34322  0.58452  1.0000
  H   H850      1.0  0.26746  0.31811  0.59895  1.0000
  C   C482      1.0  0.37579  0.20181  0.79572  1.0000
  S   S106      1.0  0.27315  0.38030  0.95635  1.0000
  H   H851      1.0  0.31987  0.36756  0.97367  1.0000
  C   C483      1.0  0.28205  0.45716  0.64068  1.0000
  H   H852      1.0  0.27096  0.32329  0.55086  1.0000
  H   H853      1.0  0.45598  0.12520  0.92884  1.0000
  C   C484      1.0  0.35944  0.20062  0.67872  1.0000
  H   H854      1.0  0.22776  0.47698  0.71744  1.0000
  H   H855      1.0  0.38672  0.01252  0.72161  1.0000
  H   H856      1.0  0.39188  0.20824  0.63523  1.0000
  H   H857      1.0  0.33703  0.33542  0.50394  1.0000
  H   H858      1.0  0.37252  0.98386  0.50382  1.0000
  S   S107      1.0  0.37593  0.22962  0.97955  1.0000
  H   H859      1.0  0.25625  0.42736  0.68318  1.0000
  H   H860      1.0  0.42189  0.33950  0.51465  1.0000
  H   H861      1.0  0.42005  0.22187  0.70279  1.0000
  C   C485      1.0  0.23805  0.43710  0.62971  1.0000
  H   H862      1.0  0.42884  0.12265  0.53409  1.0000
  N   N26       1.0  0.25139  0.42580  0.62435  1.0000
  N   N27       1.0  0.36319  0.10827  0.79955  1.0000
  C   C486      1.0  0.35426  0.10561  0.76123  1.0000
  C   C487      1.0  0.36342  0.12715  0.81737  1.0000
  C   C488      1.0  0.38424  0.10988  0.79589  1.0000
  C   C489      1.0  0.35281  0.09100  0.82343  1.0000
  C   C490      1.0  0.33050  0.08572  0.82775  1.0000
  C   C491      1.0  0.35294  0.08669  0.73988  1.0000
  H   H863      1.0  0.30307  0.33217  0.61117  1.0000
  C   C492      1.0  0.34639  0.13404  0.80743  1.0000
  C   C493      1.0  0.34625  0.15044  0.83373  1.0000
  H   H864      1.0  0.30514  0.06297  0.85029  1.0000
  C   C494      1.0  0.25673  0.40486  0.56918  1.0000
  H   H865      1.0  0.36276  0.11837  0.74434  1.0000
  H   H866      1.0  0.33914  0.10554  0.76139  1.0000
  H   H867      1.0  0.36408  0.12623  0.84778  1.0000
  H   H868      1.0  0.37698  0.13974  0.81022  1.0000
  H   H869      1.0  0.39186  0.12114  0.77536  1.0000
  C   C495      1.0  0.43016  0.22961  0.64841  1.0000
  H   H870      1.0  0.35534  0.07771  0.81352  1.0000
  H   H871      1.0  0.35917  0.09369  0.85186  1.0000
  H   H872      1.0  0.34139  0.07105  0.68847  1.0000
  H   H873      1.0  0.32270  0.08366  0.80082  1.0000
  C   C496      1.0  0.41585  0.21558  0.67461  1.0000
  H   H874      1.0  0.34431  0.07341  0.75515  1.0000
  H   H875      1.0  0.39130  0.15763  0.58000  1.0000
  H   H876      1.0  0.39723  0.12858  0.84533  1.0000
  H   H877      1.0  0.34828  0.13985  0.77916  1.0000
  H   H878      1.0  0.33181  0.12209  0.80839  1.0000
  H   H879      1.0  0.36084  0.16260  0.83509  1.0000
  H   H880      1.0  0.33512  0.15636  0.82430  1.0000
  H   H881      1.0  0.34246  0.14469  0.86181  1.0000
  S   S108      1.0  0.33340  0.25051  0.95316  1.0000
  C   C497      1.0  0.35938  0.31079  0.59348  1.0000
  H   H882      1.0  0.23953  0.43304  0.89546  1.0000
  H   H883      1.0  0.42681  0.12032  0.85041  1.0000
  C   C498      1.0  0.32121  0.06669  0.84851  1.0000
  C   C499      1.0  0.35158  0.19493  0.63878  1.0000
  C   C500      1.0  0.39699  0.11487  0.83175  1.0000
  H   H884      1.0  0.40117  0.31934  0.53194  1.0000
  C   C501      1.0  0.25265  0.41634  0.66025  1.0000
  C   C502      1.0  0.43695  0.13477  0.96267  1.0000
  H   H885      1.0  0.33303  0.21227  0.63908  1.0000
  C   C503      1.0  0.36755  0.19846  0.75629  1.0000
  H   H886      1.0  0.32094  0.26713  0.53930  1.0000
  H   H887      1.0  0.34693  0.16205  0.69211  1.0000
  C   C504      1.0  0.33828  0.36516  0.49786  1.0000
  H   H888      1.0  0.41352  0.15755  0.96513  1.0000
  H   H889      1.0  0.28709  0.98304  0.59070  1.0000
  H   H890      1.0  0.35011  0.39491  0.63082  1.0000
  H   H891      1.0  0.36461  0.15990  0.72516  1.0000
  C   C505      1.0  0.33672  0.32800  0.57344  1.0000
  H   H892      1.0  0.29937  0.47712  0.59939  1.0000
  H   H893      1.0  0.42745  0.03206  0.97964  1.0000
  H   H894      1.0  0.39422  0.02486  0.67894  1.0000
  Fe  Fe54      1.0  0.36206  0.47538  0.73145  1.0000
  H   H895      1.0  0.41222  0.01203  0.95039  1.0000
  H   H896      1.0  0.23765  0.41995  0.85244  1.0000
  C   C506      1.0  0.41534  0.32334  0.51761  1.0000
  H   H897      1.0  0.38693  0.99061  0.56718  1.0000
  C   C507      1.0  0.23028  0.40047  0.94076  1.0000
  C   C508      1.0  0.35516  0.98249  0.57202  1.0000
  H   H898      1.0  0.22761  0.38851  0.88373  1.0000
  H   H899      1.0  0.40634  0.11889  0.96840  1.0000
  H   H900      1.0  0.25632  0.38386  0.52627  1.0000
  C   C509      1.0  0.45637  0.31831  0.97596  1.0000
  C   C510      1.0  0.30786  0.26815  0.97522  1.0000
  H   H901      1.0  0.34070  0.00628  0.60717  1.0000
  C   C511      1.0  0.22621  0.40114  0.89886  1.0000
  C   C512      1.0  0.36808  0.99805  0.67467  1.0000
  H   H902      1.0  0.38152  0.99039  0.62834  1.0000
  H   H903      1.0  0.35760  0.99717  0.56069  1.0000
  C   C513      1.0  0.36934  0.99573  0.63235  1.0000
  H   H904      1.0  0.47416  0.31910  0.86673  1.0000
  H   H905      1.0  0.41914  0.19325  0.96252  1.0000
  H   H906      1.0  0.47001  0.33137  0.97259  1.0000
  H   H907      1.0  0.22892  0.34876  0.98048  1.0000
  S   S109      1.0  0.34306  0.00209  0.48614  1.0000
  H   H908      1.0  0.33278  0.99260  0.64758  1.0000
  C   C514      1.0  0.33541  0.99108  0.61799  1.0000
  C   C515      1.0  0.41071  0.12170  0.48603  1.0000
  S   S110      1.0  0.36816  0.05389  0.98253  1.0000
  S   S111      1.0  0.28115  0.30196  0.48661  1.0000
  H   H909      1.0  0.46024  0.30589  0.98515  1.0000
  Fe  Fe55      1.0  0.27885  0.84933  0.01365  1.0000
  Fe  Fe56      1.0  0.27220  0.86013  0.09393  1.0000
  S   S112      1.0  0.25073  0.87351  0.07500  1.0000
  S   S113      1.0  0.27893  0.85413  0.15367  1.0000
  C   C516      1.0  0.33352  0.95977  0.99526  1.0000
  Fe  Fe57      1.0  0.27224  0.88735  0.02984  1.0000
  H   H910      1.0  0.24197  0.80082  0.45314  1.0000
  S   S114      1.0  0.25869  0.83289  0.05800  1.0000
  S   S115      1.0  0.29459  0.87551  0.05114  1.0000
  Fe  Fe58      1.0  0.26966  0.88882  0.45327  1.0000
  S   S116      1.0  0.29220  0.88415  0.41732  1.0000
  H   H911      1.0  0.24787  0.92355  0.41625  1.0000
  H   H912      1.0  0.30111  0.91612  0.22005  1.0000
  S   S117      1.0  0.26130  0.83849  0.40326  1.0000
  Fe  Fe59      1.0  0.28448  0.85520  0.44595  1.0000
  Fe  Fe60      1.0  0.26686  0.86800  0.37804  1.0000
  S   S118      1.0  0.26479  0.87781  0.31863  1.0000
  S   S119      1.0  0.24442  0.87373  0.41361  1.0000
  H   H913      1.0  0.34224  0.95777  0.11812  1.0000
  H   H914      1.0  0.33965  0.96422  0.45781  1.0000
  H   H915      1.0  0.32093  0.93091  0.01894  1.0000
  C   C517      1.0  0.26879  0.87083  0.27303  1.0000
  C   C518      1.0  0.27692  0.85669  0.26588  1.0000
  C   C519      1.0  0.27993  0.85189  0.22927  1.0000
  C   C520      1.0  0.27476  0.86100  0.19920  1.0000
  C   C521      1.0  0.26646  0.87501  0.20632  1.0000
  C   C522      1.0  0.26355  0.87989  0.24294  1.0000
  H   H916      1.0  0.28105  0.84955  0.28851  1.0000
  H   H917      1.0  0.28638  0.84104  0.22420  1.0000
  H   H918      1.0  0.26236  0.88215  0.18364  1.0000
  H   H919      1.0  0.25706  0.89070  0.24794  1.0000
  S   S120      1.0  0.30482  0.84131  0.47061  1.0000
  H   H920      1.0  0.30428  0.91266  0.28640  1.0000
  C   C523      1.0  0.30036  0.92502  0.27688  1.0000
  H   H921      1.0  0.33120  0.96430  0.35827  1.0000
  H   H922      1.0  0.30951  0.92379  0.38792  1.0000
  C   C524      1.0  0.33721  0.91008  0.36711  1.0000
  H   H923      1.0  0.32520  0.95008  0.29884  1.0000
  H   H924      1.0  0.24931  0.78696  0.15700  1.0000
  C   C525      1.0  0.31086  0.92433  0.35755  1.0000
  Fe  Fe61      1.0  0.24039  0.84513  0.44073  1.0000
  C   C526      1.0  0.30859  0.97627  0.35675  1.0000
  C   C527      1.0  0.33229  0.92653  0.34960  1.0000
  H   H925      1.0  0.29279  0.97236  0.36230  1.0000
  H   H926      1.0  0.27678  0.94375  0.33230  1.0000
  H   H927      1.0  0.32713  0.89553  0.35626  1.0000
  C   C528      1.0  0.32569  0.96241  0.46978  1.0000
  H   H928      1.0  0.34291  0.94065  0.36091  1.0000
  H   H929      1.0  0.23173  0.81052  0.10847  1.0000
  H   H930      1.0  0.26781  0.80546  0.44775  1.0000
  H   H931      1.0  0.30093  0.90956  0.34729  1.0000
  H   H932      1.0  0.33601  0.91060  0.39746  1.0000
  N   N28       1.0  0.30441  0.94011  0.34274  1.0000
  C   C529      1.0  0.28251  0.93370  0.34687  1.0000
  H   H933      1.0  0.31441  0.95629  0.39414  1.0000
  H   H934      1.0  0.27871  0.91990  0.40081  1.0000
  H   H935      1.0  0.33763  0.96718  0.07508  1.0000
  S   S121      1.0  0.27791  0.91849  0.00854  1.0000
  C   C530      1.0  0.31790  0.94241  0.00500  1.0000
  H   H936      1.0  0.24848  0.93713  0.37516  1.0000
  H   H937      1.0  0.25234  0.79064  0.10823  1.0000
  C   C531      1.0  0.33757  0.88419  0.98846  1.0000
  Fe  Fe62      1.0  0.23807  0.84672  0.03755  1.0000
  C   C532      1.0  0.27512  0.93149  0.38684  1.0000
  H   H938      1.0  0.24947  0.78285  0.43054  1.0000
  H   H939      1.0  0.31275  0.93131  0.45614  1.0000
  C   C533      1.0  0.24986  0.79718  0.13450  1.0000
  C   C534      1.0  0.30777  0.92950  0.23779  1.0000
  H   H940      1.0  0.30329  0.95437  0.29171  1.0000
  H   H941      1.0  0.30358  0.94134  0.22623  1.0000
  H   H942      1.0  0.32398  0.93395  0.23741  1.0000
  C   C535      1.0  0.25321  0.79404  0.45314  1.0000
  H   H943      1.0  0.35248  0.91177  0.36060  1.0000
  H   H944      1.0  0.33461  0.92581  0.31967  1.0000
  H   H945      1.0  0.28413  0.92004  0.27540  1.0000
  C   C536      1.0  0.25284  0.92556  0.38741  1.0000
  H   H946      1.0  0.27489  0.91914  0.33320  1.0000
  H   H947      1.0  0.26246  0.81120  0.13967  1.0000
  H   H948      1.0  0.28174  0.94536  0.40310  1.0000
  H   H949      1.0  0.34847  0.96126  0.00138  1.0000
  C   C537      1.0  0.31526  0.95891  0.36411  1.0000
  C   C538      1.0  0.30904  0.94343  0.30261  1.0000
  H   H950      1.0  0.33438  0.86933  0.99955  1.0000
  H   H951      1.0  0.22734  0.84497  0.15219  1.0000
  C   C539      1.0  0.31040  0.94370  0.46859  1.0000
  H   H952      1.0  0.23535  0.83460  0.22839  1.0000
  H   H953      1.0  0.35523  0.95526  0.07788  1.0000
  C   C540      1.0  0.34917  0.96505  0.09263  1.0000
  H   H954      1.0  0.33629  0.89392  0.01112  1.0000
  H   H955      1.0  0.24545  0.91150  0.37193  1.0000
  C   C541      1.0  0.23065  0.80075  0.13169  1.0000
  S   S122      1.0  0.27213  0.91779  0.48230  1.0000
  C   C542      1.0  0.29841  0.94009  0.99715  1.0000
  S   S123      1.0  0.25744  0.86166  0.99068  1.0000
  H   H956      1.0  0.24015  0.82299  0.17453  1.0000
  H   H957      1.0  0.22703  0.85330  0.27863  1.0000
  H   H958      1.0  0.31125  0.98095  0.32786  1.0000
  C   C543      1.0  0.22663  0.80994  0.16790  1.0000
  C   C544      1.0  0.29216  0.94105  0.48360  1.0000
  H   H959      1.0  0.37580  0.98215  0.12200  1.0000
  S   S124      1.0  0.26349  0.86080  0.48389  1.0000
  H   H960      1.0  0.34234  0.97245  0.55590  1.0000
  H   H961      1.0  0.27992  0.95401  0.97354  1.0000
  H   H962      1.0  0.33942  0.95761  0.85551  1.0000
  S   S125      1.0  0.39289  0.49806  0.71703  1.0000
  H   H963      1.0  0.32019  0.94625  0.58885  1.0000
  H   H964      1.0  0.25205  0.83057  0.63891  1.0000
  Fe  Fe63      1.0  0.34857  0.80356  0.73239  1.0000
  S   S126      1.0  0.34388  0.83235  0.73660  1.0000
  S   S127      1.0  0.37782  0.80117  0.75238  1.0000
  Fe  Fe64      1.0  0.30525  0.78049  0.71020  1.0000
  S   S128      1.0  0.29869  0.80783  0.71257  1.0000
  S   S129      1.0  0.27776  0.75500  0.68946  1.0000
  Fe  Fe65      1.0  0.32658  0.82269  0.68319  1.0000
  S   S130      1.0  0.32462  0.84559  0.64291  1.0000
  Fe  Fe66      1.0  0.31588  0.81553  0.76566  1.0000
  S   S131      1.0  0.29890  0.82790  0.80499  1.0000
  S   S132      1.0  0.33267  0.79484  0.67706  1.0000
  S   S133      1.0  0.32121  0.78718  0.76505  1.0000
  C   C545      1.0  0.47055  0.88559  0.78510  1.0000
  S   S134      1.0  0.45473  0.58682  0.74668  1.0000
  H   H965      1.0  0.31143  0.54149  0.59729  1.0000
  C   C546      1.0  0.29731  0.76937  0.59476  1.0000
  H   H966      1.0  0.40648  0.58721  0.64226  1.0000
  H   H967      1.0  0.24927  0.75326  0.84263  1.0000
  C   C547      1.0  0.46111  0.74709  0.80661  1.0000
  H   H968      1.0  0.42943  0.67674  0.73542  1.0000
  C   C548      1.0  0.29489  0.95551  0.97967  1.0000
  H   H969      1.0  0.23896  0.77283  0.49342  1.0000
  H   H970      1.0  0.25531  0.89514  0.93591  1.0000
  H   H971      1.0  0.31552  0.97534  0.57207  1.0000
  H   H972      1.0  0.27085  0.76979  0.54262  1.0000
  H   H973      1.0  0.37488  0.53597  0.62050  1.0000
  C   C549      1.0  0.44263  0.85990  0.75490  1.0000
  C   C550      1.0  0.44309  0.68463  0.75174  1.0000
  C   C551      1.0  0.29584  0.83216  0.93116  1.0000
  C   C552      1.0  0.28334  0.83761  0.90824  1.0000
  C   C553      1.0  0.28442  0.83606  0.86973  1.0000
  C   C554      1.0  0.29796  0.82903  0.85367  1.0000
  C   C555      1.0  0.31028  0.82336  0.87656  1.0000
  C   C556      1.0  0.30920  0.82492  0.91508  1.0000
  H   H974      1.0  0.27281  0.84295  0.92019  1.0000
  H   H975      1.0  0.27476  0.84040  0.85225  1.0000
  H   H976      1.0  0.32075  0.81793  0.86463  1.0000
  H   H977      1.0  0.31889  0.82061  0.93256  1.0000
  C   C557      1.0  0.31903  0.84377  0.59501  1.0000
  C   C558      1.0  0.31174  0.85723  0.57954  1.0000
  C   C559      1.0  0.30708  0.85646  0.54171  1.0000
  C   C560      1.0  0.31021  0.84256  0.51859  1.0000
  C   C561      1.0  0.31786  0.82934  0.53389  1.0000
  C   C562      1.0  0.32197  0.82971  0.57199  1.0000
  H   H978      1.0  0.30962  0.86830  0.59700  1.0000
  H   H979      1.0  0.30144  0.86689  0.53035  1.0000
  H   H980      1.0  0.32054  0.81867  0.51619  1.0000
  H   H981      1.0  0.32782  0.81945  0.58340  1.0000
  C   C563      1.0  0.40130  0.80422  0.73398  1.0000
  C   C564      1.0  0.40598  0.80887  0.69728  1.0000
  C   C565      1.0  0.42479  0.81121  0.68428  1.0000
  C   C566      1.0  0.43930  0.80903  0.70762  1.0000
  C   C567      1.0  0.43466  0.80434  0.74432  1.0000
  C   C568      1.0  0.41586  0.80205  0.75734  1.0000
  H   H982      1.0  0.39506  0.81063  0.67886  1.0000
  H   H983      1.0  0.42810  0.81479  0.65581  1.0000
  H   H984      1.0  0.44555  0.80255  0.76270  1.0000
  H   H985      1.0  0.41252  0.79862  0.78583  1.0000
  C   C569      1.0  0.26198  0.73461  0.71390  1.0000
  C   C570      1.0  0.24314  0.72370  0.69918  1.0000
  H   H986      1.0  0.42235  0.59177  0.68237  1.0000
  C   C571      1.0  0.26774  0.72896  0.74721  1.0000
  H   H987      1.0  0.35979  0.95832  0.51478  1.0000
  C   C572      1.0  0.23937  0.87448  0.55673  1.0000
  H   H988      1.0  0.28224  0.73709  0.75870  1.0000
  C   C573      1.0  0.41014  0.52264  0.72657  1.0000
  C   C574      1.0  0.42623  0.53082  0.70328  1.0000
  C   C575      1.0  0.43994  0.55028  0.70883  1.0000
  C   C576      1.0  0.43790  0.56200  0.73800  1.0000
  C   C577      1.0  0.42191  0.55376  0.76152  1.0000
  C   C578      1.0  0.40816  0.53433  0.75587  1.0000
  H   H989      1.0  0.42805  0.52206  0.68051  1.0000
  H   H990      1.0  0.45207  0.55620  0.69042  1.0000
  H   H991      1.0  0.42011  0.56252  0.78431  1.0000
  H   H992      1.0  0.39608  0.52835  0.77435  1.0000
  C   C579      1.0  0.23572  0.78206  0.82113  1.0000
  N   N29       1.0  0.25945  0.79188  0.55996  1.0000
  H   H993      1.0  0.28613  0.78986  0.61826  1.0000
  C   C580      1.0  0.32998  0.97522  0.97791  1.0000
  H   H994      1.0  0.46396  0.73718  0.69634  1.0000
  H   H995      1.0  0.24554  0.89060  0.88953  1.0000
  H   H996      1.0  0.43043  0.86789  0.80550  1.0000
  H   H997      1.0  0.30303  0.77884  0.85198  1.0000
  C   C581      1.0  0.46299  0.85048  0.79925  1.0000
  C   C582      1.0  0.45653  0.76238  0.68656  1.0000
  H   H998      1.0  0.46423  0.58876  0.87382  1.0000
  H   H999      1.0  0.39521  0.85094  0.78635  1.0000
  H   H1000     1.0  0.30740  0.96613  0.61696  1.0000
  H   H1001     1.0  0.45127  0.83594  0.79289  1.0000
  N   N30       1.0  0.24076  0.76757  0.79731  1.0000
  C   C583      1.0  0.26503  0.80835  0.58851  1.0000
  C   C584      1.0  0.42635  0.85623  0.78389  1.0000
  C   C585      1.0  0.37772  0.50830  0.62663  1.0000
  H   H1002     1.0  0.28889  0.75400  0.83699  1.0000
  N   N31       1.0  0.44525  0.73850  0.74105  1.0000
  C   C586      1.0  0.43741  0.71669  0.74761  1.0000
  C   C587      1.0  0.42944  0.74682  0.74703  1.0000
  C   C588      1.0  0.45106  0.74131  0.70125  1.0000
  H   H1003     1.0  0.25461  0.88551  0.55634  1.0000
  H   H1004     1.0  0.33588  0.96127  0.65341  1.0000
  C   C589      1.0  0.45196  0.70614  0.74103  1.0000
  C   C590      1.0  0.32316  0.97877  0.48635  1.0000
  C   C591      1.0  0.41455  0.73781  0.77781  1.0000
  C   C592      1.0  0.40239  0.75034  0.78587  1.0000
  C   C593      1.0  0.25783  0.82545  0.58186  1.0000
  C   C594      1.0  0.30492  0.97614  0.50131  1.0000
  H   H1005     1.0  0.24098  0.77076  0.59760  1.0000
  H   H1006     1.0  0.42421  0.70926  0.72960  1.0000
  H   H1007     1.0  0.43210  0.71335  0.77596  1.0000
  H   H1008     1.0  0.43621  0.76301  0.75198  1.0000
  H   H1009     1.0  0.42010  0.74481  0.72167  1.0000
  H   H1010     1.0  0.43896  0.73136  0.68309  1.0000
  C   C595      1.0  0.31050  0.97293  0.97016  1.0000
  H   H1011     1.0  0.46766  0.81967  0.83739  1.0000
  H   H1012     1.0  0.30804  0.87638  0.96871  1.0000
  C   C596      1.0  0.22689  0.87917  0.52710  1.0000
  H   H1013     1.0  0.43982  0.68339  0.78149  1.0000
  H   H1014     1.0  0.28895  0.79374  0.54864  1.0000
  H   H1015     1.0  0.45904  0.85536  0.82609  1.0000
  C   C597      1.0  0.23549  0.77924  0.86341  1.0000
  H   H1016     1.0  0.44390  0.76722  0.68756  1.0000
  H   H1017     1.0  0.40423  0.72297  0.76886  1.0000
  H   H1018     1.0  0.42174  0.73627  0.80382  1.0000
  H   H1019     1.0  0.41194  0.76488  0.79750  1.0000
  H   H1020     1.0  0.39490  0.75250  0.76046  1.0000
  H   H1021     1.0  0.39103  0.74299  0.80625  1.0000
  H   H1022     1.0  0.42341  0.84200  0.79744  1.0000
  C   C598      1.0  0.25477  0.71262  0.76561  1.0000
  H   H1023     1.0  0.40260  0.84429  0.74292  1.0000
  H   H1024     1.0  0.37423  0.96535  0.57862  1.0000
  H   H1025     1.0  0.45561  0.70630  0.71156  1.0000
  C   C599      1.0  0.40705  0.85530  0.76585  1.0000
  S   S135      1.0  0.29546  0.83425  0.97983  1.0000
  H   H1026     1.0  0.37795  0.50574  0.59654  1.0000
  H   H1027     1.0  0.34241  0.94240  0.58062  1.0000
  N   N32       1.0  0.31364  0.90401  0.90938  1.0000
  C   C600      1.0  0.32640  0.90344  0.94192  1.0000
  C   C601      1.0  0.31807  0.92504  0.89859  1.0000
  C   C602      1.0  0.29252  0.89548  0.92125  1.0000
  C   C603      1.0  0.31567  0.89168  0.87730  1.0000
  C   C604      1.0  0.33657  0.89633  0.86274  1.0000
  H   H1028     1.0  0.23332  0.87497  0.58434  1.0000
  C   C605      1.0  0.27697  0.89759  0.89391  1.0000
  C   C606      1.0  0.33968  0.93966  0.90258  1.0000
  C   C607      1.0  0.34226  0.95936  0.88564  1.0000
  C   C608      1.0  0.33684  0.88042  0.83535  1.0000
  H   H1029     1.0  0.26030  0.80239  0.61624  1.0000
  C   C609      1.0  0.25629  0.88831  0.90890  1.0000
  C   C610      1.0  0.24031  0.77578  0.56912  1.0000
  H   H1030     1.0  0.34220  0.91014  0.93566  1.0000
  H   H1031     1.0  0.31294  0.92553  0.86981  1.0000
  H   H1032     1.0  0.30972  0.93173  0.91610  1.0000
  H   H1033     1.0  0.29091  0.90232  0.94790  1.0000
  H   H1034     1.0  0.28795  0.87953  0.92636  1.0000
  H   H1035     1.0  0.30944  0.87586  0.88405  1.0000
  H   H1036     1.0  0.30673  0.89299  0.85332  1.0000
  H   H1037     1.0  0.34731  0.89715  0.88500  1.0000
  H   H1038     1.0  0.34142  0.91036  0.84794  1.0000
  H   H1039     1.0  0.33211  0.96564  0.89820  1.0000
  H   H1040     1.0  0.32467  0.87289  0.93571  1.0000
  H   H1041     1.0  0.27705  0.89019  0.86719  1.0000
  H   H1042     1.0  0.27962  0.91323  0.88897  1.0000
  H   H1043     1.0  0.34395  0.94256  0.93212  1.0000
  H   H1044     1.0  0.35010  0.93404  0.88951  1.0000
  H   H1045     1.0  0.47019  0.84736  0.72830  1.0000
  C   C611      1.0  0.47398  0.56212  0.81893  1.0000
  C   C612      1.0  0.23592  0.70170  0.75095  1.0000
  H   H1046     1.0  0.33312  0.86615  0.84919  1.0000
  H   H1047     1.0  0.32615  0.87862  0.81231  1.0000
  H   H1048     1.0  0.35171  0.88446  0.82382  1.0000
  H   H1049     1.0  0.24834  0.80724  0.51987  1.0000
  H   H1050     1.0  0.23779  0.76255  0.55139  1.0000
  H   H1051     1.0  0.35752  0.96990  0.89083  1.0000
  H   H1052     1.0  0.46901  0.89582  0.76414  1.0000
  H   H1053     1.0  0.46886  0.77306  0.70274  1.0000
  H   H1054     1.0  0.35282  0.88981  0.97831  1.0000
  N   N33       1.0  0.35892  0.54158  0.68829  1.0000
  C   C613      1.0  0.37256  0.56132  0.67533  1.0000
  C   C614      1.0  0.33804  0.53742  0.67535  1.0000
  C   C615      1.0  0.35946  0.54246  0.72988  1.0000
  C   C616      1.0  0.36556  0.52532  0.67633  1.0000
  C   C617      1.0  0.36688  0.52210  0.63454  1.0000
  C   C618      1.0  0.39445  0.56765  0.68778  1.0000
  C   C619      1.0  0.34327  0.52548  0.74929  1.0000
  C   C620      1.0  0.33497  0.54458  0.63669  1.0000
  H   H1055     1.0  0.30840  0.51948  0.62193  1.0000
  C   C621      1.0  0.40685  0.58767  0.67277  1.0000
  C   C622      1.0  0.34681  0.52680  0.79089  1.0000
  H   H1056     1.0  0.36725  0.57293  0.68493  1.0000
  H   H1057     1.0  0.37245  0.56203  0.64497  1.0000
  H   H1058     1.0  0.32916  0.52139  0.67674  1.0000
  H   H1059     1.0  0.33086  0.54471  0.69422  1.0000
  H   H1060     1.0  0.35830  0.55638  0.74007  1.0000
  H   H1061     1.0  0.37376  0.54259  0.74071  1.0000
  H   H1062     1.0  0.37999  0.52748  0.68923  1.0000
  H   H1063     1.0  0.35562  0.51103  0.68670  1.0000
  H   H1064     1.0  0.39609  0.56891  0.71813  1.0000
  H   H1065     1.0  0.40086  0.55705  0.67770  1.0000
  H   H1066     1.0  0.34281  0.51099  0.73955  1.0000
  H   H1067     1.0  0.32853  0.52603  0.74418  1.0000
  H   H1068     1.0  0.33944  0.56081  0.63749  1.0000
  C   C623      1.0  0.26126  0.83870  0.61613  1.0000
  H   H1069     1.0  0.45418  0.73156  0.81445  1.0000
  H   H1070     1.0  0.30405  0.53958  0.64455  1.0000
  H   H1071     1.0  0.28124  0.76479  0.87619  1.0000
  C   C624      1.0  0.32523  0.92525  0.62363  1.0000
  H   H1072     1.0  0.36086  0.52507  0.79787  1.0000
  H   H1073     1.0  0.34717  0.54107  0.80214  1.0000
  H   H1074     1.0  0.33471  0.51485  0.80405  1.0000
  H   H1075     1.0  0.22826  0.79138  0.91340  1.0000
  C   C625      1.0  0.25493  0.76002  0.81605  1.0000
  H   H1076     1.0  0.45375  0.67748  0.74606  1.0000
  C   C626      1.0  0.25025  0.77778  0.76277  1.0000
  H   H1077     1.0  0.26471  0.77749  0.48756  1.0000
  H   H1078     1.0  0.25901  0.81068  0.71733  1.0000
  C   C627      1.0  0.27590  0.77538  0.82303  1.0000
  H   H1079     1.0  0.45231  0.75546  0.81698  1.0000
  H   H1080     1.0  0.40149  0.59910  0.68281  1.0000
  H   H1081     1.0  0.27342  0.81128  0.51617  1.0000
  H   H1082     1.0  0.47081  0.62601  0.82971  1.0000
  C   C628      1.0  0.28793  0.76768  0.84867  1.0000
  C   C629      1.0  0.46283  0.76335  0.64661  1.0000
  H   H1083     1.0  0.25644  0.74791  0.79934  1.0000
  C   C630      1.0  0.46790  0.59698  0.84796  1.0000
  H   H1084     1.0  0.25942  0.70832  0.79130  1.0000
  H   H1085     1.0  0.35777  0.95908  0.63799  1.0000
  H   H1086     1.0  0.25636  0.76837  0.74675  1.0000
  H   H1087     1.0  0.26303  0.79149  0.76982  1.0000
  C   C631      1.0  0.46836  0.61767  0.85549  1.0000
  H   H1088     1.0  0.45139  0.52939  0.77668  1.0000
  C   C632      1.0  0.25891  0.79972  0.52198  1.0000
  H   H1089     1.0  0.45065  0.75346  0.62879  1.0000
  H   H1090     1.0  0.28371  0.77893  0.79671  1.0000
  H   H1091     1.0  0.27551  0.78914  0.83511  1.0000
  H   H1092     1.0  0.39313  0.51482  0.63723  1.0000
  H   H1093     1.0  0.22646  0.74154  0.76357  1.0000
  H   H1094     1.0  0.31490  0.92600  0.64506  1.0000
  H   H1095     1.0  0.26382  0.49471  0.71138  1.0000
  H   H1096     1.0  0.40853  0.86983  0.75505  1.0000
  H   H1097     1.0  0.35187  0.51511  0.62234  1.0000
  H   H1098     1.0  0.28129  0.81567  0.59089  1.0000
  H   H1099     1.0  0.22672  0.89386  0.53390  1.0000
  H   H1100     1.0  0.34365  0.54086  0.61540  1.0000
  C   C633      1.0  0.24828  0.79668  0.70561  1.0000
  C   C634      1.0  0.31337  0.53571  0.62447  1.0000
  S   S136      1.0  0.29706  0.48379  0.72672  1.0000
  C   C635      1.0  0.33290  0.94436  0.60253  1.0000
  C   C636      1.0  0.27523  0.78323  0.56041  1.0000
  H   H1101     1.0  0.30111  0.76513  0.62211  1.0000
  H   H1102     1.0  0.31068  0.78078  0.58386  1.0000
  C   C637      1.0  0.25366  0.78441  0.48982  1.0000
  H   H1103     1.0  0.25226  0.87228  0.91208  1.0000
  H   H1104     1.0  0.23987  0.85972  0.55165  1.0000
  N   N34       1.0  0.46337  0.86488  0.76965  1.0000
  H   H1105     1.0  0.46683  0.77859  0.63688  1.0000
  H   H1106     1.0  0.24208  0.82029  0.57416  1.0000
  C   C638      1.0  0.34466  0.96205  0.62837  1.0000
  H   H1107     1.0  0.43808  0.84644  0.73694  1.0000
  H   H1108     1.0  0.29263  0.75619  0.57629  1.0000
  H   H1109     1.0  0.33757  0.92225  0.63674  1.0000
  H   H1110     1.0  0.37032  0.49394  0.63973  1.0000
  C   C639      1.0  0.28082  0.77725  0.59848  1.0000
  H   H1111     1.0  0.26811  0.76555  0.61052  1.0000
  H   H1112     1.0  0.26619  0.83460  0.55917  1.0000
  H   H1113     1.0  0.31728  0.91285  0.60437  1.0000
  H   H1114     1.0  0.23718  0.80882  0.87746  1.0000
  S   S137      1.0  0.46292  0.81255  0.68947  1.0000
  C   C640      1.0  0.37330  0.97751  0.56196  1.0000
  H   H1115     1.0  0.23858  0.72787  0.67329  1.0000
  H   H1116     1.0  0.27694  0.84410  0.62518  1.0000
  H   H1117     1.0  0.32424  0.91255  0.96491  1.0000
  C   C641      1.0  0.46327  0.74938  0.76455  1.0000
  H   H1118     1.0  0.46021  0.56045  0.83339  1.0000
  C   C642      1.0  0.32293  0.88291  0.95729  1.0000
  C   C643      1.0  0.23670  0.78365  0.73616  1.0000
  H   H1119     1.0  0.25055  0.78235  0.87446  1.0000
  H   H1120     1.0  0.23437  0.88006  0.50056  1.0000
  H   H1121     1.0  0.30926  0.48253  0.64558  1.0000
  H   H1122     1.0  0.46113  0.88675  0.80790  1.0000
  H   H1123     1.0  0.25615  0.78897  0.68958  1.0000
  C   C644      1.0  0.31481  0.97956  0.60104  1.0000
  H   H1124     1.0  0.47166  0.56580  0.79011  1.0000
  H   H1125     1.0  0.44186  0.87178  0.73705  1.0000
  H   H1126     1.0  0.46135  0.87141  0.69118  1.0000
  H   H1127     1.0  0.24641  0.79730  0.81707  1.0000
  H   H1128     1.0  0.45407  0.61684  0.86661  1.0000
  H   H1129     1.0  0.23810  0.80015  0.68664  1.0000
  C   C645      1.0  0.37286  0.97174  0.52137  1.0000
  C   C646      1.0  0.28959  0.95742  0.50006  1.0000
  C   C647      1.0  0.23014  0.70737  0.71762  1.0000
  H   H1130     1.0  0.25735  0.85157  0.60997  1.0000
  H   H1131     1.0  0.45571  0.58966  0.82787  1.0000
  H   H1132     1.0  0.27558  0.95566  0.51172  1.0000
  H   H1133     1.0  0.44370  0.52511  0.82377  1.0000
  H   H1134     1.0  0.46573  0.71309  0.75748  1.0000
  H   H1135     1.0  0.45678  0.51132  0.80286  1.0000
  C   C648      1.0  0.45554  0.52593  0.80445  1.0000
  C   C649      1.0  0.22783  0.79337  0.88325  1.0000
  H   H1136     1.0  0.22883  0.79169  0.75112  1.0000
  H   H1137     1.0  0.46836  0.76540  0.76000  1.0000
  H   H1138     1.0  0.38624  0.96872  0.51499  1.0000
  H   H1139     1.0  0.22634  0.76416  0.87110  1.0000
  C   C650      1.0  0.47514  0.54146  0.81754  1.0000
  H   H1140     1.0  0.22577  0.77039  0.72246  1.0000
  N   N35       1.0  0.35085  0.98231  0.61249  1.0000
  H   H1141     1.0  0.64396  0.21703  0.08532  1.0000
  S   S138      1.0  0.49234  0.14529  0.21116  1.0000
  H   H1142     1.0  0.67490  0.00568  0.03451  1.0000
  H   H1143     1.0  0.70974  0.47932  0.38786  1.0000
  S   S139      1.0  0.49129  0.13699  0.30057  1.0000
  C   C651      1.0  0.71466  0.09776  0.05607  1.0000
  H   H1144     1.0  0.70487  0.07358  0.43817  1.0000
  H   H1145     1.0  0.56288  0.45071  0.31247  1.0000
  Fe  Fe67      1.0  0.50498  0.12890  0.25043  1.0000
  S   S140      1.0  0.53822  0.13574  0.26076  1.0000
  H   H1146     1.0  0.66940  0.41124  0.16473  1.0000
  Fe  Fe68      1.0  0.64832  0.12632  0.23454  1.0000
  S   S141      1.0  0.66039  0.10206  0.23390  1.0000
  S   S142      1.0  0.61518  0.11758  0.21975  1.0000
  Fe  Fe69      1.0  0.68944  0.15741  0.25027  1.0000
  S   S143      1.0  0.70392  0.13541  0.25150  1.0000
  Fe  Fe70      1.0  0.68541  0.12182  0.20102  1.0000
  S   S144      1.0  0.70198  0.11011  0.15984  1.0000
  Fe  Fe71      1.0  0.67824  0.11683  0.28436  1.0000
  S   S145      1.0  0.68309  0.09565  0.32550  1.0000
  S   S146      1.0  0.67244  0.14519  0.19761  1.0000
  S   S147      1.0  0.66468  0.13987  0.28729  1.0000
  Fe  Fe72      1.0  0.68622  0.47200  0.25831  1.0000
  S   S148      1.0  0.70692  0.45628  0.26984  1.0000
  Fe  Fe73      1.0  0.64302  0.46462  0.24522  1.0000
  H   H1147     1.0  0.50199  0.28052  0.11029  1.0000
  S   S149      1.0  0.61155  0.44242  0.23079  1.0000
  C   C652      1.0  0.71776  0.47099  0.37434  1.0000
  S   S150      1.0  0.66808  0.46871  0.20641  1.0000
  S   S151      1.0  0.66097  0.46625  0.29681  1.0000
  Fe  Fe74      1.0  0.50522  0.28846  0.23885  1.0000
  H   H1148     1.0  0.64970  0.17244  0.26403  1.0000
  S   S152      1.0  0.51729  0.26466  0.22760  1.0000
  Fe  Fe75      1.0  0.51708  0.33250  0.25491  1.0000
  H   H1149     1.0  0.63893  0.05405  0.12768  1.0000
  S   S153      1.0  0.54578  0.35874  0.27210  1.0000
  N   N36       1.0  0.64620  0.40062  0.20409  1.0000
  H   H1150     1.0  0.56446  0.13656  0.15643  1.0000
  H   H1151     1.0  0.71180  0.98944  0.14398  1.0000
  H   H1152     1.0  0.56786  0.15522  0.12252  1.0000
  S   S154      1.0  0.51156  0.30620  0.29142  1.0000
  S   S155      1.0  0.51234  0.31448  0.20203  1.0000
  H   H1153     1.0  0.61937  0.34004  0.17871  1.0000
  H   H1154     1.0  0.65067  0.12983  0.11280  1.0000
  C   C653      1.0  0.50638  0.19969  0.35406  1.0000
  H   H1155     1.0  0.61985  0.18089  0.20921  1.0000
  H   H1156     1.0  0.50236  0.06751  0.29377  1.0000
  H   H1157     1.0  0.66962  0.22512  0.09809  1.0000
  H   H1158     1.0  0.53123  0.09721  0.41059  1.0000
  C   C654      1.0  0.58927  0.16392  0.16798  1.0000
  C   C655      1.0  0.59393  0.41872  0.24209  1.0000
  C   C656      1.0  0.57693  0.41018  0.21966  1.0000
  C   C657      1.0  0.56236  0.39173  0.22769  1.0000
  C   C658      1.0  0.56436  0.38152  0.25873  1.0000
  C   C659      1.0  0.58146  0.39003  0.28104  1.0000
  C   C660      1.0  0.59614  0.40837  0.27276  1.0000
  H   H1159     1.0  0.57493  0.41793  0.19585  1.0000
  H   H1160     1.0  0.54937  0.38559  0.21023  1.0000
  H   H1161     1.0  0.58322  0.38243  0.30524  1.0000
  H   H1162     1.0  0.60888  0.41467  0.29067  1.0000
  C   C661      1.0  0.63370  0.41518  0.14914  1.0000
  C   C662      1.0  0.70111  0.10717  0.11121  1.0000
  H   H1163     1.0  0.47719  0.30996  0.39711  1.0000
  H   H1164     1.0  0.47802  0.24576  0.25533  1.0000
  C   C663      1.0  0.69983  0.09996  0.03418  1.0000
  H   H1165     1.0  0.65373  0.20177  0.20251  1.0000
  C   C664      1.0  0.68644  0.10965  0.08926  1.0000
  C   C665      1.0  0.63994  0.46807  0.38847  1.0000
  H   H1166     1.0  0.50935  0.15286  0.40377  1.0000
  C   C666      1.0  0.68903  0.09786  0.37322  1.0000
  C   C667      1.0  0.68672  0.11232  0.39603  1.0000
  C   C668      1.0  0.69066  0.11258  0.43419  1.0000
  C   C669      1.0  0.69730  0.09866  0.44974  1.0000
  H   H1167     1.0  0.57661  0.47034  0.26223  1.0000
  C   C670      1.0  0.68049  0.01113  0.40192  1.0000
  H   H1168     1.0  0.68145  0.12299  0.38447  1.0000
  H   H1169     1.0  0.68842  0.12354  0.45178  1.0000
  H   H1170     1.0  0.65384  0.16609  0.14790  1.0000
  H   H1171     1.0  0.68856  0.03053  0.35471  1.0000
  C   C671      1.0  0.55929  0.13003  0.24954  1.0000
  C   C672      1.0  0.57739  0.14036  0.26781  1.0000
  C   C673      1.0  0.59449  0.13654  0.25981  1.0000
  C   C674      1.0  0.59386  0.12237  0.23307  1.0000
  C   C675      1.0  0.57572  0.11196  0.21502  1.0000
  C   C676      1.0  0.55858  0.11564  0.22328  1.0000
  H   H1172     1.0  0.57821  0.15148  0.28829  1.0000
  H   H1173     1.0  0.60820  0.14468  0.27416  1.0000
  H   H1174     1.0  0.57493  0.10096  0.19429  1.0000
  H   H1175     1.0  0.54487  0.10748  0.20897  1.0000
  C   C677      1.0  0.50351  0.24020  0.23896  1.0000
  C   C678      1.0  0.51171  0.22581  0.23457  1.0000
  C   C679      1.0  0.50120  0.20630  0.24449  1.0000
  H   H1176     1.0  0.69777  0.07298  0.37122  1.0000
  H   H1177     1.0  0.62051  0.18475  0.11161  1.0000
  C   C680      1.0  0.49485  0.06781  0.31996  1.0000
  H   H1178     1.0  0.52639  0.22985  0.22414  1.0000
  H   H1179     1.0  0.50783  0.19541  0.24203  1.0000
  H   H1180     1.0  0.66162  0.18118  0.20095  1.0000
  C   C681      1.0  0.64926  0.14087  0.09356  1.0000
  H   H1181     1.0  0.61926  0.13522  0.10588  1.0000
  H   H1182     1.0  0.65470  0.00472  0.35041  1.0000
  H   H1183     1.0  0.55880  0.10150  0.37403  1.0000
  C   C682      1.0  0.70305  0.41445  0.19805  1.0000
  H   H1184     1.0  0.67973  0.99827  0.38463  1.0000
  H   H1185     1.0  0.68307  0.02666  0.47586  1.0000
  H   H1186     1.0  0.63215  0.46115  0.41356  1.0000
  H   H1187     1.0  0.68775  0.00967  0.42800  1.0000
  C   C683      1.0  0.69578  0.08407  0.38876  1.0000
  C   C684      1.0  0.51257  0.12600  0.38515  1.0000
  C   C685      1.0  0.69457  0.02927  0.38222  1.0000
  Fe  Fe76      1.0  0.48011  0.30951  0.20610  1.0000
  H   H1188     1.0  0.53254  0.07844  0.32669  1.0000
  H   H1189     1.0  0.62759  0.44205  0.15256  1.0000
  H   H1190     1.0  0.72385  0.04024  0.36008  1.0000
  H   H1191     1.0  0.60229  0.44921  0.37334  1.0000
  H   H1192     1.0  0.69899  0.05761  0.05989  1.0000
  H   H1193     1.0  0.51520  0.22760  0.38212  1.0000
  H   H1194     1.0  0.57983  0.44297  0.28889  1.0000
  C   C686      1.0  0.66747  0.41149  0.19497  1.0000
  H   H1195     1.0  0.67844  0.38782  0.20645  1.0000
  H   H1196     1.0  0.66438  0.02863  0.11706  1.0000
  H   H1197     1.0  0.70677  0.03272  0.01950  1.0000
  H   H1198     1.0  0.54834  0.39864  0.33842  1.0000
  H   H1199     1.0  0.66978  0.04157  0.42485  1.0000
  C   C687      1.0  0.48240  0.20112  0.25867  1.0000
  S   S156      1.0  0.72202  0.01767  0.47868  1.0000
  C   C688      1.0  0.65491  0.06042  0.13430  1.0000
  N   N37       1.0  0.52036  0.09740  0.35504  1.0000
  C   C689      1.0  0.49999  0.07935  0.41107  1.0000
  C   C690      1.0  0.49937  0.25467  0.38001  1.0000
  H   H1200     1.0  0.56345  0.45580  0.38945  1.0000
  C   C691      1.0  0.66052  0.02698  0.43519  1.0000
  C   C692      1.0  0.51735  0.29142  0.39057  1.0000
  H   H1201     1.0  0.48958  0.06616  0.39636  1.0000
  C   C693      1.0  0.51995  0.08726  0.39107  1.0000
  H   H1202     1.0  0.51214  0.08629  0.46686  1.0000
  H   H1203     1.0  0.51754  0.19558  0.36900  1.0000
  C   C694      1.0  0.49778  0.27517  0.37994  1.0000
  H   H1204     1.0  0.67224  0.42735  0.20269  1.0000
  C   C695      1.0  0.66710  0.00969  0.05727  1.0000
  H   H1205     1.0  0.64066  0.42748  0.20366  1.0000
  H   H1206     1.0  0.66260  0.19991  0.14514  1.0000
  H   H1207     1.0  0.58862  0.16220  0.19825  1.0000
  H   H1208     1.0  0.63192  0.15877  0.08623  1.0000
  H   H1209     1.0  0.50978  0.25527  0.35758  1.0000
  H   H1210     1.0  0.65568  0.42560  0.32685  1.0000
  H   H1211     1.0  0.65452  0.18932  0.10060  1.0000
  H   H1212     1.0  0.66364  0.15326  0.09214  1.0000
  H   H1213     1.0  0.70765  0.43052  0.20279  1.0000
  H   H1214     1.0  0.60090  0.15320  0.12212  1.0000
  C   C696      1.0  0.65446  0.21824  0.10838  1.0000
  H   H1215     1.0  0.66013  0.40361  0.31631  1.0000
  H   H1216     1.0  0.64157  0.19290  0.26577  1.0000
  C   C697      1.0  0.66671  0.05782  0.10176  1.0000
  H   H1217     1.0  0.62623  0.19839  0.15345  1.0000
  H   H1218     1.0  0.53882  0.41764  0.33008  1.0000
  H   H1219     1.0  0.68246  0.06512  0.10955  1.0000
  N   N38       1.0  0.66013  0.01069  0.40893  1.0000
  H   H1220     1.0  0.59312  0.17964  0.16191  1.0000
  H   H1221     1.0  0.50707  0.25355  0.40598  1.0000
  H   H1222     1.0  0.65388  0.02783  0.30224  1.0000
  H   H1223     1.0  0.55787  0.15735  0.16667  1.0000
  C   C698      1.0  0.57056  0.42812  0.33894  1.0000
  C   C699      1.0  0.68246  0.40368  0.21259  1.0000
  N   N39       1.0  0.67231  0.03158  0.05974  1.0000
  C   C700      1.0  0.55118  0.41278  0.32456  1.0000
  C   C701      1.0  0.66776  0.02615  0.47516  1.0000
  C   C702      1.0  0.50256  0.07338  0.45024  1.0000
  H   H1224     1.0  0.67544  0.11407  0.10185  1.0000
  H   H1225     1.0  0.59542  0.34037  0.16829  1.0000
  H   H1226     1.0  0.60143  0.14129  0.16394  1.0000
  C   C703      1.0  0.69999  0.08450  0.42668  1.0000
  H   H1227     1.0  0.64558  0.04738  0.31353  1.0000
  C   C704      1.0  0.69411  0.04195  0.06768  1.0000
  H   H1228     1.0  0.61213  0.36525  0.21576  1.0000
  H   H1229     1.0  0.62519  0.15933  0.21368  1.0000
  H   H1230     1.0  0.67237  0.00465  0.08258  1.0000
  H   H1231     1.0  0.65247  0.22790  0.13047  1.0000
  H   H1232     1.0  0.65812  0.05338  0.15906  1.0000
  H   H1233     1.0  0.63564  0.14479  0.16445  1.0000
  H   H1234     1.0  0.61512  0.35114  0.13693  1.0000
  H   H1235     1.0  0.51246  0.12084  0.41362  1.0000
  H   H1236     1.0  0.64224  0.42560  0.26457  1.0000
  H   H1237     1.0  0.48666  0.27613  0.39912  1.0000
  C   C705      1.0  0.61678  0.36848  0.18697  1.0000
  C   C706      1.0  0.64864  0.99139  0.42652  1.0000
  H   H1238     1.0  0.64536  0.13387  0.06581  1.0000
  H   H1239     1.0  0.53478  0.09999  0.30266  1.0000
  C   C707      1.0  0.68580  0.10603  0.05097  1.0000
  S   S157      1.0  0.70580  0.19035  0.26061  1.0000
  C   C708      1.0  0.48577  0.22084  0.35644  1.0000
  H   H1240     1.0  0.52433  0.07437  0.38719  1.0000
  C   C709      1.0  0.61145  0.34883  0.16641  1.0000
  H   H1241     1.0  0.66730  0.19717  0.26208  1.0000
  C   C710      1.0  0.65149  0.03273  0.36089  1.0000
  C   C711      1.0  0.64450  0.03240  0.32106  1.0000
  C   C712      1.0  0.62117  0.42715  0.13965  1.0000
  H   H1242     1.0  0.64861  0.42315  0.13863  1.0000
  H   H1243     1.0  0.66665  0.04366  0.36323  1.0000
  H   H1244     1.0  0.64540  0.02940  0.08680  1.0000
  H   H1245     1.0  0.64331  0.38201  0.15578  1.0000
  H   H1246     1.0  0.62781  0.39063  0.25128  1.0000
  C   C713      1.0  0.53559  0.09436  0.33070  1.0000
  H   H1247     1.0  0.56891  0.09740  0.29317  1.0000
  H   H1248     1.0  0.49142  0.22541  0.32849  1.0000
  H   H1249     1.0  0.60595  0.41976  0.14937  1.0000
  H   H1250     1.0  0.61920  0.40616  0.20120  1.0000
  H   H1251     1.0  0.64221  0.03821  0.37830  1.0000
  C   C714      1.0  0.63449  0.41247  0.19123  1.0000
  H   H1252     1.0  0.62897  0.02224  0.31744  1.0000
  H   H1253     1.0  0.50906  0.06191  0.45011  1.0000
  C   C715      1.0  0.67071  0.03243  0.98796  1.0000
  H   H1254     1.0  0.51576  0.30587  0.38933  1.0000
  H   H1255     1.0  0.71250  0.01390  0.35976  1.0000
  H   H1256     1.0  0.62059  0.42872  0.10942  1.0000
  C   C716      1.0  0.65226  0.18726  0.25341  1.0000
  C   C717      1.0  0.65038  0.18652  0.21149  1.0000
  C   C718      1.0  0.56863  0.15253  0.15233  1.0000
  C   C719      1.0  0.70829  0.03335  0.04976  1.0000
  H   H1257     1.0  0.67270  0.05577  0.02574  1.0000
  H   H1258     1.0  0.70546  0.01832  0.05945  1.0000
  H   H1259     1.0  0.58204  0.42173  0.33622  1.0000
  H   H1260     1.0  0.52191  0.28947  0.41899  1.0000
  H   H1261     1.0  0.63811  0.00257  0.02980  1.0000
  H   H1262     1.0  0.54087  0.12566  0.37510  1.0000
  H   H1263     1.0  0.47971  0.25360  0.18224  1.0000
  H   H1264     1.0  0.70963  0.46369  0.34890  1.0000
  H   H1265     1.0  0.66344  0.06561  0.07824  1.0000
  N   N40       1.0  0.62587  0.16893  0.15789  1.0000
  C   C720      1.0  0.63791  0.15724  0.14567  1.0000
  C   C721      1.0  0.62935  0.17331  0.19863  1.0000
  C   C722      1.0  0.60447  0.15600  0.15199  1.0000
  C   C723      1.0  0.63011  0.18756  0.13673  1.0000
  C   C724      1.0  0.65142  0.19799  0.12321  1.0000
  C   C725      1.0  0.63332  0.14812  0.10628  1.0000
  H   H1266     1.0  0.58802  0.46345  0.40932  1.0000
  C   C726      1.0  0.65048  0.41183  0.30997  1.0000
  H   H1267     1.0  0.69729  0.04222  0.09778  1.0000
  H   H1268     1.0  0.63363  0.00356  0.37505  1.0000
  H   H1269     1.0  0.66678  0.42589  0.26332  1.0000
  H   H1270     1.0  0.71374  0.40950  0.21259  1.0000
  H   H1271     1.0  0.52892  0.29146  0.37117  1.0000
  H   H1272     1.0  0.62721  0.40088  0.13420  1.0000
  H   H1273     1.0  0.70348  0.41142  0.16817  1.0000
  C   C727      1.0  0.65138  0.41671  0.26922  1.0000
  H   H1274     1.0  0.60794  0.37623  0.17431  1.0000
  H   H1275     1.0  0.68330  0.40595  0.24287  1.0000
  H   H1276     1.0  0.48801  0.06736  0.46339  1.0000
  H   H1277     1.0  0.65054  0.38749  0.25473  1.0000
  C   C728      1.0  0.66598  0.03945  0.02572  1.0000
  H   H1278     1.0  0.58612  0.10409  0.33138  1.0000
  C   C729      1.0  0.64975  0.01192  0.37327  1.0000
  H   H1279     1.0  0.63519  0.40294  0.31765  1.0000
  C   C730      1.0  0.64496  0.99701  0.05212  1.0000
  C   C731      1.0  0.64363  0.39776  0.24490  1.0000
  C   C732      1.0  0.63916  0.38070  0.18519  1.0000
  H   H1280     1.0  0.64671  0.37150  0.19732  1.0000
  H   H1281     1.0  0.72072  0.10401  0.28511  1.0000
  H   H1282     1.0  0.67429  0.10781  0.03426  1.0000
  C   C733      1.0  0.66156  0.03577  0.09194  1.0000
  H   H1283     1.0  0.65909  0.07632  0.14075  1.0000
  S   S158      1.0  0.47950  0.09981  0.24115  1.0000
  H   H1284     1.0  0.55174  0.41021  0.29453  1.0000
  H   H1285     1.0  0.52766  0.12660  0.33433  1.0000
  H   H1286     1.0  0.49310  0.18622  0.34904  1.0000
  C   C734      1.0  0.55727  0.10400  0.34437  1.0000
  H   H1287     1.0  0.69728  0.04282  0.39882  1.0000
  C   C735      1.0  0.57053  0.09585  0.32321  1.0000
  H   H1288     1.0  0.47831  0.29494  0.10663  1.0000
  H   H1289     1.0  0.56279  0.12006  0.33982  1.0000
  H   H1290     1.0  0.72190  0.02727  0.40236  1.0000
  C   C736      1.0  0.60845  0.45902  0.35010  1.0000
  C   C737      1.0  0.51983  0.14840  0.38774  1.0000
  H   H1291     1.0  0.49361  0.27832  0.35197  1.0000
  H   H1292     1.0  0.56904  0.43059  0.36854  1.0000
  H   H1293     1.0  0.49575  0.20802  0.40341  1.0000
  C   C738      1.0  0.48451  0.23485  0.25220  1.0000
  C   C739      1.0  0.49148  0.25052  0.12983  1.0000
  H   H1294     1.0  0.64542  0.02713  0.43714  1.0000
  H   H1295     1.0  0.53446  0.15451  0.40178  1.0000
  C   C740      1.0  0.71439  0.02749  0.37580  1.0000
  H   H1296     1.0  0.52097  0.15476  0.36000  1.0000
  H   H1297     1.0  0.68920  0.99361  0.13627  1.0000
  H   H1298     1.0  0.49278  0.09015  0.41263  1.0000
  H   H1299     1.0  0.49914  0.05873  0.33982  1.0000
  H   H1300     1.0  0.52038  0.26980  0.11299  1.0000
  H   H1301     1.0  0.51223  0.27781  0.15438  1.0000
  H   H1302     1.0  0.63710  0.99698  0.07796  1.0000
  C   C741      1.0  0.52621  0.11924  0.36123  1.0000
  C   C742      1.0  0.70372  0.99338  0.47958  1.0000
  C   C743      1.0  0.50097  0.08940  0.33415  1.0000
  H   H1303     1.0  0.71382  0.98435  0.42975  1.0000
  H   H1304     1.0  0.63437  0.99154  0.43633  1.0000
  H   H1305     1.0  0.48885  0.09068  0.35053  1.0000
  H   H1306     1.0  0.50148  0.09849  0.30968  1.0000
  C   C744      1.0  0.57631  0.44725  0.31667  1.0000
  H   H1307     1.0  0.56683  0.08012  0.32922  1.0000
  C   C745      1.0  0.50135  0.21482  0.37683  1.0000
  C   C746      1.0  0.71522  0.10124  0.09434  1.0000
  H   H1308     1.0  0.49746  0.12058  0.37346  1.0000
  H   H1309     1.0  0.64987  0.03603  0.02584  1.0000
  C   C747      1.0  0.57756  0.46833  0.39397  1.0000
  H   H1310     1.0  0.64399  0.45715  0.37261  1.0000
  H   H1311     1.0  0.51244  0.20580  0.32718  1.0000
  H   H1312     1.0  0.61340  0.45008  0.33040  1.0000
  N   N41       1.0  0.59312  0.46513  0.33161  1.0000
  H   H1313     1.0  0.71825  0.45948  0.39331  1.0000
  S   S159      1.0  0.48498  0.32936  0.25684  1.0000
  Fe  Fe77      1.0  0.47740  0.15129  0.26077  1.0000
  H   H1314     1.0  0.71252  0.00114  0.00318  1.0000
  C   C748      1.0  0.50743  0.27094  0.12677  1.0000
  H   H1315     1.0  0.65671  0.98917  0.45114  1.0000
  H   H1316     1.0  0.48666  0.24478  0.10158  1.0000
  H   H1317     1.0  0.61037  0.47015  0.28255  1.0000
  N   N42       1.0  0.48053  0.23686  0.37464  1.0000
  H   H1318     1.0  0.48209  0.22674  0.42969  1.0000
  H   H1319     1.0  0.56709  0.47641  0.44480  1.0000
  C   C749      1.0  0.60269  0.47769  0.29951  1.0000
  H   H1320     1.0  0.70332  0.99089  0.09792  1.0000
  C   C750      1.0  0.62709  0.47591  0.36511  1.0000
  C   C751      1.0  0.69852  0.98576  0.12594  1.0000
  C   C752      1.0  0.58574  0.47731  0.35673  1.0000
  C   C753      1.0  0.69979  0.98870  0.99398  1.0000
  Fe  Fe78      1.0  0.47957  0.30214  0.29012  1.0000
  H   H1321     1.0  0.49842  0.24111  0.14315  1.0000
  H   H1322     1.0  0.72069  0.48056  0.20642  1.0000
  H   H1323     1.0  0.65363  0.48040  0.39709  1.0000
  H   H1324     1.0  0.57367  0.48050  0.34292  1.0000
  H   H1325     1.0  0.47622  0.25594  0.44462  1.0000
  H   H1326     1.0  0.66592  0.01627  0.98551  1.0000
  S   S160      1.0  0.69791  0.09487  0.98607  1.0000
  H   H1327     1.0  0.66512  0.05485  0.95618  1.0000
  S   S161      1.0  0.70151  0.06142  0.90613  1.0000
  S   S162      1.0  0.71044  0.05387  0.55292  1.0000
  H   H1328     1.0  0.65241  0.04452  0.49620  1.0000
  H   H1329     1.0  0.68982  0.99747  0.52889  1.0000
  H   H1330     1.0  0.61895  0.98334  0.53912  1.0000
  Fe  Fe79      1.0  0.71957  0.08250  0.52260  1.0000
  H   H1331     1.0  0.48924  0.31814  0.94616  1.0000
  H   H1332     1.0  0.51118  0.33796  0.87741  1.0000
  C   C754      1.0  0.66713  0.04350  0.49809  1.0000
  H   H1333     1.0  0.49295  0.30578  0.90613  1.0000
  S   S163      1.0  0.69899  0.01046  0.93135  1.0000
  C   C755      1.0  0.49050  0.31905  0.91598  1.0000
  C   C756      1.0  0.50890  0.33679  0.90752  1.0000
  H   H1334     1.0  0.47862  0.26520  0.91633  1.0000
  H   H1335     1.0  0.52195  0.33519  0.92077  1.0000
  H   H1336     1.0  0.67025  0.04166  0.52740  1.0000
  C   C757      1.0  0.69072  0.98941  0.96018  1.0000
  Fe  Fe80      1.0  0.71710  0.08310  0.95138  1.0000
  H   H1337     1.0  0.50766  0.35050  0.91839  1.0000
  H   H1338     1.0  0.66336  0.03308  0.93021  1.0000
  H   H1339     1.0  0.72520  0.10436  0.74027  1.0000
  Fe  Fe81      1.0  0.71849  0.04351  0.92744  1.0000
  C   C758      1.0  0.68960  0.98734  0.50684  1.0000
  S   S164      1.0  0.70158  0.09902  0.49799  1.0000
  C   C759      1.0  0.66011  0.03860  0.95693  1.0000
  H   H1340     1.0  0.64397  0.03228  0.96043  1.0000
  H   H1341     1.0  0.65818  0.01274  0.48899  1.0000
  H   H1342     1.0  0.68664  0.03919  0.98294  1.0000
  H   H1343     1.0  0.67830  0.05738  0.48858  1.0000
  S   S165      1.0  0.69580  0.50474  0.26214  1.0000
  S   S166      1.0  0.68520  0.52727  0.17328  1.0000
  H   H1344     1.0  0.69617  0.60910  0.02584  1.0000
  S   S167      1.0  0.66981  0.52023  0.34399  1.0000
  Fe  Fe82      1.0  0.64198  0.85802  0.04070  1.0000
  S   S168      1.0  0.61008  0.84825  0.05309  1.0000
  S   S169      1.0  0.65776  0.83646  0.04321  1.0000
  Fe  Fe83      1.0  0.64590  0.90162  0.03074  1.0000
  S   S170      1.0  0.61355  0.89336  0.04142  1.0000
  H   H1345     1.0  0.69084  0.61052  0.45359  1.0000
  Fe  Fe84      1.0  0.61829  0.87563  0.08868  1.0000
  S   S171      1.0  0.60642  0.87785  0.14642  1.0000
  Fe  Fe85      1.0  0.60862  0.86665  0.00462  1.0000
  S   S172      1.0  0.65041  0.88446  0.07879  1.0000
  H   H1346     1.0  0.70317  0.56162  0.13057  1.0000
  Fe  Fe86      1.0  0.59370  0.67389  0.01100  1.0000
  Fe  Fe87      1.0  0.61018  0.69054  0.09008  1.0000
  S   S173      1.0  0.63877  0.71031  0.06655  1.0000
  S   S174      1.0  0.60239  0.69601  0.14964  1.0000
  Fe  Fe88      1.0  0.62096  0.71715  0.02175  1.0000
  H   H1347     1.0  0.61277  0.62429  0.45485  1.0000
  Fe  Fe89      1.0  0.63680  0.68376  0.03126  1.0000
  S   S175      1.0  0.66463  0.67633  0.02859  1.0000
  S   S176      1.0  0.59248  0.69863  0.04660  1.0000
  S   S177      1.0  0.60877  0.66368  0.05684  1.0000
  Fe  Fe90      1.0  0.60574  0.86572  0.44757  1.0000
  H   H1348     1.0  0.59273  0.62190  0.38609  1.0000
  Fe  Fe91      1.0  0.62954  0.87499  0.37500  1.0000
  S   S178      1.0  0.65805  0.88420  0.40802  1.0000
  S   S179      1.0  0.63512  0.87286  0.31281  1.0000
  Fe  Fe92      1.0  0.64281  0.85699  0.44058  1.0000
  S   S180      1.0  0.65687  0.83490  0.45486  1.0000
  Fe  Fe93      1.0  0.64518  0.90041  0.44659  1.0000
  C   C760      1.0  0.68018  0.95589  0.16343  1.0000
  S   S181      1.0  0.61497  0.84736  0.40698  1.0000
  S   S182      1.0  0.61732  0.89265  0.41217  1.0000
  H   H1349     1.0  0.70427  0.89936  0.16485  1.0000
  H   H1350     1.0  0.55448  0.63141  0.20207  1.0000
  Fe  Fe94      1.0  0.59841  0.67248  0.44805  1.0000
  H   H1351     1.0  0.57744  0.64667  0.28248  1.0000
  Fe  Fe95      1.0  0.61906  0.68306  0.37220  1.0000
  S   S183      1.0  0.64368  0.70896  0.39756  1.0000
  S   S184      1.0  0.61863  0.67185  0.31236  1.0000
  Fe  Fe96      1.0  0.64300  0.68882  0.44471  1.0000
  H   H1352     1.0  0.64470  0.82606  0.37729  1.0000
  Fe  Fe97      1.0  0.62011  0.71555  0.42799  1.0000
  S   S185      1.0  0.61182  0.74271  0.42776  1.0000
  S   S186      1.0  0.61990  0.66268  0.41772  1.0000
  S   S187      1.0  0.59554  0.69039  0.40031  1.0000
  H   H1353     1.0  0.58246  0.49298  0.28807  1.0000
  C   C761      1.0  0.57631  0.63369  0.34985  1.0000
  H   H1354     1.0  0.62982  0.76828  0.30486  1.0000
  S   S188      1.0  0.71241  0.53899  0.00586  1.0000
  H   H1355     1.0  0.55548  0.62653  0.27039  1.0000
  C   C762      1.0  0.64402  0.80914  0.44984  1.0000
  S   S189      1.0  0.64079  0.87581  0.99153  1.0000
  C   C763      1.0  0.64464  0.77593  0.44786  1.0000
  C   C764      1.0  0.62464  0.76804  0.43820  1.0000
  C   C765      1.0  0.61436  0.78077  0.43517  1.0000
  C   C766      1.0  0.62395  0.80115  0.44099  1.0000
  H   H1356     1.0  0.68570  0.92457  0.12640  1.0000
  H   H1357     1.0  0.66985  0.58231  0.38959  1.0000
  H   H1358     1.0  0.57193  0.62491  0.40703  1.0000
  H   H1359     1.0  0.66830  0.61791  0.03682  1.0000
  H   H1360     1.0  0.66767  0.56727  0.45162  1.0000
  Fe  Fe98      1.0  0.67579  0.50142  0.21282  1.0000
  H   H1361     1.0  0.67837  0.82867  0.32529  1.0000
  H   H1362     1.0  0.68854  0.92931  0.22976  1.0000
  H   H1363     1.0  0.67987  0.86293  0.34046  1.0000
  C   C767      1.0  0.60900  0.69042  0.19446  1.0000
  C   C768      1.0  0.61653  0.67573  0.20031  1.0000
  C   C769      1.0  0.61972  0.67057  0.23647  1.0000
  C   C770      1.0  0.61591  0.68027  0.26742  1.0000
  C   C771      1.0  0.60910  0.69548  0.26156  1.0000
  C   C772      1.0  0.60545  0.70032  0.22542  1.0000
  H   H1364     1.0  0.61933  0.66791  0.17699  1.0000
  H   H1365     1.0  0.62503  0.65881  0.24048  1.0000
  H   H1366     1.0  0.60630  0.70324  0.28488  1.0000
  H   H1367     1.0  0.59968  0.71173  0.22145  1.0000
  C   C773      1.0  0.53018  0.63955  0.30680  1.0000
  H   H1368     1.0  0.59888  0.77483  0.42790  1.0000
  H   H1369     1.0  0.63533  0.61929  0.09652  1.0000
  H   H1370     1.0  0.70018  0.66855  0.02715  1.0000
  H   H1371     1.0  0.72466  0.65246  0.44956  1.0000
  C   C774      1.0  0.62659  0.87427  0.26693  1.0000
  C   C775      1.0  0.63654  0.86994  0.23725  1.0000
  C   C776      1.0  0.63031  0.87041  0.20044  1.0000
  C   C777      1.0  0.61448  0.87609  0.19251  1.0000
  C   C778      1.0  0.60468  0.88069  0.22217  1.0000
  C   C779      1.0  0.61057  0.87967  0.25907  1.0000
  H   H1372     1.0  0.64918  0.86616  0.24284  1.0000
  H   H1373     1.0  0.63768  0.86625  0.17824  1.0000
  H   H1374     1.0  0.59232  0.88497  0.21657  1.0000
  H   H1375     1.0  0.60274  0.88312  0.28138  1.0000
  C   C780      1.0  0.64621  0.81085  0.03332  1.0000
  C   C781      1.0  0.62700  0.80261  0.01912  1.0000
  C   C782      1.0  0.64465  0.79138  0.34692  1.0000
  C   C783      1.0  0.62930  0.77015  0.01520  1.0000
  C   C784      1.0  0.64822  0.77821  0.03082  1.0000
  C   C785      1.0  0.65665  0.79847  0.03958  1.0000
  C   C786      1.0  0.56529  0.64625  0.20946  1.0000
  H   H1376     1.0  0.63366  0.74070  0.33899  1.0000
  H   H1377     1.0  0.65663  0.76900  0.03489  1.0000
  H   H1378     1.0  0.67150  0.80467  0.05068  1.0000
  H   H1379     1.0  0.71045  0.62352  0.34331  1.0000
  C   C787      1.0  0.69422  0.63550  0.40154  1.0000
  H   H1380     1.0  0.57997  0.81998  0.32035  1.0000
  C   C788      1.0  0.68416  0.52576  0.38550  1.0000
  C   C789      1.0  0.69344  0.51359  0.39895  1.0000
  C   C790      1.0  0.70364  0.51798  0.43320  1.0000
  C   C791      1.0  0.70512  0.53484  0.45396  1.0000
  C   C792      1.0  0.69623  0.54723  0.44002  1.0000
  C   C793      1.0  0.68559  0.54254  0.40631  1.0000
  H   H1381     1.0  0.67437  0.96076  0.10522  1.0000
  H   H1382     1.0  0.57735  0.79461  0.32259  1.0000
  H   H1383     1.0  0.69716  0.56014  0.45579  1.0000
  H   H1384     1.0  0.67822  0.55185  0.39641  1.0000
  C   C794      1.0  0.69337  0.53009  0.12704  1.0000
  C   C795      1.0  0.69161  0.51410  0.10394  1.0000
  C   C796      1.0  0.69757  0.51712  0.06706  1.0000
  C   C797      1.0  0.70542  0.53612  0.05278  1.0000
  C   C798      1.0  0.70751  0.55214  0.07606  1.0000
  C   C799      1.0  0.70145  0.54911  0.11286  1.0000
  H   H1385     1.0  0.69916  0.85718  0.36275  1.0000
  H   H1386     1.0  0.65136  0.91366  0.20532  1.0000
  C   C800      1.0  0.49747  0.63805  0.33213  1.0000
  H   H1387     1.0  0.69222  0.50052  0.38344  1.0000
  C   C801      1.0  0.51793  0.63835  0.34175  1.0000
  H   H1388     1.0  0.51599  0.62461  0.35644  1.0000
  H   H1389     1.0  0.55310  0.68223  0.28410  1.0000
  H   H1390     1.0  0.65275  0.76633  0.45038  1.0000
  H   H1391     1.0  0.67611  0.82334  0.37343  1.0000
  C   C802      1.0  0.64322  0.75616  0.34562  1.0000
  H   H1392     1.0  0.58286  0.62924  0.32571  1.0000
  H   H1393     1.0  0.69807  0.67472  0.41524  1.0000
  C   C803      1.0  0.61700  0.80154  0.33558  1.0000
  H   H1394     1.0  0.48893  0.63653  0.35760  1.0000
  H   H1395     1.0  0.63820  0.97359  0.37487  1.0000
  H   H1396     1.0  0.58116  0.70664  0.32136  1.0000
  H   H1397     1.0  0.68546  0.49939  0.11433  1.0000
  C   C804      1.0  0.68701  0.96362  0.12455  1.0000
  H   H1398     1.0  0.63895  0.62914  0.05081  1.0000
  C   C805      1.0  0.70149  0.61184  0.36187  1.0000
  C   C806      1.0  0.66737  0.92607  0.27151  1.0000
  C   C807      1.0  0.67091  0.65848  0.00350  1.0000
  H   H1399     1.0  0.60402  0.77635  0.99809  1.0000
  H   H1400     1.0  0.65797  0.96954  0.39874  1.0000
  C   C808      1.0  0.56561  0.70219  0.32941  1.0000
  H   H1401     1.0  0.59796  0.59880  0.46074  1.0000
  C   C809      1.0  0.64990  0.82620  0.34868  1.0000
  H   H1402     1.0  0.64380  0.79232  0.37728  1.0000
  H   H1403     1.0  0.68864  0.95044  0.42821  1.0000
  C   C810      1.0  0.70867  0.59457  0.35652  1.0000
  H   H1404     1.0  0.70399  0.65072  0.34964  1.0000
  H   H1405     1.0  0.60719  0.81468  0.28939  1.0000
  H   H1406     1.0  0.48950  0.62546  0.31329  1.0000
  H   H1407     1.0  0.65705  0.75977  0.33029  1.0000
  C   C811      1.0  0.57728  0.62050  0.38130  1.0000
  H   H1408     1.0  0.54880  0.63370  0.36840  1.0000
  H   H1409     1.0  0.56498  0.70269  0.35987  1.0000
  S   S190      1.0  0.65648  0.93018  0.47855  1.0000
  N   N43       1.0  0.70292  0.61982  0.40064  1.0000
  C   C812      1.0  0.63205  0.61562  0.06684  1.0000
  H   H1410     1.0  0.52404  0.62489  0.29264  1.0000
  C   C813      1.0  0.65426  0.79639  0.45367  1.0000
  H   H1411     1.0  0.66152  0.60044  0.40905  1.0000
  H   H1412     1.0  0.59742  0.49199  0.36225  1.0000
  H   H1413     1.0  0.67218  0.55466  0.03489  1.0000
  H   H1414     1.0  0.57772  0.67189  0.32261  1.0000
  H   H1415     1.0  0.65290  0.83832  0.21371  1.0000
  H   H1416     1.0  0.62796  0.94112  0.40495  1.0000
  H   H1417     1.0  0.63468  0.95327  0.44915  1.0000
  C   C814      1.0  0.64276  0.80703  0.28862  1.0000
  S   S191      1.0  0.63293  0.87392  0.48255  1.0000
  N   N44       1.0  0.67093  0.59129  0.05613  1.0000
  H   H1418     1.0  0.69670  0.95654  0.11294  1.0000
  C   C815      1.0  0.69288  0.60104  0.05214  1.0000
  H   H1419     1.0  0.68617  0.60730  0.35085  1.0000
  C   C816      1.0  0.66599  0.57767  0.08839  1.0000
  C   C817      1.0  0.66332  0.58638  0.12616  1.0000
  C   C818      1.0  0.67664  0.93477  0.23533  1.0000
  H   H1420     1.0  0.61431  0.49172  0.30917  1.0000
  H   H1421     1.0  0.68020  0.66379  0.37866  1.0000
  S   S192      1.0  0.67091  0.68699  0.47092  1.0000
  C   C819      1.0  0.66196  0.57205  0.15698  1.0000
  H   H1422     1.0  0.52529  0.65089  0.36102  1.0000
  N   N45       1.0  0.63864  0.80686  0.32922  1.0000
  H   H1423     1.0  0.65768  0.81621  0.21955  1.0000
  H   H1424     1.0  0.66671  0.61565  0.08466  1.0000
  H   H1425     1.0  0.69973  0.58990  0.05030  1.0000
  H   H1426     1.0  0.63010  0.79583  0.27364  1.0000
  H   H1427     1.0  0.65541  0.80246  0.28350  1.0000
  H   H1428     1.0  0.56926  0.66966  0.24815  1.0000
  H   H1429     1.0  0.65206  0.56488  0.08289  1.0000
  H   H1430     1.0  0.67732  0.57108  0.09200  1.0000
  H   H1431     1.0  0.64953  0.58931  0.12594  1.0000
  H   H1432     1.0  0.67547  0.60035  0.13328  1.0000
  H   H1433     1.0  0.64695  0.83847  0.33592  1.0000
  C   C820      1.0  0.65976  0.57708  0.44479  1.0000
  H   H1434     1.0  0.56098  0.71814  0.05786  1.0000
  H   H1435     1.0  0.67857  0.93090  0.29413  1.0000
  H   H1436     1.0  0.69852  0.62700  0.08879  1.0000
  C   C821      1.0  0.67666  0.95485  0.00339  1.0000
  H   H1437     1.0  0.55971  0.71294  0.31830  1.0000
  C   C822      1.0  0.59985  0.49473  0.24063  1.0000
  H   H1438     1.0  0.54415  0.65346  0.23966  1.0000
  H   H1439     1.0  0.67584  0.56932  0.15970  1.0000
  H   H1440     1.0  0.65940  0.57829  0.18349  1.0000
  H   H1441     1.0  0.64964  0.55783  0.15146  1.0000
  H   H1442     1.0  0.67890  0.62964  0.39042  1.0000
  H   H1443     1.0  0.61292  0.91579  0.11149  1.0000
  H   H1444     1.0  0.56832  0.60491  0.37448  1.0000
  C   C823      1.0  0.64773  0.82683  0.26884  1.0000
  H   H1445     1.0  0.60827  0.78692  0.32314  1.0000
  C   C824      1.0  0.55929  0.65412  0.24451  1.0000
  H   H1446     1.0  0.66977  0.80239  0.46067  1.0000
  H   H1447     1.0  0.54648  0.61607  0.33264  1.0000
  H   H1448     1.0  0.58235  0.90616  0.44005  1.0000
  N   N46       1.0  0.66896  0.93409  0.16553  1.0000
  C   C825      1.0  0.65190  0.92726  0.13833  1.0000
  C   C826      1.0  0.68271  0.92371  0.15639  1.0000
  C   C827      1.0  0.66102  0.92944  0.20367  1.0000
  H   H1449     1.0  0.58709  0.49606  0.42506  1.0000
  H   H1450     1.0  0.70895  0.57322  0.31488  1.0000
  C   C828      1.0  0.63742  0.93821  0.14030  1.0000
  H   H1451     1.0  0.56074  0.66663  0.35870  1.0000
  H   H1452     1.0  0.70022  0.97120  0.04097  1.0000
  H   H1453     1.0  0.64818  0.64463  0.46540  1.0000
  H   H1454     1.0  0.72085  0.62997  0.47277  1.0000
  C   C829      1.0  0.62214  0.93157  0.10904  1.0000
  C   C830      1.0  0.66210  0.64690  0.47885  1.0000
  H   H1455     1.0  0.69735  0.93114  0.17006  1.0000
  H   H1456     1.0  0.65720  0.92801  0.10969  1.0000
  S   S193      1.0  0.57134  0.64931  0.47289  1.0000
  C   C831      1.0  0.63960  0.59973  0.05461  1.0000
  H   H1457     1.0  0.60579  0.48543  0.22403  1.0000
  H   H1458     1.0  0.65125  0.93749  0.21021  1.0000
  S   S194      1.0  0.57609  0.85532  0.47637  1.0000
  H   H1459     1.0  0.68337  0.95094  0.23934  1.0000
  C   C832      1.0  0.70440  0.61534  0.08347  1.0000
  C   C833      1.0  0.62956  0.95467  0.42087  1.0000
  H   H1460     1.0  0.62937  0.93515  0.16646  1.0000
  H   H1461     1.0  0.64506  0.95427  0.13808  1.0000
  C   C834      1.0  0.69279  0.97160  0.01534  1.0000
  H   H1462     1.0  0.66168  0.90980  0.26965  1.0000
  C   C835      1.0  0.58638  0.80977  0.33216  1.0000
  H   H1463     1.0  0.64678  0.57104  0.02339  1.0000
  H   H1464     1.0  0.68371  0.87641  0.15897  1.0000
  H   H1465     1.0  0.71396  0.56682  0.06579  1.0000
  S   S195      1.0  0.62152  0.69782  0.47740  1.0000
  C   C836      1.0  0.56709  0.73272  0.04496  1.0000
  H   H1466     1.0  0.71035  0.50822  0.44380  1.0000
  H   H1467     1.0  0.61239  0.94006  0.11032  1.0000
  H   H1468     1.0  0.64509  0.54165  0.98811  1.0000
  C   C837      1.0  0.55341  0.68163  0.31436  1.0000
  H   H1469     1.0  0.69953  0.59389  0.43235  1.0000
  H   H1470     1.0  0.52698  0.64963  0.28769  1.0000
  N   N47       1.0  0.60336  0.75898  0.12621  1.0000
  C   C838      1.0  0.61175  0.77984  0.11345  1.0000
  C   C839      1.0  0.59434  0.74562  0.09354  1.0000
  C   C840      1.0  0.58827  0.75737  0.15494  1.0000
  C   C841      1.0  0.61913  0.75292  0.14307  1.0000
  C   C842      1.0  0.63791  0.75709  0.12033  1.0000
  C   C843      1.0  0.62210  0.79560  0.14357  1.0000
  C   C844      1.0  0.57558  0.73620  0.16635  1.0000
  C   C845      1.0  0.57681  0.74877  0.07399  1.0000
  H   H1471     1.0  0.67454  0.89975  0.19626  1.0000
  C   C846      1.0  0.65208  0.74922  0.13946  1.0000
  C   C847      1.0  0.63267  0.81562  0.12678  1.0000
  C   C848      1.0  0.56208  0.73642  0.19777  1.0000
  H   H1472     1.0  0.59998  0.78421  0.10151  1.0000
  H   H1473     1.0  0.62202  0.78124  0.09056  1.0000
  H   H1474     1.0  0.60545  0.74745  0.07218  1.0000
  H   H1475     1.0  0.58972  0.72995  0.10127  1.0000
  H   H1476     1.0  0.57821  0.76474  0.14593  1.0000
  H   H1477     1.0  0.59558  0.76548  0.18050  1.0000
  H   H1478     1.0  0.62374  0.75981  0.17081  1.0000
  H   H1479     1.0  0.61321  0.73692  0.14795  1.0000
  H   H1480     1.0  0.64584  0.77307  0.11690  1.0000
  H   H1481     1.0  0.63431  0.74992  0.09275  1.0000
  H   H1482     1.0  0.61107  0.79709  0.16272  1.0000
  H   H1483     1.0  0.63315  0.79187  0.15958  1.0000
  H   H1484     1.0  0.58490  0.72819  0.17573  1.0000
  H   H1485     1.0  0.56615  0.72775  0.14305  1.0000
  H   H1486     1.0  0.56533  0.74866  0.09349  1.0000
  H   H1487     1.0  0.58194  0.76297  0.05968  1.0000
  H   H1488     1.0  0.61211  0.50831  0.24997  1.0000
  H   H1489     1.0  0.63509  0.59605  0.02529  1.0000
  H   H1490     1.0  0.58001  0.64544  0.21307  1.0000
  H   H1491     1.0  0.64497  0.73313  0.14325  1.0000
  H   H1492     1.0  0.66521  0.75200  0.12234  1.0000
  H   H1493     1.0  0.65693  0.75660  0.16669  1.0000
  H   H1494     1.0  0.62282  0.81941  0.10742  1.0000
  H   H1495     1.0  0.63771  0.82720  0.14863  1.0000
  H   H1496     1.0  0.64574  0.81557  0.11192  1.0000
  H   H1497     1.0  0.55210  0.74397  0.18948  1.0000
  H   H1498     1.0  0.55302  0.72111  0.20496  1.0000
  H   H1499     1.0  0.57084  0.74395  0.22252  1.0000
  C   C849      1.0  0.66286  0.57926  0.02137  1.0000
  C   C850      1.0  0.69613  0.66971  0.38599  1.0000
  C   C851      1.0  0.67551  0.90172  0.16611  1.0000
  H   H1500     1.0  0.69599  0.50462  0.04940  1.0000
  C   C852      1.0  0.60758  0.81553  0.31986  1.0000
  H   H1501     1.0  0.49851  0.65193  0.31893  1.0000
  H   H1502     1.0  0.61497  0.95594  0.42218  1.0000
  H   H1503     1.0  0.67152  0.96419  0.17494  1.0000
  H   H1504     1.0  0.58545  0.64903  0.35795  1.0000
  C   C853      1.0  0.68307  0.85359  0.36136  1.0000
  C   C854      1.0  0.67247  0.83187  0.35144  1.0000
  H   H1505     1.0  0.66254  0.83726  0.27749  1.0000
  H   H1506     1.0  0.61580  0.81068  0.43847  1.0000
  H   H1507     1.0  0.64297  0.91148  0.14205  1.0000
  Fe  Fe99      1.0  0.66940  0.49905  0.29683  1.0000
  C   C855      1.0  0.56132  0.64242  0.27834  1.0000
  H   H1508     1.0  0.64670  0.75742  0.37556  1.0000
  H   H1509     1.0  0.63235  0.58644  0.07091  1.0000
  C   C856      1.0  0.63260  0.76978  0.33498  1.0000
  H   H1510     1.0  0.67841  0.85694  0.38868  1.0000
  H   H1511     1.0  0.61558  0.83089  0.32913  1.0000
  C   C857      1.0  0.67020  0.59122  0.41467  1.0000
  C   C858      1.0  0.68982  0.65800  0.00850  1.0000
  C   C859      1.0  0.68874  0.96060  0.45011  1.0000
  H   H1512     1.0  0.61417  0.80026  0.36560  1.0000
  H   H1513     1.0  0.63720  0.83395  0.27499  1.0000
  H   H1514     1.0  0.57789  0.73252  0.02411  1.0000
  H   H1515     1.0  0.65513  0.93089  0.27839  1.0000
  H   H1516     1.0  0.70406  0.60713  0.10890  1.0000
  C   C860      1.0  0.55482  0.63161  0.34143  1.0000
  N   N48       1.0  0.55199  0.64544  0.31347  1.0000
  H   H1517     1.0  0.72086  0.66097  0.38767  1.0000
  H   H1518     1.0  0.61826  0.76452  0.34899  1.0000
  H   H1519     1.0  0.56591  0.65619  0.18638  1.0000
  H   H1520     1.0  0.58582  0.81072  0.36259  1.0000
  H   H1521     1.0  0.63262  0.81527  0.21692  1.0000
  C   C861      1.0  0.68944  0.89218  0.15198  1.0000
  C   C862      1.0  0.64774  0.82389  0.22721  1.0000
  C   C863      1.0  0.66227  0.60698  0.05863  1.0000
  H   H1522     1.0  0.53821  0.67814  0.32382  1.0000
  C   C864      1.0  0.56170  0.66626  0.32822  1.0000
  H   H1523     1.0  0.64463  0.56787  0.43531  1.0000
  H   H1524     1.0  0.61870  0.81188  0.01456  1.0000
  H   H1525     1.0  0.66031  0.79408  0.34143  1.0000
  S   S196      1.0  0.61878  0.74533  0.99921  1.0000
  H   H1526     1.0  0.61590  0.61036  0.06221  1.0000
  H   H1527     1.0  0.69058  0.89322  0.12163  1.0000
  H   H1528     1.0  0.69294  0.64008  0.43036  1.0000
  C   C865      1.0  0.70512  0.65422  0.37954  1.0000
  C   C866      1.0  0.64433  0.97252  0.40240  1.0000
  C   C867      1.0  0.69164  0.60392  0.42653  1.0000
  H   H1529     1.0  0.66469  0.58903  0.99746  1.0000
  H   H1530     1.0  0.66084  0.89368  0.15374  1.0000
  C   C868      1.0  0.67487  0.95443  0.47778  1.0000
  H   H1531     1.0  0.68716  0.57120  0.00160  1.0000
  H   H1532     1.0  0.68723  0.57906  0.31361  1.0000
  H   H1533     1.0  0.62937  0.93398  0.08198  1.0000
  H   H1534     1.0  0.55493  0.73556  0.03081  1.0000
  C   C869      1.0  0.70342  0.58534  0.31802  1.0000
  H   H1535     1.0  0.71014  0.64410  0.99346  1.0000
  H   H1536     1.0  0.70207  0.58279  0.37634  1.0000
  S   S197      1.0  0.64954  0.49728  0.24792  1.0000
  C   C870      1.0  0.61871  0.78244  0.00976  1.0000
  H   H1537     1.0  0.69366  0.96032  0.18121  1.0000
  C   C871      1.0  0.67192  0.56384  0.01112  1.0000
  S   S198      1.0  0.66845  0.93374  0.03207  1.0000
  C   C872      1.0  0.67587  0.66598  0.48404  1.0000
  H   H1538     1.0  0.58970  0.49890  0.22277  1.0000
  H   H1539     1.0  0.56769  0.89159  0.47593  1.0000
  C   C873      1.0  0.57871  0.90624  0.46954  1.0000
  H   H1540     1.0  0.64920  0.96963  0.06316  1.0000
  H   H1541     1.0  0.70352  0.68263  0.36880  1.0000
  H   H1542     1.0  0.58778  0.61721  0.47023  1.0000
  H   H1543     1.0  0.64795  0.97482  0.01500  1.0000
  C   C874      1.0  0.69551  0.64411  0.98945  1.0000
  H   H1544     1.0  0.71015  0.59637  0.29676  1.0000
  H   H1545     1.0  0.65882  0.58528  0.47010  1.0000
  H   H1546     1.0  0.55587  0.69486  0.99687  1.0000
  H   H1547     1.0  0.56257  0.48852  0.40497  1.0000
  H   H1548     1.0  0.62339  0.48650  0.38254  1.0000
  H   H1549     1.0  0.57223  0.91753  0.47425  1.0000
  H   H1550     1.0  0.62596  0.96661  0.04142  1.0000
  C   C875      1.0  0.60135  0.61387  0.47197  1.0000
  H   H1551     1.0  0.72488  0.59988  0.36020  1.0000
  C   C876      1.0  0.72422  0.62791  0.41295  1.0000
  C   C877      1.0  0.70305  0.97989  0.45110  1.0000
  C   C878      1.0  0.64189  0.97573  0.04243  1.0000
  H   H1552     1.0  0.63603  0.48387  0.34200  1.0000
  C   C879      1.0  0.58880  0.48343  0.27344  1.0000
  C   C880      1.0  0.57334  0.48330  0.41857  1.0000
  Fe  Fe100     1.0  0.49788  0.65544  0.70783  1.0000
  S   S199      1.0  0.52963  0.65915  0.70952  1.0000
  H   H1553     1.0  0.56068  0.75380  0.59974  1.0000
  S   S200      1.0  0.51437  0.61255  0.72993  1.0000
  Fe  Fe101     1.0  0.52266  0.64137  0.76111  1.0000
  S   S201      1.0  0.54753  0.65092  0.80520  1.0000
  Fe  Fe102     1.0  0.51972  0.63051  0.67823  1.0000
  S   S202      1.0  0.53978  0.62561  0.63435  1.0000
  S   S203      1.0  0.51926  0.84343  0.71339  1.0000
  Fe  Fe103     1.0  0.51809  0.79223  0.73922  1.0000
  S   S204      1.0  0.54562  0.81912  0.74211  1.0000
  S   S205      1.0  0.52104  0.76489  0.76178  1.0000
  Fe  Fe104     1.0  0.52728  0.83393  0.76816  1.0000
  S   S206      1.0  0.53884  0.85638  0.81559  1.0000
  Fe  Fe105     1.0  0.53601  0.82654  0.68708  1.0000
  S   S207      1.0  0.56195  0.83745  0.64778  1.0000
  S   S208      1.0  0.49997  0.80649  0.76896  1.0000
  S   S209      1.0  0.50958  0.79831  0.68253  1.0000
  H   H1554     1.0  0.63839  0.97847  0.56266  1.0000
  H   H1555     1.0  0.58700  0.78243  0.89777  1.0000
  H   H1556     1.0  0.65506  0.94303  0.96011  1.0000
  C   C881      1.0  0.65439  0.63721  0.78414  1.0000
  S   S210      1.0  0.70402  0.56981  0.92469  1.0000
  S   S211      1.0  0.68837  0.61228  0.94069  1.0000
  H   H1557     1.0  0.64558  0.63195  0.62540  1.0000
  C   C882      1.0  0.70413  0.62295  0.83898  1.0000
  H   H1558     1.0  0.67680  0.86404  0.77097  1.0000
  C   C883      1.0  0.49342  0.57378  0.87637  1.0000
  H   H1559     1.0  0.70200  0.58803  0.80956  1.0000
  H   H1560     1.0  0.61686  0.86726  0.91171  1.0000
  C   C884      1.0  0.67663  0.58140  0.84384  1.0000
  C   C885      1.0  0.52898  0.59591  0.82801  1.0000
  H   H1561     1.0  0.52804  0.61058  0.82875  1.0000
  H   H1562     1.0  0.58404  0.63159  0.60750  1.0000
  H   H1563     1.0  0.64156  0.62402  0.77524  1.0000
  H   H1564     1.0  0.55938  0.60865  0.81200  1.0000
  H   H1565     1.0  0.54179  0.70596  0.97079  1.0000
  C   C886      1.0  0.63676  0.84602  0.88508  1.0000
  S   S212      1.0  0.70753  0.57696  0.57319  1.0000
  H   H1566     1.0  0.51444  0.59785  0.95947  1.0000
  H   H1567     1.0  0.56887  0.71525  0.76742  1.0000
  H   H1568     1.0  0.54005  0.61703  0.50123  1.0000
  H   H1569     1.0  0.48809  0.91818  0.83135  1.0000
  S   S213      1.0  0.58590  0.84848  0.96071  1.0000
  C   C887      1.0  0.61195  0.86276  0.80564  1.0000
  H   H1570     1.0  0.59944  0.63928  0.52592  1.0000
  H   H1571     1.0  0.63876  0.83533  0.86514  1.0000
  H   H1572     1.0  0.52587  0.77705  0.62123  1.0000
  H   H1573     1.0  0.57200  0.80341  0.63218  1.0000
  Fe  Fe106     1.0  0.49310  0.81466  0.71250  1.0000
  H   H1574     1.0  0.51620  0.60279  0.89303  1.0000
  C   C888      1.0  0.52918  0.74396  0.60761  1.0000
  H   H1575     1.0  0.60613  0.82843  0.89981  1.0000
  H   H1576     1.0  0.70349  0.63165  0.69841  1.0000
  H   H1577     1.0  0.64065  0.72162  0.91875  1.0000
  H   H1578     1.0  0.65301  0.62036  0.94150  1.0000
  H   H1579     1.0  0.48758  0.60081  0.80260  1.0000
  H   H1580     1.0  0.51951  0.57837  0.93672  1.0000
  Fe  Fe107     1.0  0.72529  0.56842  0.53059  1.0000
  C   C889      1.0  0.66617  0.63078  0.49194  1.0000
  C   C890      1.0  0.50342  0.78424  0.57152  1.0000
  S   S214      1.0  0.48797  0.62746  0.67349  1.0000
  H   H1581     1.0  0.66753  0.53979  0.97244  1.0000
  C   C891      1.0  0.52797  0.72273  0.60578  1.0000
  H   H1582     1.0  0.48188  0.89137  0.71167  1.0000
  C   C892      1.0  0.52338  0.78313  0.56372  1.0000
  H   H1583     1.0  0.56374  0.78387  0.72619  1.0000
  H   H1584     1.0  0.52100  0.76899  0.54927  1.0000
  C   C893      1.0  0.55234  0.85407  0.85532  1.0000
  C   C894      1.0  0.55383  0.83623  0.86456  1.0000
  C   C895      1.0  0.56417  0.83490  0.89681  1.0000
  C   C896      1.0  0.57344  0.85139  0.92004  1.0000
  C   C897      1.0  0.57223  0.86931  0.91051  1.0000
  C   C898      1.0  0.56168  0.87059  0.87847  1.0000
  H   H1585     1.0  0.54674  0.82337  0.84717  1.0000
  H   H1586     1.0  0.56489  0.82093  0.90393  1.0000
  H   H1587     1.0  0.57896  0.88205  0.92828  1.0000
  H   H1588     1.0  0.56060  0.88445  0.87173  1.0000
  C   C899      1.0  0.56518  0.84196  0.59985  1.0000
  C   C900      1.0  0.58401  0.84644  0.58545  1.0000
  C   C901      1.0  0.58749  0.85020  0.54778  1.0000
  C   C902      1.0  0.57223  0.84984  0.52392  1.0000
  C   C903      1.0  0.55334  0.84516  0.53825  1.0000
  C   C904      1.0  0.54979  0.84118  0.57592  1.0000
  H   H1589     1.0  0.59603  0.84694  0.60355  1.0000
  H   H1590     1.0  0.60202  0.85339  0.53724  1.0000
  H   H1591     1.0  0.54137  0.84472  0.52008  1.0000
  H   H1592     1.0  0.53520  0.83771  0.58644  1.0000
  H   H1593     1.0  0.54032  0.80100  0.60885  1.0000
  C   C905      1.0  0.50757  0.70689  0.74238  1.0000
  C   C906      1.0  0.51463  0.72587  0.75829  1.0000
  C   C907      1.0  0.51252  0.74160  0.73978  1.0000
  H   H1594     1.0  0.66345  0.58519  0.84730  1.0000
  H   H1595     1.0  0.54410  0.70992  0.78274  1.0000
  H   H1596     1.0  0.50907  0.69479  0.75701  1.0000
  H   H1597     1.0  0.48431  0.85677  0.66588  1.0000
  C   C908      1.0  0.55186  0.65214  0.85376  1.0000
  C   C909      1.0  0.53668  0.64603  0.87902  1.0000
  C   C910      1.0  0.54106  0.64701  0.91714  1.0000
  C   C911      1.0  0.56061  0.65464  0.93065  1.0000
  C   C912      1.0  0.57575  0.66111  0.90540  1.0000
  C   C913      1.0  0.57138  0.65967  0.86729  1.0000
  H   H1598     1.0  0.52161  0.64057  0.86924  1.0000
  H   H1599     1.0  0.52921  0.64202  0.93637  1.0000
  H   H1600     1.0  0.59085  0.66691  0.91523  1.0000
  H   H1601     1.0  0.58326  0.66441  0.84809  1.0000
  C   C914      1.0  0.54563  0.63517  0.58934  1.0000
  C   C915      1.0  0.56105  0.65325  0.58348  1.0000
  C   C916      1.0  0.56892  0.65824  0.54794  1.0000
  C   C917      1.0  0.56151  0.64512  0.51800  1.0000
  C   C918      1.0  0.54590  0.62735  0.52391  1.0000
  C   C919      1.0  0.53821  0.62236  0.55913  1.0000
  H   H1602     1.0  0.56747  0.66302  0.60669  1.0000
  H   H1603     1.0  0.58092  0.67203  0.54388  1.0000
  C   C920      1.0  0.62112  0.83371  0.91234  1.0000
  H   H1604     1.0  0.52689  0.60811  0.56322  1.0000
  C   C921      1.0  0.67112  0.87328  0.78824  1.0000
  H   H1605     1.0  0.49273  0.88639  0.82662  1.0000
  N   N49       1.0  0.60999  0.91688  0.56086  1.0000
  C   C922      1.0  0.60263  0.91608  0.59950  1.0000
  C   C923      1.0  0.62281  0.93783  0.55311  1.0000
  C   C924      1.0  0.59254  0.90932  0.53467  1.0000
  C   C925      1.0  0.62205  0.90430  0.55616  1.0000
  C   C926      1.0  0.63967  0.90862  0.58346  1.0000
  C   C927      1.0  0.59147  0.89526  0.61439  1.0000
  H   H1606     1.0  0.48905  0.77098  0.81953  1.0000
  C   C928      1.0  0.61220  0.95251  0.54977  1.0000
  C   C929      1.0  0.68229  0.63042  0.96516  1.0000
  C   C930      1.0  0.65061  0.89488  0.57600  1.0000
  C   C931      1.0  0.58471  0.89637  0.65357  1.0000
  C   C932      1.0  0.56916  0.70756  0.94581  1.0000
  H   H1607     1.0  0.59244  0.92409  0.60150  1.0000
  H   H1608     1.0  0.61494  0.92393  0.61912  1.0000
  H   H1609     1.0  0.63427  0.94385  0.57511  1.0000
  H   H1610     1.0  0.63118  0.93858  0.52765  1.0000
  H   H1611     1.0  0.58203  0.91668  0.54025  1.0000
  H   H1612     1.0  0.58405  0.89348  0.53911  1.0000
  H   H1613     1.0  0.61265  0.88851  0.55751  1.0000
  H   H1614     1.0  0.62825  0.90602  0.52822  1.0000
  H   H1615     1.0  0.63478  0.90659  0.61228  1.0000
  H   H1616     1.0  0.65037  0.92383  0.58065  1.0000
  H   H1617     1.0  0.57821  0.88718  0.59726  1.0000
  H   H1618     1.0  0.60094  0.88650  0.61508  1.0000
  H   H1619     1.0  0.63373  0.97270  0.51408  1.0000
  C   C933      1.0  0.67349  0.63368  0.77937  1.0000
  H   H1620     1.0  0.60087  0.94802  0.52745  1.0000
  H   H1621     1.0  0.60508  0.95363  0.57592  1.0000
  H   H1622     1.0  0.71232  0.65473  0.52664  1.0000
  H   H1623     1.0  0.61456  0.89888  0.93366  1.0000
  H   H1624     1.0  0.72024  0.56031  0.69466  1.0000
  H   H1625     1.0  0.64055  0.87930  0.57775  1.0000
  H   H1626     1.0  0.59750  0.90375  0.67235  1.0000
  H   H1627     1.0  0.57456  0.90443  0.65446  1.0000
  H   H1628     1.0  0.57677  0.88131  0.66351  1.0000
  H   H1629     1.0  0.65224  0.65788  0.61931  1.0000
  C   C934      1.0  0.54552  0.59691  0.80213  1.0000
  S   S215      1.0  0.56533  0.65548  0.97905  1.0000
  H   H1630     1.0  0.55156  0.69032  0.76787  1.0000
  H   H1631     1.0  0.51192  0.56589  0.81693  1.0000
  C   C935      1.0  0.54835  0.75805  0.59013  1.0000
  H   H1632     1.0  0.65094  0.85261  0.90088  1.0000
  H   H1633     1.0  0.68162  0.65892  0.58444  1.0000
  H   H1634     1.0  0.63488  0.71974  0.87020  1.0000
  N   N50       1.0  0.57839  0.72272  0.88140  1.0000
  C   C936      1.0  0.58495  0.74354  0.89637  1.0000
  C   C937      1.0  0.59589  0.71675  0.87638  1.0000
  C   C938      1.0  0.56910  0.72226  0.84384  1.0000
  C   C939      1.0  0.56322  0.70843  0.90509  1.0000
  H   H1635     1.0  0.50252  0.89248  0.78114  1.0000
  C   C940      1.0  0.56844  0.75158  0.90326  1.0000
  C   C941      1.0  0.56291  0.70252  0.82181  1.0000
  C   C942      1.0  0.61305  0.72460  0.90497  1.0000
  C   C943      1.0  0.62859  0.71579  0.89784  1.0000
  H   H1636     1.0  0.62189  0.61145  0.51222  1.0000
  H   H1637     1.0  0.52793  0.74774  0.63670  1.0000
  C   C944      1.0  0.55649  0.70475  0.78259  1.0000
  H   H1638     1.0  0.59564  0.75364  0.87740  1.0000
  H   H1639     1.0  0.59314  0.74534  0.92291  1.0000
  H   H1640     1.0  0.59105  0.70049  0.87550  1.0000
  H   H1641     1.0  0.60277  0.72172  0.84937  1.0000
  H   H1642     1.0  0.57924  0.73396  0.82654  1.0000
  H   H1643     1.0  0.55547  0.72545  0.84584  1.0000
  H   H1644     1.0  0.54933  0.71125  0.90401  1.0000
  H   H1645     1.0  0.55906  0.69320  0.89394  1.0000
  C   C945      1.0  0.65751  0.86067  0.81711  1.0000
  H   H1646     1.0  0.70011  0.59341  0.73643  1.0000
  H   H1647     1.0  0.56013  0.75166  0.87765  1.0000
  H   H1648     1.0  0.55808  0.74269  0.92388  1.0000
  H   H1649     1.0  0.55027  0.69120  0.83491  1.0000
  H   H1650     1.0  0.57500  0.69696  0.81986  1.0000
  H   H1651     1.0  0.62045  0.74077  0.90326  1.0000
  H   H1652     1.0  0.60791  0.72104  0.93324  1.0000
  H   H1653     1.0  0.54233  0.68246  0.95645  1.0000
  H   H1654     1.0  0.65713  0.89746  0.54829  1.0000
  H   H1655     1.0  0.58493  0.77413  0.56061  1.0000
  C   C946      1.0  0.69729  0.60727  0.73591  1.0000
  H   H1656     1.0  0.57956  0.78306  0.62920  1.0000
  C   C947      1.0  0.66992  0.55905  0.84168  1.0000
  H   H1657     1.0  0.66271  0.89776  0.59663  1.0000
  C   C948      1.0  0.49592  0.71925  0.68944  1.0000
  C   C949      1.0  0.67341  0.61579  0.80171  1.0000
  C   C950      1.0  0.57693  0.77274  0.91794  1.0000
  H   H1658     1.0  0.55415  0.76338  0.66968  1.0000
  H   H1659     1.0  0.52161  0.72834  0.78526  1.0000
  H   H1660     1.0  0.47940  0.84213  0.86431  1.0000
  C   C951      1.0  0.53578  0.78540  0.59958  1.0000
  H   H1661     1.0  0.54668  0.75422  0.56020  1.0000
  S   S216      1.0  0.62156  0.69256  0.98417  1.0000
  H   H1662     1.0  0.62324  0.86278  0.78572  1.0000
  H   H1663     1.0  0.62512  0.80607  0.90148  1.0000
  H   H1664     1.0  0.63436  0.90133  0.85906  1.0000
  N   N51       1.0  0.55357  0.77985  0.59642  1.0000
  H   H1665     1.0  0.66779  0.61701  0.82958  1.0000
  H   H1666     1.0  0.55690  0.78503  0.53792  1.0000
  H   H1667     1.0  0.68274  0.55458  0.83872  1.0000
  H   H1668     1.0  0.54774  0.58276  0.80129  1.0000
  H   H1669     1.0  0.66602  0.85367  0.83328  1.0000
  C   C952      1.0  0.55698  0.77925  0.66778  1.0000
  S   S217      1.0  0.71771  0.53963  0.49742  1.0000
  S   S218      1.0  0.49142  0.63994  0.76171  1.0000
  H   H1670     1.0  0.68578  0.64736  0.78755  1.0000
  H   H1671     1.0  0.54317  0.78176  0.67192  1.0000
  C   C953      1.0  0.56637  0.78706  0.63054  1.0000
  C   C954      1.0  0.58574  0.78950  0.55929  1.0000
  C   C955      1.0  0.57088  0.78953  0.69982  1.0000
  H   H1672     1.0  0.57439  0.80560  0.69947  1.0000
  C   C956      1.0  0.59442  0.79772  0.52238  1.0000
  C   C957      1.0  0.68425  0.63341  0.50946  1.0000
  H   H1673     1.0  0.51384  0.71288  0.61717  1.0000
  C   C958      1.0  0.66032  0.55023  0.97974  1.0000
  C   C959      1.0  0.49808  0.70349  0.70801  1.0000
  C   C960      1.0  0.48758  0.59721  0.83224  1.0000
  H   H1674     1.0  0.69536  0.61792  0.86398  1.0000
  C   C961      1.0  0.56521  0.79064  0.56417  1.0000
  H   H1675     1.0  0.58471  0.78670  0.69835  1.0000
  N   N52       1.0  0.49130  0.57847  0.83659  1.0000
  H   H1676     1.0  0.68381  0.88514  0.80166  1.0000
  H   H1677     1.0  0.59615  0.79843  0.58103  1.0000
  H   H1678     1.0  0.53108  0.79524  0.54490  1.0000
  H   H1679     1.0  0.67937  0.58243  0.78518  1.0000
  C   C962      1.0  0.50328  0.73832  0.70513  1.0000
  H   H1680     1.0  0.66181  0.60277  0.78841  1.0000
  H   H1681     1.0  0.56487  0.77813  0.92284  1.0000
  C   C963      1.0  0.70536  0.61928  0.77203  1.0000
  H   H1682     1.0  0.66249  0.88155  0.86205  1.0000
  N   N53       1.0  0.69258  0.61261  0.80510  1.0000
  H   H1683     1.0  0.61240  0.83709  0.83235  1.0000
  H   H1684     1.0  0.67486  0.63103  0.74963  1.0000
  H   H1685     1.0  0.56740  0.80648  0.56602  1.0000
  H   H1686     1.0  0.50162  0.75038  0.69069  1.0000
  H   H1687     1.0  0.48630  0.54097  0.79770  1.0000
  H   H1688     1.0  0.51615  0.74454  0.59256  1.0000
  H   H1689     1.0  0.61981  0.91855  0.90156  1.0000
  H   H1690     1.0  0.58006  0.85301  0.80421  1.0000
  S   S219      1.0  0.68790  0.61255  0.52749  1.0000
  H   H1691     1.0  0.71397  0.54791  0.75826  1.0000
  H   H1692     1.0  0.48939  0.88132  0.65038  1.0000
  H   H1693     1.0  0.72006  0.61860  0.77759  1.0000
  H   H1694     1.0  0.65997  0.55883  0.95507  1.0000
  C   C964      1.0  0.62676  0.97298  0.54087  1.0000
  H   H1695     1.0  0.49535  0.78369  0.54522  1.0000
  H   H1696     1.0  0.69785  0.64977  0.84395  1.0000
  C   C965      1.0  0.50928  0.57980  0.81536  1.0000
  C   C966      1.0  0.67386  0.64651  0.60257  1.0000
  H   H1697     1.0  0.65055  0.65069  0.54884  1.0000
  H   H1698     1.0  0.64246  0.88142  0.91191  1.0000
  H   H1699     1.0  0.63236  0.69703  0.60847  1.0000
  H   H1700     1.0  0.68612  0.58638  0.86882  1.0000
  H   H1701     1.0  0.49405  0.83034  0.84235  1.0000
  H   H1702     1.0  0.60884  0.88711  0.86782  1.0000
  H   H1703     1.0  0.66306  0.87990  0.77009  1.0000
  C   C967      1.0  0.62397  0.89268  0.87977  1.0000
  C   C968      1.0  0.69412  0.66857  0.50080  1.0000
  C   C969      1.0  0.59732  0.91080  0.49320  1.0000
  H   H1704     1.0  0.58501  0.77366  0.94433  1.0000
  H   H1705     1.0  0.57895  0.69914  0.94781  1.0000
  H   H1706     1.0  0.54008  0.72108  0.62235  1.0000
  H   H1707     1.0  0.62364  0.64655  0.51046  1.0000
  H   H1708     1.0  0.71909  0.65254  0.81647  1.0000
  C   C970      1.0  0.60859  0.61520  0.51184  1.0000
  H   H1709     1.0  0.49966  0.60991  0.84469  1.0000
  Fe  Fe108     1.0  0.71407  0.60158  0.94266  1.0000
  C   C971      1.0  0.48053  0.83371  0.83942  1.0000
  Fe  Fe109     1.0  0.48320  0.61173  0.72751  1.0000
  C   C972      1.0  0.65240  0.64418  0.60642  1.0000
  H   H1710     1.0  0.53342  0.59256  0.85555  1.0000
  H   H1711     1.0  0.64733  0.88455  0.82669  1.0000
  C   C973      1.0  0.69836  0.65241  0.51320  1.0000
  C   C974      1.0  0.70735  0.61854  0.70224  1.0000
  C   C975      1.0  0.59200  0.85243  0.78651  1.0000
  C   C976      1.0  0.62535  0.81591  0.92509  1.0000
  H   H1712     1.0  0.70497  0.68326  0.50472  1.0000
  H   H1713     1.0  0.59128  0.85987  0.76049  1.0000
  C   C977      1.0  0.62914  0.87535  0.89367  1.0000
  H   H1714     1.0  0.59566  0.81321  0.51996  1.0000
  H   H1715     1.0  0.50528  0.79819  0.58638  1.0000
  H   H1716     1.0  0.64993  0.67943  0.57293  1.0000
  C   C978      1.0  0.49809  0.91578  0.81084  1.0000
  H   H1717     1.0  0.70851  0.63494  0.76649  1.0000
  H   H1718     1.0  0.64521  0.84883  0.80280  1.0000
  H   H1719     1.0  0.50684  0.58185  0.78566  1.0000
  H   H1720     1.0  0.54224  0.60055  0.77394  1.0000
  C   C979      1.0  0.66339  0.63087  0.96017  1.0000
  H   H1721     1.0  0.66494  0.96349  0.52780  1.0000
  H   H1722     1.0  0.61373  0.87818  0.81113  1.0000
  H   H1723     1.0  0.50487  0.87711  0.68549  1.0000
  H   H1724     1.0  0.62136  0.84256  0.93741  1.0000
  H   H1725     1.0  0.55904  0.59815  0.61267  1.0000
  C   C980      1.0  0.68814  0.59092  0.80922  1.0000
  C   C981      1.0  0.63454  0.67713  0.56513  1.0000
  H   H1726     1.0  0.61575  0.69411  0.56953  1.0000
  H   H1727     1.0  0.58009  0.60156  0.64196  1.0000
  H   H1728     1.0  0.60052  0.84995  0.85779  1.0000
  H   H1729     1.0  0.72355  0.62325  0.70520  1.0000
  C   C982      1.0  0.57489  0.60046  0.61291  1.0000
  H   H1730     1.0  0.58955  0.83687  0.77992  1.0000
  H   H1731     1.0  0.61391  0.80753  0.94452  1.0000
  H   H1732     1.0  0.66235  0.55272  0.86733  1.0000
  H   H1733     1.0  0.68123  0.60338  0.73246  1.0000
  C   C983      1.0  0.63075  0.69526  0.57811  1.0000
  H   H1734     1.0  0.64151  0.70852  0.56555  1.0000
  C   C984      1.0  0.58628  0.61926  0.59279  1.0000
  C   C985      1.0  0.48953  0.87246  0.67476  1.0000
  H   H1735     1.0  0.59695  0.60384  0.52699  1.0000
  C   C986      1.0  0.64150  0.63975  0.56854  1.0000
  H   H1736     1.0  0.49808  0.92433  0.78594  1.0000
  H   H1737     1.0  0.48846  0.71664  0.66292  1.0000
  C   C987      1.0  0.72325  0.56306  0.75406  1.0000
  C   C988      1.0  0.62453  0.90675  0.91155  1.0000
  C   C989      1.0  0.60850  0.62288  0.59220  1.0000
  H   H1738     1.0  0.63985  0.82065  0.93964  1.0000
  H   H1739     1.0  0.49019  0.74678  0.81867  1.0000
  C   C990      1.0  0.48179  0.84573  0.80502  1.0000
  H   H1740     1.0  0.67489  0.63286  0.59089  1.0000
  N   N54       1.0  0.63216  0.86175  0.86498  1.0000
  H   H1741     1.0  0.57650  0.58757  0.59909  1.0000
  H   H1742     1.0  0.71737  0.61909  0.84250  1.0000
  C   C991      1.0  0.67455  0.97268  0.94832  1.0000
  C   C992      1.0  0.50280  0.59150  0.90363  1.0000
  H   H1743     1.0  0.61036  0.60893  0.58471  1.0000
  H   H1744     1.0  0.63325  0.67629  0.53477  1.0000
  C   C993      1.0  0.61382  0.85215  0.84132  1.0000
  H   H1745     1.0  0.60496  0.65838  0.57793  1.0000
  C   C994      1.0  0.64997  0.87316  0.84315  1.0000
  H   H1746     1.0  0.65460  0.64972  0.76714  1.0000
  H   H1747     1.0  0.57674  0.72224  0.95860  1.0000
  N   N55       1.0  0.62073  0.63919  0.56805  1.0000
  H   H1748     1.0  0.68138  0.64955  0.62994  1.0000
  C   C995      1.0  0.61995  0.65826  0.58243  1.0000
  H   H1749     1.0  0.62233  0.65970  0.61277  1.0000
  H   H1750     1.0  0.63968  0.91357  0.92323  1.0000
  H   H1751     1.0  0.57968  0.61789  0.56485  1.0000
  H   H1752     1.0  0.61373  0.62599  0.62129  1.0000
  C   C996      1.0  0.71081  0.64556  0.84096  1.0000
  H   H1753     1.0  0.64184  0.62548  0.55871  1.0000
  H   H1754     1.0  0.52876  0.71799  0.57692  1.0000
  H   H1755     1.0  0.70254  0.60893  0.67727  1.0000
  H   H1756     1.0  0.49506  0.57409  0.95309  1.0000
  H   H1757     1.0  0.62215  0.69956  0.89980  1.0000
  C   C997      1.0  0.67539  0.96801  0.50601  1.0000
  Fe  Fe110     1.0  0.72321  0.56636  0.97057  1.0000
  H   H1758     1.0  0.65958  0.55298  0.81805  1.0000
  H   H1759     1.0  0.66736  0.97293  0.92228  1.0000
  H   H1760     1.0  0.50205  0.56413  0.87840  1.0000
  S   S220      1.0  0.48776  0.67960  0.68857  1.0000
  C   C998      1.0  0.48110  0.75538  0.82645  1.0000
  C   C999      1.0  0.61302  0.63598  0.52879  1.0000
  Fe  Fe111     1.0  0.71495  0.60492  0.54138  1.0000
  H   H1761     1.0  0.64312  0.64488  0.97505  1.0000
  C   C1000     1.0  0.50823  0.58494  0.94044  1.0000
  H   H1762     1.0  0.49454  0.77166  0.58824  1.0000
  H   H1763     1.0  0.65271  0.64085  0.81332  1.0000
  H   H1764     1.0  0.49233  0.59883  0.90924  1.0000
  C   C1001     1.0  0.55113  0.69708  0.96875  1.0000
  H   H1765     1.0  0.65518  0.61616  0.48864  1.0000
  C   C1002     1.0  0.65770  0.64476  0.97920  1.0000
  H   H1766     1.0  0.48016  0.62562  0.87590  1.0000
  H   H1767     1.0  0.47884  0.56500  0.88775  1.0000
  H   H1768     1.0  0.48345  0.83688  0.78121  1.0000
  H   H1769     1.0  0.51320  0.92128  0.82295  1.0000
  H   H1770     1.0  0.47910  0.75450  0.85662  1.0000
  H   H1771     1.0  0.47580  0.74535  0.75608  1.0000
  H   H1772     1.0  0.60935  0.79728  0.52013  1.0000
  H   H1773     1.0  0.47890  0.53729  0.84497  1.0000
  H   H1774     1.0  0.71648  0.64789  0.90028  1.0000
  H   H1775     1.0  0.49112  0.86624  0.74676  1.0000
  H   H1776     1.0  0.49533  0.85900  0.80747  1.0000
  C   C1003     1.0  0.49181  0.89397  0.80093  1.0000
  H   H1777     1.0  0.58518  0.78885  0.49922  1.0000
  C   C1004     1.0  0.66755  0.95558  0.96968  1.0000
  C   C1005     1.0  0.72419  0.65405  0.87462  1.0000
  H   H1778     1.0  0.60401  0.90000  0.48566  1.0000
  C   C1006     1.0  0.47566  0.86290  0.73805  1.0000
  C   C1007     1.0  0.47618  0.87554  0.70407  1.0000
  H   H1779     1.0  0.47582  0.75913  0.64417  1.0000
  H   H1780     1.0  0.60762  0.92555  0.48581  1.0000
  H   H1781     1.0  0.83017  0.25181  0.29614  1.0000
  Fe  Fe112     1.0  0.85530  0.29231  0.17799  1.0000
  S   S221      1.0  0.82520  0.29336  0.17202  1.0000
  S   S222      1.0  0.87527  0.28467  0.13782  1.0000
  Fe  Fe113     1.0  0.85360  0.29260  0.26331  1.0000
  S   S223      1.0  0.82328  0.29383  0.26318  1.0000
  S   S224      1.0  0.87309  0.28597  0.30667  1.0000
  Fe  Fe114     1.0  0.81559  0.27120  0.21698  1.0000
  S   S225      1.0  0.79305  0.23980  0.20982  1.0000
  Fe  Fe115     1.0  0.83486  0.31641  0.21829  1.0000
  S   S226      1.0  0.82557  0.34310  0.21036  1.0000
  S   S227      1.0  0.84515  0.26901  0.21993  1.0000
  S   S228      1.0  0.86570  0.31639  0.22152  1.0000
  H   H1782     1.0  0.91705  0.46010  0.20164  1.0000
  H   H1783     1.0  0.85409  0.44609  0.06134  1.0000
  H   H1784     1.0  0.76529  0.24887  0.33484  1.0000
  H   H1785     1.0  0.76297  0.13915  0.34096  1.0000
  Fe  Fe116     1.0  0.84417  0.46230  0.22633  1.0000
  S   S229      1.0  0.85304  0.43626  0.24231  1.0000
  H   H1786     1.0  0.90601  0.47669  0.21868  1.0000
  S   S230      1.0  0.83261  0.46871  0.17207  1.0000
  H   H1787     1.0  0.85395  0.23831  0.27506  1.0000
  C   C1008     1.0  0.75922  0.12378  0.34959  1.0000
  C   C1009     1.0  0.94023  0.28945  0.01019  1.0000
  H   H1788     1.0  0.83820  0.21382  0.28693  1.0000
  H   H1789     1.0  0.93948  0.23404  0.08968  1.0000
  C   C1010     1.0  0.76544  0.08898  0.37985  1.0000
  C   C1011     1.0  0.76598  0.47742  0.21199  1.0000
  C   C1012     1.0  0.93813  0.27383  0.34755  1.0000
  H   H1790     1.0  0.91686  0.20786  0.41432  1.0000
  C   C1013     1.0  0.74495  0.45912  0.26038  1.0000
  C   C1014     1.0  0.76317  0.46563  0.24282  1.0000
  H   H1791     1.0  0.76274  0.10227  0.43150  1.0000
  N   N56       1.0  0.88999  0.47872  0.35444  1.0000
  H   H1792     1.0  0.72810  0.12009  0.34622  1.0000
  H   H1793     1.0  0.77489  0.46126  0.25265  1.0000
  C   C1015     1.0  0.86928  0.27827  0.35289  1.0000
  C   C1016     1.0  0.88148  0.26936  0.36838  1.0000
  C   C1017     1.0  0.88003  0.26407  0.40557  1.0000
  C   C1018     1.0  0.86652  0.26792  0.42793  1.0000
  C   C1019     1.0  0.85394  0.27639  0.41226  1.0000
  C   C1020     1.0  0.85524  0.28148  0.37487  1.0000
  H   H1794     1.0  0.89207  0.26649  0.35139  1.0000
  H   H1795     1.0  0.88930  0.25699  0.41704  1.0000
  H   H1796     1.0  0.84333  0.27929  0.42932  1.0000
  H   H1797     1.0  0.84582  0.28841  0.36340  1.0000
  C   C1021     1.0  0.87492  0.28156  0.08935  1.0000
  C   C1022     1.0  0.88340  0.26883  0.07471  1.0000
  C   C1023     1.0  0.88483  0.26668  0.03653  1.0000
  C   C1024     1.0  0.87830  0.27767  0.01236  1.0000
  C   C1025     1.0  0.86951  0.29022  0.02691  1.0000
  C   C1026     1.0  0.86761  0.29201  0.06525  1.0000
  H   H1798     1.0  0.88888  0.26052  0.09313  1.0000
  H   H1799     1.0  0.89133  0.25678  0.02586  1.0000
  H   H1800     1.0  0.91930  0.31864  0.11779  1.0000
  H   H1801     1.0  0.86113  0.30195  0.07614  1.0000
  C   C1027     1.0  0.83368  0.36904  0.21957  1.0000
  C   C1028     1.0  0.82168  0.37920  0.20807  1.0000
  C   C1029     1.0  0.82726  0.39962  0.21473  1.0000
  C   C1030     1.0  0.84505  0.41035  0.23298  1.0000
  C   C1031     1.0  0.85713  0.40025  0.24426  1.0000
  C   C1032     1.0  0.85153  0.37981  0.23767  1.0000
  H   H1802     1.0  0.80782  0.37112  0.19414  1.0000
  H   H1803     1.0  0.81766  0.40698  0.20612  1.0000
  H   H1804     1.0  0.87095  0.40827  0.25827  1.0000
  H   H1805     1.0  0.86098  0.37235  0.24669  1.0000
  C   C1033     1.0  0.88034  0.44743  0.09269  1.0000
  C   C1034     1.0  0.74049  0.19545  0.22460  1.0000
  C   C1035     1.0  0.75973  0.20670  0.21394  1.0000
  C   C1036     1.0  0.76853  0.22676  0.22343  1.0000
  C   C1037     1.0  0.75780  0.23554  0.24366  1.0000
  H   H1806     1.0  0.77073  0.17526  0.09570  1.0000
  C   C1038     1.0  0.86838  0.44468  0.05625  1.0000
  H   H1807     1.0  0.76788  0.19974  0.19835  1.0000
  H   H1808     1.0  0.76425  0.25099  0.25081  1.0000
  C   C1039     1.0  0.75747  0.10230  0.40273  1.0000
  H   H1809     1.0  0.90150  0.44883  0.38972  1.0000
  H   H1810     1.0  0.78155  0.27893  0.29892  1.0000
  C   C1040     1.0  0.72963  0.04562  0.06045  1.0000
  H   H1811     1.0  0.96064  0.30862  0.43673  1.0000
  H   H1812     1.0  0.76993  0.13992  0.46199  1.0000
  C   C1041     1.0  0.94553  0.30280  0.42457  1.0000
  C   C1042     1.0  0.93189  0.30627  0.45282  1.0000
  C   C1043     1.0  0.83298  0.45189  0.34293  1.0000
  H   H1813     1.0  0.86555  0.46199  0.38828  1.0000
  H   H1814     1.0  0.83012  0.20676  0.03784  1.0000
  C   C1044     1.0  0.74409  0.14621  0.47134  1.0000
  H   H1815     1.0  0.92281  0.26323  0.34951  1.0000
  C   C1045     1.0  0.96916  0.29580  0.04975  1.0000
  H   H1816     1.0  0.94510  0.33052  0.13055  1.0000
  H   H1817     1.0  0.94274  0.32039  0.00670  1.0000
  H   H1818     1.0  0.74274  0.44983  0.28397  1.0000
  H   H1819     1.0  0.83030  0.44309  0.36823  1.0000
  C   C1046     1.0  0.85443  0.45816  0.33197  1.0000
  S   S231      1.0  0.73779  0.07386  0.48293  1.0000
  H   H1820     1.0  0.87704  0.46139  0.17756  1.0000
  H   H1821     1.0  0.78142  0.09614  0.37552  1.0000
  H   H1822     1.0  0.89098  0.40118  0.16581  1.0000
  H   H1823     1.0  0.81552  0.23134  0.44575  1.0000
  H   H1824     1.0  0.73397  0.18002  0.21714  1.0000
  C   C1047     1.0  0.78072  0.25831  0.34198  1.0000
  H   H1825     1.0  0.82336  0.44269  0.32046  1.0000
  C   C1048     1.0  0.93629  0.29987  0.11265  1.0000
  H   H1826     1.0  0.79347  0.12828  0.37799  1.0000
  S   S232      1.0  0.86447  0.26191  0.47515  1.0000
  H   H1827     1.0  0.76725  0.17640  0.14441  1.0000
  H   H1828     1.0  0.82092  0.18107  0.39632  1.0000
  C   C1049     1.0  0.89068  0.45885  0.17149  1.0000
  C   C1050     1.0  0.85200  0.43255  0.13342  1.0000
  C   C1051     1.0  0.83344  0.41784  0.11317  1.0000
  C   C1052     1.0  0.89222  0.44470  0.36430  1.0000
  C   C1053     1.0  0.81540  0.42296  0.12016  1.0000
  H   H1829     1.0  0.92840  0.31306  0.16056  1.0000
  H   H1830     1.0  0.87980  0.42765  0.17738  1.0000
  H   H1831     1.0  0.84966  0.42940  0.16311  1.0000
  H   H1832     1.0  0.80221  0.41162  0.10705  1.0000
  H   H1833     1.0  0.83015  0.40280  0.12327  1.0000
  H   H1834     1.0  0.93446  0.22132  0.04573  1.0000
  H   H1835     1.0  0.85201  0.38260  0.12183  1.0000
  H   H1836     1.0  0.76659  0.05984  0.38144  1.0000
  H   H1837     1.0  0.77178  0.18952  0.27940  1.0000
  H   H1838     1.0  0.83519  0.41740  0.08310  1.0000
  H   H1839     1.0  0.81729  0.43737  0.10824  1.0000
  H   H1840     1.0  0.85184  0.44756  0.13083  1.0000
  H   H1841     1.0  0.93668  0.32218  0.45948  1.0000
  H   H1842     1.0  0.88196  0.46232  0.10288  1.0000
  H   H1843     1.0  0.77096  0.07261  0.42531  1.0000
  N   N57       1.0  0.82081  0.22844  0.09346  1.0000
  C   C1054     1.0  0.81305  0.24314  0.10953  1.0000
  C   C1055     1.0  0.83901  0.22969  0.11494  1.0000
  C   C1056     1.0  0.82695  0.23456  0.05464  1.0000
  C   C1057     1.0  0.80575  0.20769  0.09246  1.0000
  C   C1058     1.0  0.79044  0.20202  0.12356  1.0000
  C   C1059     1.0  0.79630  0.24603  0.08671  1.0000
  C   C1060     1.0  0.83759  0.22277  0.03416  1.0000
  C   C1061     1.0  0.83643  0.22398  0.15579  1.0000
  C   C1062     1.0  0.85639  0.22829  0.17474  1.0000
  H   H1844     1.0  0.89759  0.47599  0.41116  1.0000
  C   C1063     1.0  0.78418  0.25464  0.11006  1.0000
  H   H1845     1.0  0.95088  0.30533  0.33447  1.0000
  H   H1846     1.0  0.82512  0.25783  0.11283  1.0000
  H   H1847     1.0  0.80787  0.23929  0.13779  1.0000
  H   H1848     1.0  0.84580  0.21990  0.10249  1.0000
  H   H1849     1.0  0.85018  0.24482  0.11377  1.0000
  H   H1850     1.0  0.83683  0.25034  0.05435  1.0000
  H   H1851     1.0  0.81393  0.23333  0.03724  1.0000
  H   H1852     1.0  0.79701  0.20457  0.06622  1.0000
  H   H1853     1.0  0.81326  0.19699  0.09238  1.0000
  H   H1854     1.0  0.77995  0.20956  0.12023  1.0000
  H   H1855     1.0  0.79732  0.20608  0.15123  1.0000
  H   H1856     1.0  0.80272  0.25632  0.06410  1.0000
  H   H1857     1.0  0.78617  0.23202  0.07409  1.0000
  C   C1064     1.0  0.76165  0.18318  0.30220  1.0000
  H   H1858     1.0  0.85299  0.22732  0.04453  1.0000
  H   H1859     1.0  0.82892  0.23219  0.17116  1.0000
  H   H1860     1.0  0.82799  0.20801  0.15789  1.0000
  H   H1861     1.0  0.86457  0.22027  0.16061  1.0000
  H   H1862     1.0  0.86529  0.24427  0.17476  1.0000
  H   H1863     1.0  0.85429  0.22354  0.20366  1.0000
  C   C1065     1.0  0.77845  0.17997  0.12271  1.0000
  H   H1864     1.0  0.91251  0.43395  0.33631  1.0000
  H   H1865     1.0  0.83599  0.23172  0.41823  1.0000
  H   H1866     1.0  0.77709  0.24465  0.13268  1.0000
  H   H1867     1.0  0.79361  0.26914  0.12192  1.0000
  H   H1868     1.0  0.77250  0.25661  0.09273  1.0000
  C   C1066     1.0  0.72982  0.20412  0.24527  1.0000
  H   H1869     1.0  0.89361  0.45992  0.02235  1.0000
  C   C1067     1.0  0.73246  0.47638  0.21673  1.0000
  N   N58       1.0  0.79502  0.23075  0.33632  1.0000
  C   C1068     1.0  0.80640  0.22380  0.30891  1.0000
  C   C1069     1.0  0.77389  0.21659  0.33651  1.0000
  C   C1070     1.0  0.80427  0.23402  0.37440  1.0000
  C   C1071     1.0  0.80742  0.21636  0.39206  1.0000
  C   C1072     1.0  0.82840  0.23699  0.30562  1.0000
  C   C1073     1.0  0.76978  0.19418  0.33845  1.0000
  H   H1870     1.0  0.73191  0.09724  0.34549  1.0000
  N   N59       1.0  0.94707  0.28955  0.04964  1.0000
  C   C1074     1.0  0.83842  0.22825  0.27778  1.0000
  H   H1871     1.0  0.79937  0.22235  0.28107  1.0000
  H   H1872     1.0  0.80595  0.20893  0.31472  1.0000
  H   H1873     1.0  0.76629  0.22015  0.36023  1.0000
  H   H1874     1.0  0.76580  0.21880  0.31184  1.0000
  H   H1875     1.0  0.81433  0.20913  0.37290  1.0000
  H   H1876     1.0  0.79314  0.20562  0.40104  1.0000
  H   H1877     1.0  0.83638  0.23851  0.33232  1.0000
  H   H1878     1.0  0.78253  0.19067  0.34702  1.0000
  H   H1879     1.0  0.75851  0.18770  0.35955  1.0000
  H   H1880     1.0  0.74709  0.18385  0.29560  1.0000
  H   H1881     1.0  0.89482  0.45091  0.22779  1.0000
  C   C1075     1.0  0.94070  0.25247  0.04262  1.0000
  H   H1882     1.0  0.76896  0.11824  0.33347  1.0000
  H   H1883     1.0  0.74638  0.06230  0.40589  1.0000
  H   H1884     1.0  0.89958  0.47031  0.15258  1.0000
  H   H1885     1.0  0.83092  0.22643  0.25046  1.0000
  N   N60       1.0  0.87168  0.43242  0.12189  1.0000
  H   H1886     1.0  0.94545  0.31160  0.40029  1.0000
  H   H1887     1.0  0.94184  0.22046  0.42998  1.0000
  S   S233      1.0  0.82685  0.47582  0.26145  1.0000
  H   H1888     1.0  0.82107  0.16002  0.37053  1.0000
  C   C1076     1.0  0.73774  0.11257  0.33609  1.0000
  H   H1889     1.0  0.73221  0.04471  0.09039  1.0000
  H   H1890     1.0  0.81866  0.24655  0.37469  1.0000
  C   C1077     1.0  0.87071  0.41260  0.10795  1.0000
  H   H1891     1.0  0.94443  0.26781  0.32496  1.0000
  H   H1892     1.0  0.85586  0.39930  0.15939  1.0000
  C   C1078     1.0  0.86327  0.39559  0.13578  1.0000
  H   H1893     1.0  0.88638  0.38404  0.12726  1.0000
  H   H1894     1.0  0.86433  0.29876  0.00848  1.0000
  H   H1895     1.0  0.86101  0.40769  0.08325  1.0000
  H   H1896     1.0  0.95658  0.25578  0.03901  1.0000
  C   C1079     1.0  0.87954  0.38911  0.15027  1.0000
  H   H1897     1.0  0.88532  0.41366  0.09778  1.0000
  C   C1080     1.0  0.87916  0.46060  0.02913  1.0000
  C   C1081     1.0  0.93129  0.21894  0.40683  1.0000
  H   H1898     1.0  0.87313  0.37666  0.16908  1.0000
  C   C1082     1.0  0.83843  0.22659  0.99295  1.0000
  C   C1083     1.0  0.78498  0.13367  0.39749  1.0000
  H   H1899     1.0  0.74768  0.11872  0.46488  1.0000
  H   H1900     1.0  0.93717  0.28756  0.27581  1.0000
  C   C1084     1.0  0.75423  0.13365  0.45347  1.0000
  H   H1901     1.0  0.89412  0.41589  0.36267  1.0000
  N   N61       1.0  0.94927  0.27483  0.38317  1.0000
  C   C1085     1.0  0.79526  0.25033  0.32329  1.0000
  H   H1902     1.0  0.78810  0.17162  0.12786  1.0000
  H   H1903     1.0  0.91276  0.27868  0.29466  1.0000
  H   H1904     1.0  0.91817  0.23605  0.37724  1.0000
  C   C1086     1.0  0.82081  0.22271  0.42621  1.0000
  H   H1905     1.0  0.74518  0.10402  0.28233  1.0000
  C   C1087     1.0  0.94081  0.30397  0.07136  1.0000
  H   H1906     1.0  0.88733  0.42334  0.31934  1.0000
  H   H1907     1.0  0.78801  0.16294  0.41855  1.0000
  H   H1908     1.0  0.95439  0.24876  0.36558  1.0000
  C   C1088     1.0  0.90287  0.46173  0.20708  1.0000
  C   C1089     1.0  0.94924  0.25455  0.39006  1.0000
  H   H1909     1.0  0.93322  0.25023  0.01536  1.0000
  H   H1910     1.0  0.89540  0.44820  0.08609  1.0000
  H   H1911     1.0  0.92553  0.30448  0.28813  1.0000
  H   H1912     1.0  0.92691  0.30450  0.05937  1.0000
  H   H1913     1.0  0.92642  0.29709  0.35308  1.0000
  H   H1914     1.0  0.79523  0.23862  0.39395  1.0000
  H   H1915     1.0  0.86586  0.43030  0.04273  1.0000
  C   C1090     1.0  0.92917  0.23854  0.39983  1.0000
  H   H1916     1.0  0.92318  0.24260  0.42508  1.0000
  H   H1917     1.0  0.93230  0.29847  0.47853  1.0000
  H   H1918     1.0  0.79204  0.24964  0.29315  1.0000
  H   H1919     1.0  0.92315  0.27429  0.41077  1.0000
  H   H1920     1.0  0.88146  0.47540  0.04079  1.0000
  H   H1921     1.0  0.81016  0.26190  0.32723  1.0000
  H   H1922     1.0  0.97156  0.30403  0.37747  1.0000
  H   H1923     1.0  0.88968  0.45765  0.31184  1.0000
  C   C1091     1.0  0.89688  0.42854  0.34432  1.0000
  H   H1924     1.0  0.78793  0.16110  0.36930  1.0000
  H   H1925     1.0  0.82127  0.20962  0.44047  1.0000
  N   N62       1.0  0.76321  0.12312  0.39022  1.0000
  H   H1926     1.0  0.91654  0.30100  0.44183  1.0000
  H   H1927     1.0  0.79883  0.28933  0.33675  1.0000
  C   C1092     1.0  0.78380  0.27895  0.32917  1.0000
  H   H1928     1.0  0.78263  0.25906  0.37228  1.0000
  C   C1093     1.0  0.93714  0.26915  0.06405  1.0000
  H   H1929     1.0  0.75099  0.16169  0.46287  1.0000
  C   C1094     1.0  0.89640  0.46280  0.33964  1.0000
  H   H1930     1.0  0.95193  0.31913  0.06931  1.0000
  H   H1931     1.0  0.93646  0.21359  0.38188  1.0000
  H   H1932     1.0  0.77306  0.28417  0.34250  1.0000
  C   C1095     1.0  0.93935  0.28059  0.41506  1.0000
  H   H1933     1.0  0.94851  0.29782  0.12784  1.0000
  H   H1934     1.0  0.94522  0.27977  0.99255  1.0000
  H   H1935     1.0  0.92388  0.28321  0.00822  1.0000
  H   H1936     1.0  0.94228  0.27416  0.44099  1.0000
  C   C1096     1.0  0.73624  0.11191  0.29413  1.0000
  C   C1097     1.0  0.93640  0.29311  0.33478  1.0000
  H   H1937     1.0  0.78938  0.13017  0.42506  1.0000
  H   H1938     1.0  0.75426  0.14767  0.40085  1.0000
  C   C1098     1.0  0.92745  0.29072  0.29597  1.0000
  C   C1099     1.0  0.81543  0.16482  0.39554  1.0000
  H   H1939     1.0  0.91608  0.22889  0.06603  1.0000
  C   C1100     1.0  0.75138  0.13267  0.41104  1.0000
  C   C1101     1.0  0.79297  0.15636  0.39493  1.0000
  H   H1940     1.0  0.89996  0.43673  0.14729  1.0000
  H   H1941     1.0  0.82900  0.46493  0.34762  1.0000
  H   H1942     1.0  0.75785  0.08534  0.35259  1.0000
  H   H1943     1.0  0.73957  0.03999  0.04531  1.0000
  C   C1102     1.0  0.76210  0.06975  0.39933  1.0000
  H   H1944     1.0  0.85724  0.44459  0.32601  1.0000
  C   C1103     1.0  0.93208  0.31662  0.13139  1.0000
  C   C1104     1.0  0.73858  0.22424  0.25464  1.0000
  C   C1105     1.0  0.86840  0.47078  0.36288  1.0000
  H   H1945     1.0  0.87664  0.43832  0.37229  1.0000
  C   C1106     1.0  0.94742  0.30973  0.99148  1.0000
  H   H1946     1.0  0.82141  0.15999  0.42013  1.0000
  H   H1947     1.0  0.74124  0.12698  0.28321  1.0000
  H   H1948     1.0  0.75964  0.16750  0.30457  1.0000
  H   H1949     1.0  0.87028  0.45845  0.00332  1.0000
  H   H1950     1.0  0.92100  0.26532  0.06412  1.0000
  H   H1951     1.0  0.94140  0.26833  0.09313  1.0000
  C   C1107     1.0  0.93212  0.23303  0.06242  1.0000
  C   C1108     1.0  0.88576  0.43799  0.15461  1.0000
  H   H1952     1.0  0.74122  0.09490  0.40386  1.0000
  H   H1953     1.0  0.92294  0.28642  0.11559  1.0000
  H   H1954     1.0  0.73336  0.06124  0.05354  1.0000
  H   H1955     1.0  0.91250  0.46869  0.33531  1.0000
  H   H1956     1.0  0.80675  0.15341  0.47931  1.0000
  H   H1957     1.0  0.81287  0.42349  0.15009  1.0000
  H   H1958     1.0  0.73042  0.23111  0.27045  1.0000
  C   C1109     1.0  0.97041  0.28871  0.38135  1.0000
  H   H1959     1.0  0.74635  0.47526  0.35491  1.0000
  C   C1110     1.0  0.72960  0.46457  0.24745  1.0000
  H   H1960     1.0  0.85626  0.46647  0.30629  1.0000
  H   H1961     1.0  0.95979  0.25520  0.41284  1.0000
  H   H1962     1.0  0.73539  0.12445  0.40593  1.0000
  H   H1963     1.0  0.97368  0.28755  0.02806  1.0000
  H   H1964     1.0  0.97329  0.27882  0.09668  1.0000
  H   H1965     1.0  0.72824  0.14051  0.46363  1.0000
  H   H1966     1.0  0.96365  0.31587  0.98970  1.0000
  H   H1967     1.0  0.72664  0.09928  0.11105  1.0000
  H   H1968     1.0  0.72565  0.09328  0.04351  1.0000
  H   H1969     1.0  0.84508  0.24255  0.98779  1.0000
  H   H1970     1.0  0.78973  0.48018  0.31252  1.0000
  Fe  Fe117     1.0  0.89929  0.23506  0.86516  1.0000
  S   S234      1.0  0.90320  0.21051  0.89638  1.0000
  S   S235      1.0  0.90175  0.22865  0.80393  1.0000
  Fe  Fe118     1.0  0.89102  0.25311  0.93808  1.0000
  H   H1971     1.0  0.85885  0.26609  0.77759  1.0000
  Fe  Fe119     1.0  0.92123  0.23431  0.93697  1.0000
  H   H1972     1.0  0.77281  0.18813  0.74904  1.0000
  Fe  Fe120     1.0  0.87629  0.20839  0.92774  1.0000
  S   S236      1.0  0.84517  0.18502  0.93185  1.0000
  S   S237      1.0  0.91827  0.25878  0.90464  1.0000
  S   S238      1.0  0.87189  0.23221  0.89508  1.0000
  C   C1111     1.0  0.73633  0.06926  0.69368  1.0000
  H   H1973     1.0  0.76874  0.14308  0.55936  1.0000
  H   H1974     1.0  0.93302  0.29017  0.82089  1.0000
  S   S239      1.0  0.74306  0.05766  0.88764  1.0000
  C   C1112     1.0  0.84633  0.17679  0.81821  1.0000
  S   S240      1.0  0.88151  0.27650  0.96417  1.0000
  Fe  Fe121     1.0  0.75662  0.08115  0.93164  1.0000
  S   S241      1.0  0.79021  0.09384  0.93879  1.0000
  S   S242      1.0  0.74089  0.10045  0.91317  1.0000
  Fe  Fe122     1.0  0.92353  0.24513  0.51944  1.0000
  S   S243      1.0  0.91250  0.26866  0.53711  1.0000
  H   H1975     1.0  0.87994  0.27282  0.83447  1.0000
  Fe  Fe123     1.0  0.88437  0.21191  0.54155  1.0000
  S   S244      1.0  0.87143  0.23371  0.56008  1.0000
  S   S245      1.0  0.86843  0.17927  0.55394  1.0000
  C   C1113     1.0  0.96260  0.29017  0.82851  1.0000
  Fe  Fe124     1.0  0.90081  0.25027  0.58721  1.0000
  S   S246      1.0  0.90317  0.26469  0.64458  1.0000
  S   S247      1.0  0.91347  0.22782  0.57125  1.0000
  Fe  Fe125     1.0  0.76293  0.08862  0.52267  1.0000
  H   H1976     1.0  0.96931  0.23424  0.88111  1.0000
  C   C1114     1.0  0.83842  0.14497  0.93672  1.0000
  Fe  Fe126     1.0  0.88408  0.24985  0.50843  1.0000
  H   H1977     1.0  0.92287  0.30203  0.95213  1.0000
  S   S248      1.0  0.74127  0.06191  0.64910  1.0000
  C   C1115     1.0  0.95884  0.23608  0.82413  1.0000
  S   S249      1.0  0.75745  0.05976  0.55030  1.0000
  C   C1116     1.0  0.84571  0.16127  0.53801  1.0000
  C   C1117     1.0  0.83357  0.16523  0.51187  1.0000
  Fe  Fe127     1.0  0.73017  0.04596  0.51440  1.0000
  C   C1118     1.0  0.80996  0.13121  0.51391  1.0000
  C   C1119     1.0  0.82199  0.12735  0.54037  1.0000
  C   C1120     1.0  0.83974  0.14227  0.55224  1.0000
  H   H1978     1.0  0.94268  0.29528  0.86758  1.0000
  H   H1979     1.0  0.94527  0.23961  0.75419  1.0000
  H   H1980     1.0  0.81796  0.11269  0.55071  1.0000
  H   H1981     1.0  0.84911  0.13897  0.57213  1.0000
  C   C1121     1.0  0.80430  0.20354  0.75655  1.0000
  H   H1982     1.0  0.94399  0.23064  0.81079  1.0000
  H   H1983     1.0  0.94458  0.26364  0.76197  1.0000
  C   C1122     1.0  0.97264  0.26130  0.77890  1.0000
  C   C1123     1.0  0.83974  0.19422  0.81699  1.0000
  H   H1984     1.0  0.86150  0.20917  0.77672  1.0000
  C   C1124     1.0  0.95943  0.26055  0.71363  1.0000
  C   C1125     1.0  0.95553  0.22900  0.86432  1.0000
  H   H1985     1.0  0.83728  0.25927  0.80518  1.0000
  S   S250      1.0  0.95185  0.23744  0.95918  1.0000
  C   C1126     1.0  0.90179  0.23904  0.76011  1.0000
  C   C1127     1.0  0.90084  0.22742  0.72848  1.0000
  C   C1128     1.0  0.90113  0.23496  0.69299  1.0000
  C   C1129     1.0  0.90256  0.25433  0.68866  1.0000
  C   C1130     1.0  0.90344  0.26593  0.72034  1.0000
  C   C1131     1.0  0.90300  0.25835  0.75588  1.0000
  H   H1986     1.0  0.89998  0.21249  0.73140  1.0000
  H   H1987     1.0  0.90047  0.22586  0.66894  1.0000
  H   H1988     1.0  0.90452  0.28093  0.71728  1.0000
  H   H1989     1.0  0.90375  0.26748  0.77986  1.0000
  C   C1132     1.0  0.83043  0.15952  0.93416  1.0000
  C   C1133     1.0  0.80987  0.15379  0.93346  1.0000
  C   C1134     1.0  0.79742  0.13387  0.93535  1.0000
  C   C1135     1.0  0.80536  0.11929  0.93788  1.0000
  H   H1990     1.0  0.95439  0.26585  0.86441  1.0000
  H   H1991     1.0  0.94439  0.29833  0.93532  1.0000
  S   S251      1.0  0.73371  0.06515  0.97324  1.0000
  H   H1992     1.0  0.78167  0.12982  0.93489  1.0000
  Fe  Fe128     1.0  0.73783  0.06878  0.58833  1.0000
  N   N63       1.0  0.84049  0.22338  0.77656  1.0000
  C   C1136     1.0  0.85206  0.23794  0.80616  1.0000
  C   C1137     1.0  0.82594  0.12500  0.93863  1.0000
  H   H1993     1.0  0.95152  0.31369  0.83329  1.0000
  H   H1994     1.0  0.86255  0.18188  0.81611  1.0000
  H   H1995     1.0  0.95784  0.20057  0.85437  1.0000
  N   N64       1.0  0.80605  0.15203  0.64927  1.0000
  C   C1138     1.0  0.79144  0.15658  0.62506  1.0000
  C   C1139     1.0  0.80033  0.15263  0.68881  1.0000
  C   C1140     1.0  0.82595  0.16815  0.64457  1.0000
  C   C1141     1.0  0.80766  0.13255  0.63975  1.0000
  C   C1142     1.0  0.78900  0.11602  0.62365  1.0000
  C   C1143     1.0  0.79723  0.16042  0.58436  1.0000
  C   C1144     1.0  0.84257  0.16796  0.67135  1.0000
  C   C1145     1.0  0.78049  0.13690  0.69991  1.0000
  C   C1146     1.0  0.77553  0.14057  0.73927  1.0000
  C   C1147     1.0  0.79139  0.09625  0.62393  1.0000
  C   C1148     1.0  0.77958  0.15840  0.55953  1.0000
  C   C1149     1.0  0.86287  0.18069  0.65780  1.0000
  H   H1996     1.0  0.78919  0.16989  0.63571  1.0000
  H   H1997     1.0  0.77669  0.14477  0.62564  1.0000
  H   H1998     1.0  0.81138  0.15048  0.70767  1.0000
  H   H1999     1.0  0.80014  0.16739  0.69586  1.0000
  H   H2000     1.0  0.82486  0.18284  0.64737  1.0000
  H   H2001     1.0  0.83128  0.16751  0.61620  1.0000
  H   H2002     1.0  0.81923  0.13438  0.61914  1.0000
  H   H2003     1.0  0.81278  0.12675  0.66428  1.0000
  H   H2004     1.0  0.78640  0.11909  0.59470  1.0000
  H   H2005     1.0  0.77561  0.11439  0.63900  1.0000
  H   H2006     1.0  0.80831  0.17551  0.58156  1.0000
  H   H2007     1.0  0.80378  0.15003  0.57438  1.0000
  H   H2008     1.0  0.84235  0.15290  0.67469  1.0000
  H   H2009     1.0  0.84081  0.17390  0.69874  1.0000
  H   H2010     1.0  0.76813  0.13679  0.68192  1.0000
  H   H2011     1.0  0.78138  0.12212  0.69893  1.0000
  H   H2012     1.0  0.77262  0.15433  0.74125  1.0000
  H   H2013     1.0  0.76213  0.12828  0.74769  1.0000
  H   H2014     1.0  0.78773  0.14156  0.75853  1.0000
  H   H2015     1.0  0.77832  0.08493  0.61069  1.0000
  H   H2016     1.0  0.80458  0.09682  0.60867  1.0000
  H   H2017     1.0  0.79250  0.09179  0.65255  1.0000
  C   C1150     1.0  0.73754  0.05812  0.72415  1.0000
  H   H2018     1.0  0.93319  0.20046  0.84933  1.0000
  N   N65       1.0  0.96907  0.25794  0.81946  1.0000
  H   H2019     1.0  0.86642  0.17385  0.63289  1.0000
  H   H2020     1.0  0.86359  0.19563  0.65107  1.0000
  H   H2021     1.0  0.87421  0.18204  0.67932  1.0000
  N   N66       1.0  0.79844  0.09050  0.81349  1.0000
  C   C1151     1.0  0.81740  0.09988  0.83542  1.0000
  C   C1152     1.0  0.78541  0.07280  0.83372  1.0000
  C   C1153     1.0  0.80329  0.08482  0.77594  1.0000
  C   C1154     1.0  0.78781  0.10442  0.80901  1.0000
  C   C1155     1.0  0.78263  0.11252  0.84528  1.0000
  C   C1156     1.0  0.83078  0.12082  0.82405  1.0000
  C   C1157     1.0  0.78548  0.07378  0.75006  1.0000
  C   C1158     1.0  0.79237  0.05527  0.83501  1.0000
  C   C1159     1.0  0.77901  0.03890  0.85872  1.0000
  C   C1160     1.0  0.77531  0.12913  0.83835  1.0000
  C   C1161     1.0  0.85080  0.12737  0.84375  1.0000
  C   C1162     1.0  0.79187  0.06556  0.71591  1.0000
  H   H2022     1.0  0.82633  0.09054  0.83375  1.0000
  H   H2023     1.0  0.81453  0.10060  0.86530  1.0000
  H   H2024     1.0  0.78401  0.07697  0.86277  1.0000
  H   H2025     1.0  0.77013  0.06737  0.82220  1.0000
  H   H2026     1.0  0.81261  0.07588  0.77832  1.0000
  H   H2027     1.0  0.81237  0.09804  0.76092  1.0000
  H   H2028     1.0  0.79635  0.11692  0.79171  1.0000
  H   H2029     1.0  0.77354  0.09704  0.79400  1.0000
  H   H2030     1.0  0.79546  0.11836  0.86421  1.0000
  H   H2031     1.0  0.77089  0.10067  0.85931  1.0000
  H   H2032     1.0  0.83339  0.12158  0.79415  1.0000
  H   H2033     1.0  0.82401  0.13157  0.83139  1.0000
  H   H2034     1.0  0.77839  0.08395  0.74072  1.0000
  H   H2035     1.0  0.77434  0.06128  0.76368  1.0000
  H   H2036     1.0  0.79215  0.04889  0.80711  1.0000
  H   H2037     1.0  0.80746  0.05990  0.84683  1.0000
  H   H2038     1.0  0.78430  0.02656  0.85913  1.0000
  H   H2039     1.0  0.77912  0.04431  0.88745  1.0000
  H   H2040     1.0  0.76372  0.03329  0.84744  1.0000
  H   H2041     1.0  0.78717  0.14198  0.82700  1.0000
  H   H2042     1.0  0.76241  0.12417  0.81917  1.0000
  H   H2043     1.0  0.77076  0.13379  0.86471  1.0000
  H   H2044     1.0  0.84905  0.12679  0.87398  1.0000
  H   H2045     1.0  0.85881  0.11782  0.83545  1.0000
  H   H2046     1.0  0.85976  0.14270  0.83658  1.0000
  H   H2047     1.0  0.80376  0.07727  0.70187  1.0000
  H   H2048     1.0  0.79715  0.05374  0.72351  1.0000
  H   H2049     1.0  0.77917  0.05925  0.69642  1.0000
  H   H2050     1.0  0.77963  0.21192  0.77099  1.0000
  S   S252      1.0  0.78862  0.11237  0.49508  1.0000
  H   H2051     1.0  0.83228  0.11389  0.94075  1.0000
  H   H2052     1.0  0.78115  0.19149  0.79637  1.0000
  H   H2053     1.0  0.83105  0.20606  0.70465  1.0000
  H   H2054     1.0  0.83923  0.16608  0.79558  1.0000
  H   H2055     1.0  0.85822  0.26642  0.86208  1.0000
  H   H2056     1.0  0.86475  0.28726  0.83262  1.0000
  C   C1163     1.0  0.95402  0.25557  0.75361  1.0000
  C   C1164     1.0  0.84544  0.20525  0.78031  1.0000
  H   H2057     1.0  0.94069  0.26056  0.82280  1.0000
  H   H2058     1.0  0.94425  0.32272  0.93984  1.0000
  H   H2059     1.0  0.78449  0.16203  0.53094  1.0000
  C   C1165     1.0  0.81902  0.21913  0.78253  1.0000
  H   H2060     1.0  0.80512  0.20941  0.72848  1.0000
  S   S253      1.0  0.89542  0.22699  0.48817  1.0000
  H   H2061     1.0  0.85712  0.21285  0.70817  1.0000
  C   C1166     1.0  0.93917  0.30801  0.95229  1.0000
  H   H2062     1.0  0.80708  0.18971  0.75565  1.0000
  H   H2063     1.0  0.83867  0.24233  0.73267  1.0000
  H   H2064     1.0  0.84215  0.16934  0.84488  1.0000
  C   C1167     1.0  0.78323  0.19851  0.76912  1.0000
  H   H2065     1.0  0.73530  0.05476  0.78320  1.0000
  H   H2066     1.0  0.81580  0.23267  0.77928  1.0000
  C   C1168     1.0  0.84744  0.22957  0.67002  1.0000
  H   H2067     1.0  0.81516  0.21476  0.81142  1.0000
  C   C1169     1.0  0.84516  0.21868  0.70615  1.0000
  H   H2068     1.0  0.96718  0.22807  0.81020  1.0000
  C   C1170     1.0  0.86456  0.27214  0.83514  1.0000
  H   H2069     1.0  0.84629  0.23283  0.83373  1.0000
  H   H2070     1.0  0.83506  0.23459  0.66552  1.0000
  H   H2071     1.0  0.82360  0.18850  0.82041  1.0000
  H   H2072     1.0  0.84680  0.20380  0.84097  1.0000
  H   H2073     1.0  0.96420  0.27762  0.93120  1.0000
  H   H2074     1.0  0.83837  0.19425  0.75823  1.0000
  H   H2075     1.0  0.86765  0.23914  0.80665  1.0000
  S   S254      1.0  0.95375  0.24985  0.49422  1.0000
  H   H2076     1.0  0.86143  0.24251  0.67017  1.0000
  H   H2077     1.0  0.84761  0.21977  0.64661  1.0000
  H   H2078     1.0  0.94489  0.23432  0.87759  1.0000
  C   C1171     1.0  0.94641  0.29769  0.83820  1.0000
  C   C1172     1.0  0.94719  0.20661  0.86548  1.0000
  C   C1173     1.0  0.84676  0.23260  0.73961  1.0000
  C   C1174     1.0  0.85230  0.25914  0.80356  1.0000
  H   H2079     1.0  0.86256  0.24236  0.74076  1.0000
  S   S255      1.0  0.74478  0.09818  0.56196  1.0000
  C   C1175     1.0  0.95590  0.26782  0.83427  1.0000
  S   S256      1.0  0.89461  0.22952  0.97209  1.0000
  H   H2080     1.0  0.94583  0.25619  0.69626  1.0000
  H   H2081     1.0  0.82348  0.22050  0.98019  1.0000
  H   H2082     1.0  0.74082  0.04507  0.71977  1.0000
  H   H2083     1.0  0.96648  0.29412  0.79966  1.0000
  H   H2084     1.0  0.96855  0.25250  0.70330  1.0000
  H   H2085     1.0  0.85418  0.14910  0.93752  1.0000
  H   H2086     1.0  0.94425  0.20198  0.89442  1.0000
  H   H2087     1.0  0.77243  0.16854  0.56892  1.0000
  C   C1176     1.0  0.73444  0.06359  0.76023  1.0000
  H   H2088     1.0  0.80347  0.16487  0.93162  1.0000
  H   H2089     1.0  0.96691  0.29309  0.50083  1.0000
  C   C1177     1.0  0.73192  0.08603  0.69984  1.0000
  Fe  Fe129     1.0  0.72699  0.07683  0.86978  1.0000
  C   C1178     1.0  0.81591  0.15023  0.49970  1.0000
  H   H2090     1.0  0.83794  0.17975  0.50065  1.0000
  H   H2091     1.0  0.73086  0.09474  0.67682  1.0000
  C   C1179     1.0  0.72878  0.09148  0.73592  1.0000
  C   C1180     1.0  0.73003  0.08034  0.76639  1.0000
  H   H2092     1.0  0.96751  0.27657  0.71085  1.0000
  H   H2093     1.0  0.84755  0.21937  0.97960  1.0000
  H   H2094     1.0  0.74539  0.14569  0.50170  1.0000
  S   S257      1.0  0.72628  0.08826  0.81131  1.0000
  C   C1181     1.0  0.97420  0.25854  0.96287  1.0000
  H   H2095     1.0  0.97540  0.29807  0.84689  1.0000
  Fe  Fe130     1.0  0.85270  0.50442  0.25740  1.0000
  S   S258      1.0  0.86883  0.52943  0.29836  1.0000
  Fe  Fe131     1.0  0.85773  0.49794  0.17390  1.0000
  S   S259      1.0  0.87974  0.51311  0.12955  1.0000
  S   S260      1.0  0.84165  0.51340  0.20556  1.0000
  H   H2096     1.0  0.96075  0.63469  0.38807  1.0000
  H   H2097     1.0  0.77942  0.54103  0.36104  1.0000
  H   H2098     1.0  0.80873  0.49816  0.11130  1.0000
  H   H2099     1.0  0.95518  0.62521  0.06744  1.0000
  H   H2100     1.0  0.93309  0.64088  0.09607  1.0000
  Fe  Fe132     1.0  0.81709  0.48394  0.20707  1.0000
  H   H2101     1.0  0.87196  0.59353  0.37348  1.0000
  C   C1182     1.0  0.87636  0.52311  0.08677  1.0000
  C   C1183     1.0  0.89148  0.53990  0.07403  1.0000
  C   C1184     1.0  0.89036  0.54720  0.03873  1.0000
  C   C1185     1.0  0.87430  0.53746  0.01524  1.0000
  C   C1186     1.0  0.85908  0.52076  0.02806  1.0000
  C   C1187     1.0  0.86002  0.51370  0.06363  1.0000
  H   H2102     1.0  0.90434  0.54713  0.09136  1.0000
  H   H2103     1.0  0.90226  0.55994  0.02922  1.0000
  C   C1188     1.0  0.84085  0.58008  0.45121  1.0000
  H   H2104     1.0  0.84850  0.50051  0.07256  1.0000
  C   C1189     1.0  0.86984  0.53300  0.34680  1.0000
  C   C1190     1.0  0.85694  0.51945  0.37008  1.0000
  C   C1191     1.0  0.85830  0.52313  0.40837  1.0000
  C   C1192     1.0  0.87263  0.54026  0.42381  1.0000
  C   C1193     1.0  0.88550  0.55379  0.40050  1.0000
  C   C1194     1.0  0.88405  0.55019  0.36222  1.0000
  H   H2105     1.0  0.84586  0.50626  0.35856  1.0000
  H   H2106     1.0  0.84827  0.51258  0.42623  1.0000
  H   H2107     1.0  0.89665  0.56697  0.41198  1.0000
  H   H2108     1.0  0.89409  0.56076  0.34443  1.0000
  C   C1195     1.0  0.92675  0.60303  0.07474  1.0000
  S   S261      1.0  0.87049  0.49072  0.22573  1.0000
  H   H2109     1.0  0.76170  0.57133  0.01893  1.0000
  C   C1196     1.0  0.72883  0.63942  0.45025  1.0000
  H   H2110     1.0  0.82917  0.60971  0.45538  1.0000
  C   C1197     1.0  0.82142  0.56569  0.46704  1.0000
  H   H2111     1.0  0.86310  0.61755  0.43650  1.0000
  H   H2112     1.0  0.93178  0.59096  0.06721  1.0000
  C   C1198     1.0  0.75075  0.64671  0.45999  1.0000
  H   H2113     1.0  0.76224  0.53852  0.44028  1.0000
  C   C1199     1.0  0.89438  0.61862  0.39805  1.0000
  H   H2114     1.0  0.78416  0.52081  0.30001  1.0000
  H   H2115     1.0  0.79015  0.60730  0.40685  1.0000
  N   N67       1.0  0.83858  0.59162  0.41862  1.0000
  H   H2116     1.0  0.73673  0.50821  0.26156  1.0000
  H   H2117     1.0  0.84886  0.59027  0.47421  1.0000
  H   H2118     1.0  0.87744  0.59104  0.42129  1.0000
  C   C1200     1.0  0.79904  0.49415  0.32655  1.0000
  H   H2119     1.0  0.89824  0.62695  0.42464  1.0000
  S   S262      1.0  0.87399  0.54391  0.47221  1.0000
  H   H2120     1.0  0.80232  0.63128  0.38806  1.0000
  H   H2121     1.0  0.97444  0.67841  0.04112  1.0000
  H   H2122     1.0  0.91130  0.59880  0.06483  1.0000
  H   H2123     1.0  0.88644  0.50457  0.33293  1.0000
  H   H2124     1.0  0.89323  0.62857  0.37623  1.0000
  H   H2125     1.0  0.75261  0.49176  0.17508  1.0000
  H   H2126     1.0  0.94092  0.67432  0.09613  1.0000
  H   H2127     1.0  0.88265  0.50100  0.41512  1.0000
  H   H2128     1.0  0.84669  0.51299  0.01003  1.0000
  H   H2129     1.0  0.74954  0.55480  0.43167  1.0000
  C   C1201     1.0  0.78627  0.50374  0.34536  1.0000
  H   H2130     1.0  0.75940  0.65726  0.43940  1.0000
  C   C1202     1.0  0.75022  0.52156  0.26299  1.0000
  H   H2131     1.0  0.89730  0.68692  0.07210  1.0000
  C   C1203     1.0  0.77339  0.50934  0.31682  1.0000
  H   H2132     1.0  0.77406  0.56080  0.41504  1.0000
  H   H2133     1.0  0.75588  0.63427  0.46129  1.0000
  H   H2134     1.0  0.77744  0.49351  0.36601  1.0000
  S   S263      1.0  0.78821  0.48561  0.18811  1.0000
  C   C1204     1.0  0.73866  0.48462  0.36575  1.0000
  H   H2135     1.0  0.76099  0.55525  0.05616  1.0000
  C   C1205     1.0  0.75992  0.54857  0.41984  1.0000
  N   N68       1.0  0.94443  0.65841  0.04804  1.0000
  H   H2136     1.0  0.90639  0.61346  0.39116  1.0000
  H   H2137     1.0  0.90122  0.51733  0.38666  1.0000
  C   C1206     1.0  0.75122  0.53747  0.38391  1.0000
  H   H2138     1.0  0.79630  0.51708  0.36028  1.0000
  H   H2139     1.0  0.76245  0.51778  0.25208  1.0000
  H   H2140     1.0  0.83226  0.51807  0.11427  1.0000
  H   H2141     1.0  0.73376  0.49109  0.31059  1.0000
  C   C1207     1.0  0.74711  0.53636  0.23703  1.0000
  C   C1208     1.0  0.94760  0.67595  0.98573  1.0000
  H   H2142     1.0  0.72976  0.61578  0.41582  1.0000
  C   C1209     1.0  0.85817  0.60765  0.41170  1.0000
  H   H2143     1.0  0.82534  0.58394  0.02051  1.0000
  C   C1210     1.0  0.83064  0.57902  0.38440  1.0000
  C   C1211     1.0  0.83583  0.56049  0.37919  1.0000
  C   C1212     1.0  0.76643  0.55936  0.02799  1.0000
  H   H2144     1.0  0.72683  0.50526  0.34265  1.0000
  H   H2145     1.0  0.74182  0.53393  0.31056  1.0000
  H   H2146     1.0  0.83259  0.53776  0.33783  1.0000
  C   C1213     1.0  0.83078  0.55208  0.34002  1.0000
  H   H2147     1.0  0.90821  0.52612  0.45198  1.0000
  H   H2148     1.0  0.80960  0.59029  0.43358  1.0000
  H   H2149     1.0  0.74356  0.52974  0.20890  1.0000
  C   C1214     1.0  0.93306  0.63911  0.06565  1.0000
  H   H2150     1.0  0.85694  0.61706  0.38894  1.0000
  H   H2151     1.0  0.76897  0.52003  0.38790  1.0000
  H   H2152     1.0  0.80496  0.62763  0.43623  1.0000
  H   H2153     1.0  0.81212  0.52860  0.00083  1.0000
  H   H2154     1.0  0.93285  0.53015  0.28312  1.0000
  H   H2155     1.0  0.83544  0.58807  0.35950  1.0000
  S   S264      1.0  0.90772  0.60151  0.48236  1.0000
  H   H2156     1.0  0.85155  0.56352  0.38453  1.0000
  C   C1215     1.0  0.80368  0.62076  0.40849  1.0000
  C   C1216     1.0  0.82448  0.60145  0.42890  1.0000
  H   H2157     1.0  0.82026  0.60989  0.37216  1.0000
  H   H2158     1.0  0.73709  0.52573  0.39045  1.0000
  H   H2159     1.0  0.80861  0.50410  0.30605  1.0000
  C   C1217     1.0  0.86369  0.60281  0.04353  1.0000
  H   H2160     1.0  0.92738  0.60477  0.10513  1.0000
  C   C1218     1.0  0.91715  0.52194  0.28909  1.0000
  C   C1219     1.0  0.76535  0.52867  0.36626  1.0000
  H   H2161     1.0  0.75956  0.54653  0.00902  1.0000
  H   H2162     1.0  0.90937  0.51522  0.26299  1.0000
  H   H2163     1.0  0.81084  0.52106  0.13294  1.0000
  H   H2164     1.0  0.97122  0.65347  0.03784  1.0000
  H   H2165     1.0  0.74830  0.54799  0.36543  1.0000
  H   H2166     1.0  0.85029  0.57168  0.44487  1.0000
  H   H2167     1.0  0.87934  0.60709  0.03632  1.0000
  N   N69       1.0  0.81770  0.55368  0.03745  1.0000
  C   C1220     1.0  0.83020  0.57531  0.04044  1.0000
  C   C1221     1.0  0.79614  0.55029  0.04169  1.0000
  C   C1222     1.0  0.82381  0.54379  0.06892  1.0000
  C   C1223     1.0  0.75056  0.48272  0.19904  1.0000
  H   H2168     1.0  0.93961  0.61924  0.02717  1.0000
  C   C1224     1.0  0.85250  0.58116  0.03360  1.0000
  C   C1225     1.0  0.81179  0.52151  0.07305  1.0000
  H   H2169     1.0  0.76644  0.49653  0.29770  1.0000
  H   H2170     1.0  0.86292  0.60549  0.07346  1.0000
  C   C1226     1.0  0.87509  0.60100  0.40086  1.0000
  C   C1227     1.0  0.81625  0.51435  0.11010  1.0000
  H   H2171     1.0  0.82839  0.58117  0.06800  1.0000
  H   H2172     1.0  0.80854  0.49085  0.34734  1.0000
  H   H2173     1.0  0.78677  0.53604  0.02837  1.0000
  H   H2174     1.0  0.79216  0.54888  0.07126  1.0000
  H   H2175     1.0  0.82319  0.55134  0.09543  1.0000
  H   H2176     1.0  0.83928  0.54498  0.06643  1.0000
  H   H2177     1.0  0.76061  0.54979  0.23589  1.0000
  H   H2178     1.0  0.91731  0.63391  0.05688  1.0000
  N   N70       1.0  0.75798  0.51660  0.33133  1.0000
  H   H2179     1.0  0.91086  0.53253  0.29991  1.0000
  H   H2180     1.0  0.85924  0.57265  0.05003  1.0000
  H   H2181     1.0  0.81430  0.57356  0.38315  1.0000
  H   H2182     1.0  0.81570  0.51297  0.05119  1.0000
  H   H2183     1.0  0.79573  0.51791  0.07128  1.0000
  C   C1228     1.0  0.73873  0.49975  0.33658  1.0000
  H   H2184     1.0  0.81538  0.54977  0.33231  1.0000
  C   C1229     1.0  0.78882  0.56630  0.02736  1.0000
  H   H2185     1.0  0.83473  0.63001  0.40216  1.0000
  C   C1230     1.0  0.93999  0.62200  0.05706  1.0000
  H   H2186     1.0  0.85749  0.61220  0.02820  1.0000
  H   H2187     1.0  0.81092  0.55748  0.44487  1.0000
  H   H2188     1.0  0.91583  0.68967  0.10711  1.0000
  C   C1231     1.0  0.75454  0.52993  0.30303  1.0000
  H   H2189     1.0  0.73301  0.61462  0.06996  1.0000
  H   H2190     1.0  0.84082  0.56214  0.32025  1.0000
  C   C1232     1.0  0.96628  0.66393  0.05325  1.0000
  C   C1233     1.0  0.82097  0.54460  0.00198  1.0000
  C   C1234     1.0  0.91692  0.67184  0.05928  1.0000
  H   H2191     1.0  0.76752  0.54397  0.30216  1.0000
  C   C1235     1.0  0.82183  0.61595  0.40062  1.0000
  H   H2192     1.0  0.82739  0.54892  0.39834  1.0000
  C   C1236     1.0  0.91121  0.51344  0.44033  1.0000
  H   H2193     1.0  0.79484  0.57970  0.04526  1.0000
  H   H2194     1.0  0.83648  0.54567  0.00058  1.0000
  H   H2195     1.0  0.96581  0.65227  0.10920  1.0000
  H   H2196     1.0  0.97259  0.67843  0.10773  1.0000
  H   H2197     1.0  0.85495  0.57891  0.00409  1.0000
  C   C1237     1.0  0.90144  0.48722  0.38947  1.0000
  H   H2198     1.0  0.73392  0.63582  0.09661  1.0000
  S   S265      1.0  0.73197  0.59758  0.99058  1.0000
  C   C1238     1.0  0.93971  0.65651  0.00728  1.0000
  H   H2199     1.0  0.79338  0.57051  0.99892  1.0000
  H   H2200     1.0  0.73354  0.63752  0.39171  1.0000
  H   H2201     1.0  0.90678  0.65813  0.07146  1.0000
  H   H2202     1.0  0.91745  0.49118  0.38548  1.0000
  C   C1239     1.0  0.93863  0.67408  0.06582  1.0000
  C   C1240     1.0  0.89806  0.50524  0.40637  1.0000
  H   H2203     1.0  0.90821  0.50215  0.46174  1.0000
  H   H2204     1.0  0.92227  0.70303  0.06475  1.0000
  H   H2205     1.0  0.72743  0.63408  0.04843  1.0000
  H   H2206     1.0  0.92372  0.51388  0.34226  1.0000
  C   C1241     1.0  0.91543  0.50621  0.31727  1.0000
  H   H2207     1.0  0.83133  0.54158  0.47683  1.0000
  H   H2208     1.0  0.81435  0.57399  0.48358  1.0000
  H   H2209     1.0  0.92694  0.51861  0.43303  1.0000
  C   C1242     1.0  0.91292  0.68895  0.07698  1.0000
  H   H2210     1.0  0.94841  0.68891  0.05710  1.0000
  H   H2211     1.0  0.74568  0.49169  0.39207  1.0000
  H   H2212     1.0  0.73468  0.54041  0.24601  1.0000
  H   H2213     1.0  0.88652  0.48731  0.29902  1.0000
  C   C1243     1.0  0.89360  0.49414  0.32559  1.0000
  H   H2214     1.0  0.92268  0.49661  0.30582  1.0000
  H   H2215     1.0  0.91311  0.67144  0.02961  1.0000
  H   H2216     1.0  0.94578  0.64631  0.99396  1.0000
  H   H2217     1.0  0.92357  0.64953  0.00194  1.0000
  H   H2218     1.0  0.96387  0.68239  0.98681  1.0000
  H   H2219     1.0  0.94200  0.68697  0.99678  1.0000
  C   C1244     1.0  0.97396  0.66553  0.09353  1.0000
  C   C1245     1.0  0.72599  0.62554  0.07388  1.0000
  H   H2220     1.0  0.86344  0.48305  0.36921  1.0000
  Fe  Fe133     1.0  0.90480  0.59797  0.87263  1.0000
  S   S266      1.0  0.91913  0.62585  0.90661  1.0000
  S   S267      1.0  0.90532  0.60576  0.81122  1.0000
  Fe  Fe134     1.0  0.89238  0.57388  0.94379  1.0000
  C   C1246     1.0  0.77674  0.56072  0.85894  1.0000
  Fe  Fe135     1.0  0.89214  0.61479  0.94098  1.0000
  S   S268      1.0  0.87753  0.63508  0.96207  1.0000
  Fe  Fe136     1.0  0.93200  0.60903  0.94306  1.0000
  H   H2221     1.0  0.88834  0.63051  0.61445  1.0000
  S   S269      1.0  0.87713  0.58814  0.90577  1.0000
  S   S270      1.0  0.91904  0.58132  0.90763  1.0000
  Fe  Fe137     1.0  0.75655  0.60360  0.95001  1.0000
  H   H2222     1.0  0.78558  0.55385  0.84360  1.0000
  Fe  Fe138     1.0  0.89290  0.61122  0.52843  1.0000
  S   S271      1.0  0.87703  0.58115  0.54882  1.0000
  S   S272      1.0  0.87641  0.63119  0.51513  1.0000
  Fe  Fe139     1.0  0.93248  0.60573  0.52341  1.0000
  S   S273      1.0  0.91828  0.57464  0.54365  1.0000
  H   H2223     1.0  0.82256  0.56077  0.73892  1.0000
  C   C1247     1.0  0.81560  0.55291  0.96643  1.0000
  Fe  Fe140     1.0  0.90350  0.58693  0.58609  1.0000
  S   S274      1.0  0.89830  0.57382  0.64399  1.0000
  S   S275      1.0  0.91887  0.61814  0.56814  1.0000
  Fe  Fe141     1.0  0.75829  0.60822  0.53495  1.0000
  S   S276      1.0  0.74431  0.59923  0.66687  1.0000
  C   C1248     1.0  0.85136  0.62864  0.51775  1.0000
  C   C1249     1.0  0.82718  0.64304  0.50311  1.0000
  S   S277      1.0  0.73941  0.61052  0.90369  1.0000
  C   C1250     1.0  0.81193  0.62673  0.51630  1.0000
  C   C1251     1.0  0.81648  0.61121  0.53085  1.0000
  C   C1252     1.0  0.83622  0.61213  0.53147  1.0000
  H   H2224     1.0  0.80482  0.59846  0.54091  1.0000
  H   H2225     1.0  0.83967  0.60009  0.54210  1.0000
  H   H2226     1.0  0.84378  0.59803  0.72295  1.0000
  H   H2227     1.0  0.80623  0.59421  0.88028  1.0000
  C   C1253     1.0  0.90372  0.59643  0.76505  1.0000
  C   C1254     1.0  0.90830  0.60974  0.73595  1.0000
  C   C1255     1.0  0.90706  0.60320  0.69891  1.0000
  C   C1256     1.0  0.90083  0.58315  0.69028  1.0000
  C   C1257     1.0  0.89598  0.56981  0.71932  1.0000
  C   C1258     1.0  0.89752  0.57637  0.75641  1.0000
  H   H2228     1.0  0.91310  0.62529  0.74215  1.0000
  H   H2229     1.0  0.91096  0.61369  0.67707  1.0000
  H   H2230     1.0  0.89115  0.55426  0.71311  1.0000
  H   H2231     1.0  0.89386  0.56590  0.77828  1.0000
  S   S278      1.0  0.73142  0.59548  0.49794  1.0000
  H   H2232     1.0  0.76095  0.55139  0.85488  1.0000
  N   N71       1.0  0.80787  0.61598  0.83984  1.0000
  H   H2233     1.0  0.74995  0.60470  0.80203  1.0000
  C   C1259     1.0  0.81711  0.60996  0.95299  1.0000
  C   C1260     1.0  0.83725  0.61238  0.95173  1.0000
  H   H2234     1.0  0.92503  0.66597  0.94238  1.0000
  H   H2235     1.0  0.81655  0.52899  0.93109  1.0000
  H   H2236     1.0  0.80575  0.59590  0.94635  1.0000
  H   H2237     1.0  0.84143  0.60027  0.94369  1.0000
  S   S279      1.0  0.87289  0.54498  0.96929  1.0000
  C   C1261     1.0  0.81112  0.63651  0.78107  1.0000
  H   H2238     1.0  0.84177  0.56276  0.79671  1.0000
  H   H2239     1.0  0.81387  0.64940  0.72719  1.0000
  S   S280      1.0  0.75320  0.58074  0.56563  1.0000
  H   H2240     1.0  0.81272  0.64993  0.89123  1.0000
  C   C1262     1.0  0.85201  0.63061  0.96120  1.0000
  C   C1263     1.0  0.80612  0.58598  0.69608  1.0000
  H   H2241     1.0  0.77796  0.58694  0.71098  1.0000
  H   H2242     1.0  0.79002  0.60796  0.78996  1.0000
  H   H2243     1.0  0.81109  0.60104  0.68533  1.0000
  H   H2244     1.0  0.84195  0.60453  0.84823  1.0000
  H   H2245     1.0  0.79940  0.54821  0.96360  1.0000
  C   C1264     1.0  0.78043  0.58128  0.84495  1.0000
  H   H2246     1.0  0.82395  0.65509  0.49184  1.0000
  S   S281      1.0  0.78771  0.62660  0.51073  1.0000
  C   C1265     1.0  0.80210  0.64652  0.86761  1.0000
  H   H2247     1.0  0.94648  0.68684  0.93106  1.0000
  C   C1266     1.0  0.80557  0.61618  0.79861  1.0000
  C   C1267     1.0  0.81075  0.63475  0.73916  1.0000
  C   C1268     1.0  0.80235  0.59485  0.85077  1.0000
  H   H2248     1.0  0.94788  0.66295  0.93179  1.0000
  H   H2249     1.0  0.82966  0.62699  0.88345  1.0000
  H   H2250     1.0  0.81790  0.55082  0.90728  1.0000
  H   H2251     1.0  0.86876  0.63674  0.63327  1.0000
  H   H2252     1.0  0.79608  0.62472  0.72870  1.0000
  Fe  Fe142     1.0  0.73609  0.59211  0.60517  1.0000
  C   C1269     1.0  0.84660  0.64401  0.50396  1.0000
  H   H2253     1.0  0.83897  0.55053  0.93281  1.0000
  C   C1270     1.0  0.78368  0.57761  0.69409  1.0000
  H   H2254     1.0  0.77810  0.64572  0.90297  1.0000
  C   C1271     1.0  0.79415  0.62411  0.85873  1.0000
  C   C1272     1.0  0.81185  0.62590  0.96309  1.0000
  H   H2255     1.0  0.77774  0.56250  0.70484  1.0000
  H   H2256     1.0  0.81398  0.60820  0.78504  1.0000
  H   H2257     1.0  0.84124  0.61059  0.66464  1.0000
  H   H2258     1.0  0.85767  0.66032  0.97887  1.0000
  C   C1273     1.0  0.82881  0.62707  0.85289  1.0000
  H   H2259     1.0  0.77828  0.57740  0.66534  1.0000
  S   S282      1.0  0.90594  0.60032  0.98048  1.0000
  C   C1274     1.0  0.86512  0.63258  0.85167  1.0000
  H   H2260     1.0  0.87600  0.62658  0.84137  1.0000
  H   H2261     1.0  0.82029  0.55332  0.61154  1.0000
  H   H2262     1.0  0.86907  0.64770  0.84145  1.0000
  H   H2263     1.0  0.84452  0.61926  0.80779  1.0000
  C   C1275     1.0  0.84568  0.57533  0.77789  1.0000
  H   H2264     1.0  0.86186  0.58317  0.77934  1.0000
  H   H2265     1.0  0.83849  0.58538  0.78737  1.0000
  C   C1276     1.0  0.83877  0.56792  0.73876  1.0000
  H   H2266     1.0  0.84493  0.55662  0.73167  1.0000
  H   H2267     1.0  0.87529  0.61127  0.66921  1.0000
  H   H2268     1.0  0.80828  0.55783  0.68358  1.0000
  H   H2269     1.0  0.85858  0.56778  0.65940  1.0000
  H   H2270     1.0  0.86206  0.58910  0.71020  1.0000
  Fe  Fe143     1.0  0.89298  0.57149  0.50499  1.0000
  H   H2271     1.0  0.81106  0.54139  0.50444  1.0000
  H   H2272     1.0  0.80861  0.57214  0.64500  1.0000
  H   H2273     1.0  0.85943  0.54722  0.60474  1.0000
  C   C1277     1.0  0.84585  0.58488  0.71109  1.0000
  C   C1278     1.0  0.82269  0.54529  0.93240  1.0000
  H   H2274     1.0  0.82604  0.64660  0.78971  1.0000
  C   C1279     1.0  0.82670  0.64392  0.97222  1.0000
  H   H2275     1.0  0.83577  0.55031  0.67170  1.0000
  H   H2276     1.0  0.83546  0.55875  0.51511  1.0000
  H   H2277     1.0  0.77470  0.65067  0.85530  1.0000
  H   H2278     1.0  0.84309  0.57155  0.59768  1.0000
  H   H2279     1.0  0.86606  0.63311  0.88215  1.0000
  H   H2280     1.0  0.83632  0.59631  0.62366  1.0000
  S   S283      1.0  0.96503  0.61402  0.50717  1.0000
  N   N72       1.0  0.83685  0.58015  0.67290  1.0000
  C   C1280     1.0  0.81472  0.57309  0.67347  1.0000
  C   C1281     1.0  0.84250  0.56410  0.65631  1.0000
  H   H2281     1.0  0.86446  0.62121  0.59249  1.0000
  S   S284      1.0  0.74887  0.57218  0.93277  1.0000
  C   C1282     1.0  0.84451  0.61946  0.83823  1.0000
  H   H2282     1.0  0.78047  0.56131  0.88873  1.0000
  H   H2283     1.0  0.81089  0.58772  0.83511  1.0000
  H   H2284     1.0  0.83914  0.53914  0.57223  1.0000
  H   H2285     1.0  0.87123  0.59585  0.62859  1.0000
  C   C1283     1.0  0.84322  0.54251  0.60175  1.0000
  H   H2286     1.0  0.79180  0.66939  0.88482  1.0000
  C   C1284     1.0  0.87232  0.62492  0.61944  1.0000
  H   H2287     1.0  0.82215  0.62925  0.72985  1.0000
  H   H2288     1.0  0.81054  0.58680  0.72549  1.0000
  H   H2289     1.0  0.83618  0.52892  0.61747  1.0000
  C   C1285     1.0  0.86667  0.60677  0.64317  1.0000
  C   C1286     1.0  0.84433  0.59853  0.65059  1.0000
  C   C1287     1.0  0.83646  0.55873  0.61538  1.0000
  H   H2290     1.0  0.77607  0.57968  0.81542  1.0000
  C   C1288     1.0  0.74726  0.60190  0.74260  1.0000
  H   H2291     1.0  0.83386  0.64279  0.84604  1.0000
  S   S285      1.0  0.74247  0.62050  0.57516  1.0000
  H   H2292     1.0  0.75664  0.61700  0.73830  1.0000
  C   C1289     1.0  0.74352  0.59497  0.77881  1.0000
  S   S286      1.0  0.78732  0.62495  0.96507  1.0000
  H   H2293     1.0  0.78016  0.62019  0.84254  1.0000
  H   H2294     1.0  0.78983  0.61717  0.88592  1.0000
  H   H2295     1.0  0.80023  0.64306  0.78855  1.0000
  H   H2296     1.0  0.77051  0.58698  0.85984  1.0000
  C   C1290     1.0  0.94129  0.67261  0.94530  1.0000
  C   C1291     1.0  0.78560  0.65341  0.87825  1.0000
  H   H2297     1.0  0.80977  0.65539  0.84429  1.0000
  Fe  Fe144     1.0  0.73033  0.57863  0.88845  1.0000
  H   H2298     1.0  0.82228  0.56909  0.96641  1.0000
  H   H2299     1.0  0.72841  0.67022  0.87602  1.0000
  C   C1292     1.0  0.82509  0.55096  0.49238  1.0000
  H   H2300     1.0  0.82288  0.65630  0.98016  1.0000
  C   C1293     1.0  0.73153  0.57543  0.78477  1.0000
  C   C1294     1.0  0.84650  0.64623  0.97143  1.0000
  S   S287      1.0  0.96326  0.61782  0.96931  1.0000
  H   H2301     1.0  0.97361  0.65660  0.50293  1.0000
  H   H2302     1.0  0.73777  0.65077  0.87299  1.0000
  H   H2303     1.0  0.85805  0.65681  0.49340  1.0000
  C   C1295     1.0  0.73886  0.58953  0.71184  1.0000
  C   C1296     1.0  0.72676  0.57005  0.71788  1.0000
  H   H2304     1.0  0.75352  0.65424  0.48738  1.0000
  S   S288      1.0  0.72649  0.56561  0.82971  1.0000
