data_image0
_chemical_formula_structural       SH2NSH2CH2CH3FeCH2CS2FeH3CHCHSHCHFeC2HCH2CHNHSHSCH3CHCHCH2CSFeCFeSHCH5C6H3CH6C2HCSC2H2CHSC2HCHC2H2CFeHCFeH5CH3CHC2H7SH3SH5CH3SCH3CH2FeSHSHFeSFeS2FeS2CHCH2CFeHC2HS2H3CH2CH4C4H6CH3SCHC2H2CHC6H4CH2C3H3CHCHC2H2CHCH4NC10SCH23CH4SNHC2HC2H6CH2CH2CH2C2H4C2H4CHFeHCHCH7CHNHCHCHCH2C2H4CH4C2HCH2NH3CHFeH2CH3SCHCH2CNCHCH7CH4FeC2H3FeCSCHCH3SH2SCFeSH2SFeS4FeSCFeHFeH2CHCHCHC2H2CHSCSCH2SH2C8H4C2H4CH2SH3SCH2FeCH3CH5S2H2CFeH5C2FeH4C4HCHC2HCSHCHCH2NH2CH2NH2C3H3CH2C2H3SH2FeS2FeSCFeSFeS3H2FeCFeCSH3SC6H2SNC2HCH3C6H4C6H5C2HCHC2HCH2NCH2CHC2H3SH5C2H10CHSH2NHC3HC2HNHC2HCH8FeH4CHCHCHC2HCH9C2HSH4C2H2SC2HSC2H10C2H2CFeH2CH2CH3C2NCHCH4SHCH6FeS2FeSHFeHFeHS2FeS2FeS2FeSFeS3H2CHC2SFeS2H3NHSC5H3CHC6H4C6H6C7H3C2HFeHCH5C2HNC2HCHCH3SC2H11CH2FeH2NH2CHFeH5NC4H8SH6C2HCHCH2CHCH2CHCSH4C3H8CH3CHCH6C2H4CHCHC2H4C3HNCHSHCH4CH3C2H3CH3NH3C2H4C6H2CHCH4SH4CHCHCH4SH2C2HC4H2CHCH2CH2CH3CH2SCSHFeS2FeHSFeS2FeSFeS2HSHCSFeS2FeS2C6H3C6H3C3H2C6H4CH6C4HCH2CSH5CSCH2CHCHSCHC3HCH3CH2CH4CH3FeH2SH5CH3CH3C3H7CHSCHCH3CH3CH3C3H6C2H4SC3HCNC12H16CFeH10CNCFeCH4C2SCH2CH2FeH2CFeH2C3H3NHC4HCHSCNCFeH7CH3C2H3SCH8CHCHNHC2H9C4H2CHCSH2CHC3H5FeC2H2CHCHCH10FeHSFeH2CS2FeS2FeSHFeS2H3SHFeSFeSH4FeSHFeS2FeSFeS3C6SH3C6H4FeCSHC6H4CH3C2HCH3C6H4C3H3C6HCHC2H10NHFeH4CH3CHC2HCH4CH4CSH3NC7H18NC12H17NH4CH6CHCH3CSCH3FeHCHNCH2C2HCHCH2CH3CHNCHCH4C2HC3H2CSHCHSCHSH2NCH3CH2C3H2C2H2CH3CHCSH3CHCH7CH3C3HCH3CHCH3CH4C2HC2Fe2SFeNSCHC2S2CFeS2HFeS3CHCH2C6H4C2HCH5C2H2CHCSH8CHCFeCHCHC3H2NC12H28NC9H16C2H2CH4SH2CH8SCHCHCH4FeCH10CSHCHFeH2CH5CH2SH3CH2SC3HCFeS2FeS2FeS2FeSFeS3C6H4C7H2C6H5CH4CH3FeH2C2H8CHCH5CH4SH2SH2CH2CHCHC2HFeHCH3CHCNCH2CHNHCHCH2SCSHSCH3CHC2H4C5H10C2HCH2CHNH5C3H13SCH2CH3C2HC2H2C2H3CFeH3CHCS2FeS2Fe2S3CSFeS2HNSFeS2H6CHSHC3HSC7H4C6H4C6H2C6H5CNH2C10H8CH4C2FeC7H2CH4CHSC2H4C3H3CH6NC4SC2HCHFeH5CH3SH11CH2SCH3SH5CH3CH4FeH5CH2C2H7NH2C2H2CHNHCH3C2HC2H2CHC2HCHCH2CH2CH4SH2NH5NH2CH2CHCH4CH5C2H3CHSH2C4H3SH3C2H3SCHCHCH2C2HSH2FeH3CH7CFeH2CH3CH2SFe2S2CFeHFeHS2FeSFeS2FeHFeS3HNHC6H4C2H6C7H4C2HC2H6NC12H28CH2CHSH3CH2C3H3C3H2CH2SH2SH2C5HCHC4H2CSHCH2CH2CHC2H2CH5CHCH4CHCH2NH4CH7CHSCH4CH3CHSFeS2FeSFeS4C2H2C2HC6H4SFeS2H2FeS2FeSHFe2SHSFeS2Fe2SFeS2C6H9C6HSH2C4H4NC6HC4H3FeH4CH4C2H2NH4CH7C2H9CHC3H2C3NH7C2H6CH3CH2CSH5CH2C2NH2C2HC3H2NH2CH5CH2C4HSH2CH8CH2CH5FeH3CNH2CH8CH4CH2C2SH2C2H2C3H2CHCSH2CH5CH2CH5CH2C2H2C2SH4CHCHCHSCH2CH4CH2CH2FeSHFeSFe2SFeS3Fe2S2CHSHCH3C5H2C2HSH6C2HC2HCHC6H4CHN2HSH2C2FeH4C2H3CHC2FeSH2CH2CHCH3C3H2CH3CH3SH4C2HCHCH5CHC2H2CH6CH3CHCH4C4HCHCH5CHC2HCH4NC2H2CHCH3C2H3CSHCHC2NHCHCH2C2H5C2HCHCHC2H2CH2SH7CHS2H9CH2CHCHS2FeS2FeHFeHS2HCHFeS3FeS2FeS2FeSFeS3FeS2C2HC6H4CHCHSH3C6H6CHC3HSH2C2H4FeC7H6CHNC10HCH20NHCH6C5H2C3HFeH3C2HCH3NH4CH2CHCH8CHCH2CFeCH2SC5FeNH3CH7FeH5C2HCHCHC4HCH17C2HCH5C2H4C2H2C2H3C4H2NH5CH5SH2NH2CH8C2HSH3CH5CHCH4C2HCHC6HCHC2HCH4CH3CFeSHFeSHFeS2HFeS2FeS2FeSFeCS2H6SC6H4CH2C6H5SC6H4C2H3NH2C2HC2HCH2CHCHC2H4CH5CH3CFeCH5CH5CH5C3HC2H5CH3C3H3CHCHNH2CH2CHNH2CH7CHCNH4C3HCH7CHCH2CH5CH2C3H4C2H2CH5C2HC2HCH3C3H3CHCHCH5C2HC2H4SH3NH4CH2C3H7SCHCHC2FeS3FeSFeS3HCH3FeHFeNSFeHFeS2HNC3H2SH2CH6C8H4C3H2C6H8CH4CHCHCH4CH2CH2C4HCH2NC3H4CH3C2HC2H6CH2CHCH5CHCHCNH4CHC6SH2C2H8CHC2H7CNCH3CHCFeH2CHFeC2HC2H5CHSCHCH11CH2CSCH2CH6C2HC2H2CNH5CHCH2CHCH2C3H8CH2CH2C4H4C2H2CH4SHCSFeS2Fe2SFeS2H2C2S2H4CSCH4CHNH2C6H4C4HCH2C3H5FeH3FeC2H8CH4CH2C2H2CH4CHCH2SC3HSH2CH3CH3CH2C2SH2CHC2H2NCHCH2CHCH4C2H2FeCHNH5CHCHCH3C2HCH6SCH4C2H2C2H2C2H5C2H3CH3CH3CHC2HC2H2CH3C2NHCHC2HCHFeH2FeH2SHC2HSCH2CHCH3FeS2FeS2FeSFeS3HC2H2SCH8SCHFeS2H2C3HCH3C6H4C7H4C4HCH2CHC3HCH2C3H4CHC2H3NH6CH2C2H2CH4CHCH3CHCH4C2H4CS2H9NC3H7CH7CH3CH5C6HSCNC11H21C2H3CH5CHSCH3NCHC2HC2H2CHCH2CH2CH3CH3NHC2HCH5C3H3SH8CH2CH2CH3CHSH2CHSH2CNC2H3C3H4CH2SH5CSCSC3NCHCHC6H13CH11C2HC2H4CHCH3CH2CH5CHCH2CH2CH9C2H2C2HFeHSCHC2H4CSH2CHCH4C2H2CH4CH6CH8S3FeSFeSCFeS2FeSFeSH2CHFeSCH2C6H4CH2C5H2CH3CHCHC2H3C3SH2CHNH3C2H3CH2CH3FeH6C2HSHC2H3CH2CHC2H3CH3SH8CH4CH5CH2CH3CH2CHC2H3CH2C2HC3H8SCH3SH4CH2CH2CH2FeNH2CHSHNCSHCSHCH3CH8FeSCFeS2FeS2FeSFeS3CH2SHC6H5C7H4C4HNH3CHC2H5C3HCHC3H7CHC2HCHCH3CH7C2H3SHC4SH2C2H6CHCHSH2C2H6CHSH6CH2CHC2H4CHC2H5CH3C2H3SH5CHC2H2CHNCH9CH3SHCHSC4H10CHCH3CHSFeSHFeSFeSFeS3H2SCHCFeS2FeS2FeS3FeSH5CH2C6H5C8H6CH2C2H3C7H9C6H3FeH6CH4CH3SH3SH2NCHC2SH2SHC2HC9SHCH2CH3CH3NH3N2C2HC2SCHC2SH2CH3CHCH3NC11H31NC12H19CH2CFeSH3C3HNFeCH2CHNFeH13CH6CH2C2H6CHC3H3C3HC2H11CHC2HCHC2HCH4C2H2C2H3CH6CH2CNCHSH4CH2FeC2NHC4H9CH7SCH4SHFeSHFeS2FeS2FeS2CFeSCSCHC2HSC2HCH2CHC6H6C2H3CH2C6H4C3H4SCHCHFeCH4CH2C3H4CH6NH9CH2CHNSCHCH2CH2C2H7C3HCHSHCHCH5C3HCH5C4H3FeH4CH4NHCHCH3C2HC2H2FeC2NHCH3CHC2HNC3H5CHC4H2CH2CHC2H7NHFeS2FeSCFeSFeS3FeSCFeS2Fe2S3CFeS2Fe2SFeS2FeSCSC6H4C2HC4H4CH2C6H4C2HCHCHFeC6H4NC12H20C2H8CHCH4C2H3CH2NH13CH3NH5SH5C2H2CH5C2H3SCH3C2HC4HNHNH3CH2CH3CH2C2H2CHCH3CH2SH3C2HCH3CH2CH2CSH2C3H3CHCHSHCH3CFeH2C2H7CH4SCH2C3H2
_chemical_formula_sum              "S448 H3584 N112 C2016 Fe224"
_cell_length_a       47.3982
_cell_length_b       48.173
_cell_length_c       87.1525
_cell_angle_alpha    86.0292
_cell_angle_beta     85.7762
_cell_angle_gamma    114.617

_space_group_name_H-M_alt    "P 1"
_space_group_IT_number       1

loop_
  _space_group_symop_operation_xyz
  'x, y, z'

loop_
  _atom_site_type_symbol
  _atom_site_label
  _atom_site_symmetry_multiplicity
  _atom_site_fract_x
  _atom_site_fract_y
  _atom_site_fract_z
  _atom_site_occupancy
  S   S1        1.0  0.40393  0.16718  0.07305  1.0000
  H   H1        1.0  0.36878  0.06252  0.04670  1.0000
  H   H2        1.0  0.42930  0.21369  0.15214  1.0000
  N   N1        1.0  0.34762  0.04416  0.07025  1.0000
  S   S2        1.0  0.34543  0.03766  0.20231  1.0000
  H   H3        1.0  0.36996  0.17071  0.15999  1.0000
  H   H4        1.0  0.37157  0.11443  0.09510  1.0000
  C   C1        1.0  0.38250  0.19313  0.12290  1.0000
  H   H5        1.0  0.39025  0.11529  0.03419  1.0000
  H   H6        1.0  0.35478  0.20280  0.14728  1.0000
  C   C2        1.0  0.34798  0.18313  0.10106  1.0000
  H   H7        1.0  0.34262  0.22762  0.17003  1.0000
  H   H8        1.0  0.34990  0.10938  0.03392  1.0000
  H   H9        1.0  0.43948  0.25807  0.13477  1.0000
  Fe  Fe1       1.0  0.41090  0.07647  0.14919  1.0000
  C   C3        1.0  0.38954  0.29515  0.10981  1.0000
  H   H10       1.0  0.38469  0.09647  0.11984  1.0000
  H   H11       1.0  0.37723  0.14205  0.04205  1.0000
  C   C4        1.0  0.35118  0.06406  0.05536  1.0000
  S   S3        1.0  0.42481  0.06366  0.17192  1.0000
  S   S4        1.0  0.41053  0.03586  0.13795  1.0000
  Fe  Fe2       1.0  0.42995  0.25046  0.02903  1.0000
  H   H12       1.0  0.32620  0.16831  0.10865  1.0000
  H   H13       1.0  0.43858  0.22566  0.10535  1.0000
  H   H14       1.0  0.33173  0.07205  0.08384  1.0000
  C   C5        1.0  0.44282  0.17310  0.09607  1.0000
  H   H15       1.0  0.32879  0.05570  0.05004  1.0000
  C   C6        1.0  0.36493  0.24814  0.16634  1.0000
  H   H16       1.0  0.30861  0.29983  0.09459  1.0000
  S   S5        1.0  0.40575  0.25438  0.00781  1.0000
  H   H17       1.0  0.41104  0.26009  0.15540  1.0000
  C   C7        1.0  0.40553  0.29526  0.09551  1.0000
  H   H18       1.0  0.38288  0.10790  0.06292  1.0000
  Fe  Fe3       1.0  0.37320  0.03725  0.17957  1.0000
  C   C8        1.0  0.39018  0.16798  0.15430  1.0000
  C   C9        1.0  0.44993  0.16327  0.11027  1.0000
  H   H19       1.0  0.30561  0.02621  0.23067  1.0000
  C   C10       1.0  0.39371  0.12784  0.09918  1.0000
  H   H20       1.0  0.34183  0.19429  0.09107  1.0000
  H   H21       1.0  0.38120  0.14916  0.14676  1.0000
  C   C11       1.0  0.40103  0.11773  0.11323  1.0000
  H   H22       1.0  0.27108  0.01475  0.99942  1.0000
  N   N2        1.0  0.39998  0.21434  0.13431  1.0000
  H   H23       1.0  0.36968  0.27454  0.11487  1.0000
  S   S6        1.0  0.43844  0.12458  0.13686  1.0000
  H   H24       1.0  0.36044  0.26458  0.15842  1.0000
  S   S7        1.0  0.45213  0.21847  0.03471  1.0000
  C   C12       1.0  0.42907  0.13557  0.11889  1.0000
  H   H25       1.0  0.42966  0.19069  0.13732  1.0000
  H   H26       1.0  0.39017  0.22381  0.10157  1.0000
  H   H27       1.0  0.35890  0.16853  0.09656  1.0000
  C   C13       1.0  0.38908  0.23893  0.15838  1.0000
  H   H28       1.0  0.35761  0.22038  0.11474  1.0000
  C   C14       1.0  0.45003  0.23942  0.11461  1.0000
  H   H29       1.0  0.37120  0.23928  0.13652  1.0000
  C   C15       1.0  0.37028  0.11736  0.04068  1.0000
  H   H30       1.0  0.37383  0.25956  0.17674  1.0000
  H   H31       1.0  0.34313  0.10335  0.06280  1.0000
  C   C16       1.0  0.41451  0.15553  0.09055  1.0000
  S   S8        1.0  0.35981  0.05399  0.15758  1.0000
  Fe  Fe4       1.0  0.43070  0.21407  0.05923  1.0000
  C   C17       1.0  0.36193  0.09889  0.05665  1.0000
  Fe  Fe5       1.0  0.44800  0.28251  0.05859  1.0000
  S   S9        1.0  0.40507  0.24294  0.05313  1.0000
  H   H32       1.0  0.38241  0.07425  0.08351  1.0000
  C   C18       1.0  0.42592  0.24345  0.12618  1.0000
  H   H33       1.0  0.41617  0.25762  0.11984  1.0000
  H   H34       1.0  0.39710  0.18285  0.11722  1.0000
  H   H35       1.0  0.41193  0.17443  0.17577  1.0000
  H   H36       1.0  0.39811  0.27480  0.08959  1.0000
  H   H37       1.0  0.36188  0.17315  0.12909  1.0000
  C   C19       1.0  0.32374  0.04778  0.08140  1.0000
  C   C20       1.0  0.41394  0.19787  0.14446  1.0000
  C   C21       1.0  0.37892  0.05480  0.07655  1.0000
  C   C22       1.0  0.40544  0.15774  0.16704  1.0000
  C   C23       1.0  0.37742  0.22310  0.14371  1.0000
  C   C24       1.0  0.37042  0.20768  0.10997  1.0000
  H   H38       1.0  0.39324  0.22330  0.16694  1.0000
  H   H39       1.0  0.38881  0.13489  0.17291  1.0000
  H   H40       1.0  0.47745  0.04679  0.10021  1.0000
  C   C25       1.0  0.37855  0.02912  0.22597  1.0000
  H   H41       1.0  0.36565  0.01691  0.09554  1.0000
  H   H42       1.0  0.42671  0.15575  0.16212  1.0000
  H   H43       1.0  0.43334  0.21400  0.99674  1.0000
  H   H44       1.0  0.45913  0.19433  0.08945  1.0000
  H   H45       1.0  0.47166  0.17723  0.11459  1.0000
  H   H46       1.0  0.29428  0.05616  0.10844  1.0000
  C   C26       1.0  0.00364  0.31953  0.22993  1.0000
  C   C27       1.0  0.36368  0.11763  0.22918  1.0000
  H   H47       1.0  0.41016  0.13804  0.21621  1.0000
  C   C28       1.0  0.43068  0.32215  0.08872  1.0000
  S   S10       1.0  0.45075  0.32392  0.07054  1.0000
  C   C29       1.0  0.42283  0.22057  0.98738  1.0000
  C   C30       1.0  0.33516  0.01121  0.06663  1.0000
  H   H48       1.0  0.33342  0.30468  0.10981  1.0000
  H   H49       1.0  0.00806  0.30055  0.22630  1.0000
  C   C31       1.0  0.39866  0.32179  0.11743  1.0000
  H   H50       1.0  0.39839  0.06444  0.06695  1.0000
  S   S11       1.0  0.37806  0.32057  0.13540  1.0000
  C   C32       1.0  0.03782  0.31214  0.05793  1.0000
  C   C33       1.0  0.38700  0.11867  0.21581  1.0000
  H   H51       1.0  0.39709  0.03245  0.21701  1.0000
  C   C34       1.0  0.40798  0.23990  0.98977  1.0000
  H   H52       1.0  0.45828  0.00451  0.20892  1.0000
  C   C35       1.0  0.31577  0.02915  0.09754  1.0000
  C   C36       1.0  0.35086  0.02982  0.22187  1.0000
  H   H53       1.0  0.01961  0.29369  0.06620  1.0000
  H   H54       1.0  0.33603  0.03829  0.10432  1.0000
  C   C37       1.0  0.41452  0.04543  0.09463  1.0000
  Fe  Fe6       1.0  0.36013  0.01198  0.14779  1.0000
  H   H55       1.0  0.46292  0.22807  0.12058  1.0000
  C   C38       1.0  0.35416  0.00515  0.05301  1.0000
  Fe  Fe7       1.0  0.42093  0.02132  0.16117  1.0000
  H   H56       1.0  0.30153  0.04186  0.07607  1.0000
  H   H57       1.0  0.37838  0.12182  0.20460  1.0000
  H   H58       1.0  0.26707  0.02215  0.10088  1.0000
  H   H59       1.0  0.41169  0.06134  0.10261  1.0000
  H   H60       1.0  0.16643  0.31229  0.09152  1.0000
  C   C39       1.0  0.28852  0.03180  0.10681  1.0000
  H   H61       1.0  0.46274  0.28215  0.09972  1.0000
  H   H62       1.0  0.28371  0.01859  0.11842  1.0000
  H   H63       1.0  0.34062  0.09934  0.22746  1.0000
  C   C40       1.0  0.38518  0.03040  0.08653  1.0000
  H   H64       1.0  0.43518  0.05829  0.08598  1.0000
  C   C41       1.0  0.32631  0.31708  0.10079  1.0000
  C   C42       1.0  0.32708  0.02560  0.23372  1.0000
  H   H65       1.0  0.38972  0.09681  0.21631  1.0000
  H   H66       1.0  0.04386  0.30146  0.04807  1.0000
  H   H67       1.0  0.31072  0.00331  0.06367  1.0000
  H   H68       1.0  0.45865  0.31436  0.00074  1.0000
  H   H69       1.0  0.37966  0.01863  0.05312  1.0000
  H   H70       1.0  0.00533  0.32268  0.04578  1.0000
  H   H71       1.0  0.47433  0.07356  0.12294  1.0000
  S   S12       1.0  0.47099  0.29257  0.03404  1.0000
  H   H72       1.0  0.98791  0.26637  0.99437  1.0000
  H   H73       1.0  0.36207  0.13996  0.22820  1.0000
  H   H74       1.0  0.41846  0.02737  0.10154  1.0000
  S   S13       1.0  0.45572  0.00037  0.16269  1.0000
  H   H75       1.0  0.45902  0.01513  0.12635  1.0000
  H   H76       1.0  0.46282  0.13286  0.07895  1.0000
  H   H77       1.0  0.47205  0.10307  0.10073  1.0000
  H   H78       1.0  0.34762  0.01191  0.04182  1.0000
  H   H79       1.0  0.47647  0.99948  0.11234  1.0000
  C   C43       1.0  0.47415  0.27056  0.10678  1.0000
  H   H80       1.0  0.09028  0.32588  0.14262  1.0000
  H   H81       1.0  0.38869  0.01394  0.07917  1.0000
  H   H82       1.0  0.30897  0.00447  0.09665  1.0000
  S   S14       1.0  0.47195  0.25318  0.06636  1.0000
  C   C44       1.0  0.48117  0.01892  0.11941  1.0000
  H   H83       1.0  0.36558  0.32372  0.08455  1.0000
  H   H84       1.0  0.05916  0.32374  0.06375  1.0000
  H   H85       1.0  0.31571  0.33076  0.10667  1.0000
  C   C45       1.0  0.48216  0.02239  0.20487  1.0000
  H   H86       1.0  0.48238  0.03091  0.19267  1.0000
  H   H87       1.0  0.26081  0.33011  0.99757  1.0000
  Fe  Fe8       1.0  0.31314  0.30998  0.32460  1.0000
  S   S15       1.0  0.27279  0.26418  0.33198  1.0000
  H   H88       1.0  0.09696  0.18343  0.24266  1.0000
  S   S16       1.0  0.26664  0.25423  0.29514  1.0000
  H   H89       1.0  0.39975  0.07590  0.28954  1.0000
  Fe  Fe9       1.0  0.24901  0.27745  0.31291  1.0000
  S   S17       1.0  0.19701  0.26679  0.31933  1.0000
  Fe  Fe10      1.0  0.29328  0.24475  0.31364  1.0000
  S   S18       1.0  0.30878  0.20576  0.31862  1.0000
  S   S19       1.0  0.33478  0.29021  0.30717  1.0000
  Fe  Fe11      1.0  0.29035  0.02835  0.31413  1.0000
  S   S20       1.0  0.34149  0.03886  0.31326  1.0000
  S   S21       1.0  0.26816  0.06261  0.31188  1.0000
  C   C46       1.0  0.39890  0.25100  0.44269  1.0000
  H   H90       1.0  0.43173  0.99925  0.41225  1.0000
  C   C47       1.0  0.25595  0.04087  0.47747  1.0000
  H   H91       1.0  0.38541  0.15971  0.25979  1.0000
  H   H92       1.0  0.30931  0.30616  0.36927  1.0000
  C   C48       1.0  0.33086  0.02067  0.24945  1.0000
  Fe  Fe12      1.0  0.04554  0.30620  0.30591  1.0000
  H   H93       1.0  0.39505  0.27340  0.47057  1.0000
  C   C49       1.0  0.29758  0.07710  0.27247  1.0000
  C   C50       1.0  0.12440  0.20987  0.29135  1.0000
  H   H94       1.0  0.34760  0.14082  0.28597  1.0000
  S   S22       1.0  0.00954  0.28466  0.28953  1.0000
  S   S23       1.0  0.01119  0.28171  0.32713  1.0000
  H   H95       1.0  0.15873  0.20093  0.25678  1.0000
  H   H96       1.0  0.41644  0.04213  0.40808  1.0000
  H   H97       1.0  0.40418  0.02447  0.24472  1.0000
  C   C51       1.0  0.08929  0.31654  0.25049  1.0000
  H   H98       1.0  0.31946  0.31085  0.39676  1.0000
  H   H99       1.0  0.44158  0.09398  0.42941  1.0000
  C   C52       1.0  0.26369  0.06278  0.26894  1.0000
  H   H100      1.0  0.06567  0.23604  0.29434  1.0000
  H   H101      1.0  0.20547  0.18216  0.31644  1.0000
  H   H102      1.0  0.25496  0.00140  0.46731  1.0000
  H   H103      1.0  0.42611  0.03273  0.45035  1.0000
  C   C53       1.0  0.41848  0.00449  0.42175  1.0000
  C   C54       1.0  0.38252  0.02466  0.24170  1.0000
  C   C55       1.0  0.36392  0.09833  0.27308  1.0000
  C   C56       1.0  0.20599  0.25086  0.26745  1.0000
  H   H104      1.0  0.46161  0.10278  0.39414  1.0000
  H   H105      1.0  0.17550  0.15192  0.30805  1.0000
  H   H106      1.0  0.47512  0.03509  0.43422  1.0000
  H   H107      1.0  0.30281  0.31506  0.43453  1.0000
  H   H108      1.0  0.46046  0.02686  0.35535  1.0000
  H   H109      1.0  0.20073  0.31434  0.29489  1.0000
  C   C57       1.0  0.16385  0.19021  0.28613  1.0000
  H   H110      1.0  0.48007  0.03773  0.40779  1.0000
  H   H111      1.0  0.41248  0.31154  0.41579  1.0000
  H   H112      1.0  0.33750  0.22297  0.48112  1.0000
  S   S24       1.0  0.46966  0.99833  0.38345  1.0000
  C   C58       1.0  0.17038  0.28239  0.31386  1.0000
  H   H113      1.0  0.44011  0.30807  0.45051  1.0000
  C   C59       1.0  0.11769  0.28082  0.31766  1.0000
  C   C60       1.0  0.12478  0.30282  0.30489  1.0000
  H   H114      1.0  0.38941  0.23547  0.43367  1.0000
  H   H115      1.0  0.30749  0.24843  0.41391  1.0000
  C   C61       1.0  0.31498  0.31035  0.45739  1.0000
  H   H116      1.0  0.08181  0.22181  0.30942  1.0000
  C   C62       1.0  0.29751  0.16627  0.31588  1.0000
  C   C63       1.0  0.31762  0.15256  0.31961  1.0000
  C   C64       1.0  0.30942  0.12114  0.31819  1.0000
  C   C65       1.0  0.28075  0.10282  0.31317  1.0000
  C   C66       1.0  0.26091  0.11665  0.30919  1.0000
  C   C67       1.0  0.26922  0.14814  0.31047  1.0000
  H   H117      1.0  0.33957  0.16627  0.32379  1.0000
  H   H118      1.0  0.32495  0.11094  0.32131  1.0000
  H   H119      1.0  0.23868  0.10277  0.30528  1.0000
  H   H120      1.0  0.25347  0.15821  0.30757  1.0000
  C   C68       1.0  0.00113  0.32327  0.24581  1.0000
  H   H121      1.0  0.44460  0.25250  0.43506  1.0000
  H   H122      1.0  0.08105  0.14293  0.24907  1.0000
  C   C69       1.0  0.35880  0.02050  0.25353  1.0000
  C   C70       1.0  0.19400  0.17579  0.30573  1.0000
  C   C71       1.0  0.32030  0.09232  0.25750  1.0000
  H   H123      1.0  0.32171  0.28551  0.42099  1.0000
  H   H124      1.0  0.31076  0.10587  0.25043  1.0000
  H   H125      1.0  0.21194  0.17686  0.29647  1.0000
  C   C72       1.0  0.18003  0.19816  0.30110  1.0000
  H   H126      1.0  0.13532  0.22125  0.25807  1.0000
  C   C73       1.0  0.33580  0.32769  0.38781  1.0000
  H   H127      1.0  0.05931  0.19626  0.29620  1.0000
  C   C74       1.0  0.17771  0.30487  0.30128  1.0000
  C   C75       1.0  0.40542  0.10052  0.29045  1.0000
  H   H128      1.0  0.35894  0.07391  0.27179  1.0000
  H   H129      1.0  0.34987  0.09733  0.28403  1.0000
  C   C76       1.0  0.14021  0.27052  0.32199  1.0000
  H   H130      1.0  0.38145  0.24035  0.45311  1.0000
  C   C77       1.0  0.13987  0.20290  0.26439  1.0000
  H   H131      1.0  0.40525  0.13955  0.27725  1.0000
  H   H132      1.0  0.39154  0.10253  0.30080  1.0000
  H   H133      1.0  0.08988  0.17269  0.27139  1.0000
  H   H134      1.0  0.38096  0.19597  0.27767  1.0000
  N   N3        1.0  0.37446  0.26341  0.35415  1.0000
  C   C78       1.0  0.39862  0.29629  0.35322  1.0000
  C   C79       1.0  0.36958  0.25334  0.33809  1.0000
  C   C80       1.0  0.34402  0.26241  0.36139  1.0000
  C   C81       1.0  0.38269  0.24166  0.36419  1.0000
  C   C82       1.0  0.41523  0.24216  0.36008  1.0000
  C   C83       1.0  0.40609  0.30969  0.36890  1.0000
  C   C84       1.0  0.31481  0.23128  0.36202  1.0000
  C   C85       1.0  0.39841  0.26644  0.32561  1.0000
  C   C86       1.0  0.39173  0.24953  0.31115  1.0000
  C   C87       1.0  0.42240  0.22283  0.37253  1.0000
  S   S25       1.0  0.36541  0.01560  0.27317  1.0000
  C   C88       1.0  0.28613  0.23276  0.37049  1.0000
  H   H135      1.0  0.39100  0.31157  0.34609  1.0000
  H   H136      1.0  0.42118  0.29937  0.34707  1.0000
  H   H137      1.0  0.35900  0.22779  0.33869  1.0000
  H   H138      1.0  0.35222  0.26023  0.33303  1.0000
  H   H139      1.0  0.33853  0.28006  0.35495  1.0000
  H   H140      1.0  0.34586  0.26829  0.37350  1.0000
  H   H141      1.0  0.38033  0.24548  0.37658  1.0000
  H   H142      1.0  0.36571  0.21750  0.36369  1.0000
  H   H143      1.0  0.43421  0.26570  0.35900  1.0000
  H   H144      1.0  0.41562  0.23193  0.34909  1.0000
  H   H145      1.0  0.38579  0.31228  0.37459  1.0000
  H   H146      1.0  0.41243  0.29489  0.37692  1.0000
  H   H147      1.0  0.31818  0.21229  0.36828  1.0000
  H   H148      1.0  0.30933  0.22529  0.35020  1.0000
  H   H149      1.0  0.40453  0.29105  0.32200  1.0000
  H   H150      1.0  0.41915  0.26493  0.32988  1.0000
  H   H151      1.0  0.41281  0.25927  0.30254  1.0000
  H   H152      1.0  0.38527  0.22466  0.31408  1.0000
  H   H153      1.0  0.37238  0.25220  0.30575  1.0000
  H   H154      1.0  0.44531  0.22258  0.36905  1.0000
  H   H155      1.0  0.42353  0.23260  0.38377  1.0000
  H   H156      1.0  0.40423  0.19873  0.37401  1.0000
  H   H157      1.0  0.46605  0.02213  0.46316  1.0000
  C   C89       1.0  0.37394  0.11100  0.24506  1.0000
  H   H158      1.0  0.46628  0.05866  0.39554  1.0000
  H   H159      1.0  0.37450  0.08804  0.24513  1.0000
  H   H160      1.0  0.13337  0.21845  0.30235  1.0000
  H   H161      1.0  0.30262  0.05847  0.27802  1.0000
  S   S26       1.0  0.46355  0.12233  0.46967  1.0000
  N   N4        1.0  0.45748  0.06182  0.42005  1.0000
  H   H162      1.0  0.30856  0.28551  0.45695  1.0000
  C   C90       1.0  0.06396  0.28510  0.25716  1.0000
  C   C91       1.0  0.42431  0.03870  0.41950  1.0000
  H   H163      1.0  0.17777  0.02177  0.46313  1.0000
  C   C92       1.0  0.44970  0.05169  0.45004  1.0000
  C   C93       1.0  0.46432  0.04430  0.46391  1.0000
  H   H164      1.0  0.14459  0.03030  0.44472  1.0000
  H   H165      1.0  0.48100  0.11062  0.42182  1.0000
  H   H166      1.0  0.09020  0.31796  0.23775  1.0000
  H   H167      1.0  0.16575  0.26014  0.27219  1.0000
  H   H168      1.0  0.27232  0.30814  0.44986  1.0000
  H   H169      1.0  0.20141  0.24555  0.25545  1.0000
  C   C94       1.0  0.11049  0.17204  0.26480  1.0000
  H   H170      1.0  0.40807  0.04234  0.42818  1.0000
  H   H171      1.0  0.11450  0.15266  0.27021  1.0000
  C   C95       1.0  0.29765  0.32120  0.44608  1.0000
  H   H172      1.0  0.12087  0.25351  0.28623  1.0000
  H   H173      1.0  0.44683  0.07294  0.45168  1.0000
  C   C96       1.0  0.45623  0.31376  0.42132  1.0000
  H   H174      1.0  0.13414  0.25312  0.33174  1.0000
  H   H175      1.0  0.41576  0.27624  0.41444  1.0000
  C   C97       1.0  0.39876  0.11503  0.27582  1.0000
  C   C98       1.0  0.36914  0.28045  0.43647  1.0000
  H   H176      1.0  0.41425  0.11345  0.26607  1.0000
  H   H177      1.0  0.06368  0.28193  0.26994  1.0000
  H   H178      1.0  0.00936  0.29221  0.47756  1.0000
  H   H179      1.0  0.30491  0.25093  0.43449  1.0000
  C   C99       1.0  0.42221  0.21577  0.45317  1.0000
  C   C100      1.0  0.47765  0.05972  0.40636  1.0000
  H   H180      1.0  0.04066  0.28267  0.25431  1.0000
  H   H181      1.0  0.28972  0.23703  0.38271  1.0000
  H   H182      1.0  0.39862  0.12796  0.24499  1.0000
  H   H183      1.0  0.35384  0.26929  0.44750  1.0000
  C   C101      1.0  0.22923  0.28459  0.26661  1.0000
  H   H184      1.0  0.24816  0.05155  0.27985  1.0000
  Fe  Fe13      1.0  0.30742  0.30079  0.28942  1.0000
  H   H185      1.0  0.17749  0.02717  0.43458  1.0000
  C   C102      1.0  0.17526  0.24473  0.27760  1.0000
  H   H186      1.0  0.40789  0.21044  0.46458  1.0000
  C   C103      1.0  0.47029  0.05572  0.43463  1.0000
  H   H187      1.0  0.00364  0.30730  0.25431  1.0000
  H   H188      1.0  0.31818  0.14245  0.27430  1.0000
  H   H189      1.0  0.36984  0.30391  0.43465  1.0000
  H   H190      1.0  0.21961  0.29977  0.26111  1.0000
  H   H191      1.0  0.14494  0.16660  0.28889  1.0000
  H   H192      1.0  0.16319  0.19704  0.31093  1.0000
  H   H193      1.0  0.31236  0.01739  0.25840  1.0000
  C   C104      1.0  0.31946  0.26172  0.42326  1.0000
  H   H194      1.0  0.44965  0.04261  0.47479  1.0000
  N   N5        1.0  0.15083  0.21194  0.27987  1.0000
  H   H195      1.0  0.43963  0.31759  0.47779  1.0000
  C   C105      1.0  0.35567  0.18575  0.27624  1.0000
  H   H196      1.0  0.24374  0.33054  0.43765  1.0000
  C   C106      1.0  0.41598  0.30503  0.44926  1.0000
  H   H197      1.0  0.26540  0.21060  0.37037  1.0000
  C   C107      1.0  0.15504  0.31483  0.29681  1.0000
  H   H198      1.0  0.23476  0.29113  0.27838  1.0000
  H   H199      1.0  0.18068  0.18810  0.27720  1.0000
  C   C108      1.0  0.43745  0.01176  0.36101  1.0000
  C   C109      1.0  0.07646  0.22008  0.29724  1.0000
  H   H200      1.0  0.44436  0.21392  0.45498  1.0000
  H   H201      1.0  0.46871  0.17133  0.44548  1.0000
  H   H202      1.0  0.44213  0.26431  0.45421  1.0000
  H   H203      1.0  0.46697  0.30173  0.42840  1.0000
  C   C110      1.0  0.35174  0.26199  0.42347  1.0000
  H   H204      1.0  0.10757  0.18547  0.29471  1.0000
  H   H205      1.0  0.19595  0.00500  0.48220  1.0000
  H   H206      1.0  0.44277  0.14225  0.41523  1.0000
  H   H207      1.0  0.12159  0.16307  0.24143  1.0000
  C   C111      1.0  0.34365  0.15126  0.27509  1.0000
  C   C112      1.0  0.45777  0.09328  0.41969  1.0000
  H   H208      1.0  0.21748  0.23682  0.27222  1.0000
  C   C113      1.0  0.35993  0.14480  0.26057  1.0000
  H   H209      1.0  0.31819  0.07264  0.25094  1.0000
  H   H210      1.0  0.34827  0.23773  0.42526  1.0000
  N   N6        1.0  0.35420  0.11178  0.25936  1.0000
  H   H211      1.0  0.18142  0.25326  0.28894  1.0000
  H   H212      1.0  0.19936  0.22144  0.29947  1.0000
  H   H213      1.0  0.35199  0.15387  0.25051  1.0000
  C   C114      1.0  0.10614  0.22859  0.28621  1.0000
  H   H214      1.0  0.09897  0.22466  0.27445  1.0000
  Fe  Fe14      1.0  0.33124  0.00600  0.29492  1.0000
  H   H215      1.0  0.30823  0.31364  0.46937  1.0000
  H   H216      1.0  0.43057  0.11252  0.29198  1.0000
  C   C115      1.0  0.32994  0.32490  0.37217  1.0000
  H   H217      1.0  0.34292  0.18968  0.28648  1.0000
  H   H218      1.0  0.41819  0.32830  0.44499  1.0000
  H   H219      1.0  0.20756  0.00317  0.27335  1.0000
  S   S27       1.0  0.09671  0.31526  0.29810  1.0000
  C   C116      1.0  0.23931  0.01319  0.46869  1.0000
  H   H220      1.0  0.36472  0.27221  0.41186  1.0000
  C   C117      1.0  0.15546  0.01434  0.44239  1.0000
  H   H221      1.0  0.44443  0.14511  0.39438  1.0000
  H   H222      1.0  0.35174  0.19757  0.26576  1.0000
  C   C118      1.0  0.39849  0.29663  0.46581  1.0000
  N   N7        1.0  0.40171  0.28279  0.43765  1.0000
  C   C119      1.0  0.42930  0.24823  0.44603  1.0000
  H   H223      1.0  0.26022  0.04520  0.26078  1.0000
  C   C120      1.0  0.45410  0.13839  0.40447  1.0000
  H   H224      1.0  0.06883  0.26673  0.25219  1.0000
  H   H225      1.0  0.42298  0.09109  0.40391  1.0000
  H   H226      1.0  0.29966  0.09348  0.28103  1.0000
  H   H227      1.0  0.25705  0.08073  0.26390  1.0000
  H   H228      1.0  0.37551  0.29762  0.46592  1.0000
  H   H229      1.0  0.28125  0.25130  0.36471  1.0000
  H   H230      1.0  0.41331  0.02340  0.34319  1.0000
  C   C121      1.0  0.42030  0.29522  0.42186  1.0000
  H   H231      1.0  0.40943  0.19840  0.44546  1.0000
  H   H232      1.0  0.25133  0.28830  0.25961  1.0000
  H   H233      1.0  0.09467  0.27136  0.32406  1.0000
  H   H234      1.0  0.37131  0.32365  0.23598  1.0000
  Fe  Fe15      1.0  0.99965  0.32310  0.32662  1.0000
  C   C122      1.0  0.10213  0.16506  0.24846  1.0000
  C   C123      1.0  0.44824  0.10469  0.40468  1.0000
  H   H235      1.0  0.23660  0.02213  0.45711  1.0000
  H   H236      1.0  0.46847  0.29866  0.39980  1.0000
  H   H237      1.0  0.46099  0.24611  0.47817  1.0000
  Fe  Fe16      1.0  0.99836  0.32523  0.29116  1.0000
  C   C124      1.0  0.41716  0.31910  0.47673  1.0000
  S   S28       1.0  0.37228  0.10505  0.47992  1.0000
  C   C125      1.0  0.41070  0.00981  0.35405  1.0000
  H   H238      1.0  0.27953  0.05542  0.47131  1.0000
  C   C126      1.0  0.47226  0.32040  0.40476  1.0000
  H   H239      1.0  0.42555  0.99866  0.43291  1.0000
  H   H240      1.0  0.24254  0.05500  0.47828  1.0000
  H   H241      1.0  0.34064  0.32326  0.45445  1.0000
  S   S29       1.0  0.28872  0.32452  0.30631  1.0000
  H   H242      1.0  0.11183  0.31725  0.25362  1.0000
  H   H243      1.0  0.47961  0.15314  0.40334  1.0000
  S   S30       1.0  0.33520  0.31597  0.26514  1.0000
  C   C127      1.0  0.16207  0.00178  0.45764  1.0000
  Fe  Fe17      1.0  0.35448  0.06800  0.50018  1.0000
  S   S31       1.0  0.40351  0.07741  0.50539  1.0000
  H   H244      1.0  0.47320  0.10517  0.50363  1.0000
  H   H245      1.0  0.03018  0.30304  0.56426  1.0000
  S   S32       1.0  0.41984  0.15049  0.50221  1.0000
  Fe  Fe18      1.0  0.39945  0.11088  0.52130  1.0000
  S   S33       1.0  0.42540  0.12183  0.54309  1.0000
  S   S34       1.0  0.34918  0.09946  0.51729  1.0000
  S   S35       1.0  0.41609  0.03826  0.65172  1.0000
  S   S36       1.0  0.39242  0.06722  0.61497  1.0000
  Fe  Fe19      1.0  0.39908  0.05550  0.67204  1.0000
  S   S37       1.0  0.39682  0.09430  0.65709  1.0000
  C   C128      1.0  0.47216  0.28010  0.49451  1.0000
  Fe  Fe20      1.0  0.41722  0.07904  0.63695  1.0000
  H   H246      1.0  0.36644  0.29731  0.56233  1.0000
  Fe  Fe21      1.0  0.44611  0.12145  0.66216  1.0000
  H   H247      1.0  0.34538  0.27040  0.49342  1.0000
  H   H248      1.0  0.30884  0.04502  0.65897  1.0000
  C   C129      1.0  0.31454  0.03864  0.64752  1.0000
  H   H249      1.0  0.35507  0.15490  0.68357  1.0000
  C   C130      1.0  0.45770  0.28601  0.50974  1.0000
  H   H250      1.0  0.47802  0.29911  0.48518  1.0000
  C   C131      1.0  0.37999  0.12938  0.69276  1.0000
  H   H251      1.0  0.06751  0.31561  0.54033  1.0000
  C   C132      1.0  0.44957  0.25058  0.48869  1.0000
  C   C133      1.0  0.07564  0.32414  0.55146  1.0000
  H   H252      1.0  0.04633  0.32093  0.68258  1.0000
  H   H253      1.0  0.45394  0.26599  0.51808  1.0000
  C   C134      1.0  0.98724  0.27983  0.48463  1.0000
  H   H254      1.0  0.22995  0.29468  0.59887  1.0000
  S   S38       1.0  0.46064  0.17079  0.66743  1.0000
  C   C135      1.0  0.32765  0.01469  0.64952  1.0000
  S   S39       1.0  0.46669  0.10940  0.64076  1.0000
  C   C136      1.0  0.26400  0.31653  0.57848  1.0000
  H   H255      1.0  0.27579  0.03625  0.71306  1.0000
  H   H256      1.0  0.43584  0.31593  0.52954  1.0000
  S   S40       1.0  0.32270  0.01920  0.49450  1.0000
  H   H257      1.0  0.33312  0.06051  0.70938  1.0000
  H   H258      1.0  0.35984  0.14537  0.71160  1.0000
  C   C137      1.0  0.46140  0.20862  0.68985  1.0000
  C   C138      1.0  0.35846  0.20567  0.49825  1.0000
  C   C139      1.0  0.40229  0.08292  0.59505  1.0000
  C   C140      1.0  0.38047  0.07013  0.58447  1.0000
  C   C141      1.0  0.38702  0.08162  0.56860  1.0000
  C   C142      1.0  0.41564  0.10615  0.56302  1.0000
  C   C143      1.0  0.43754  0.11887  0.57360  1.0000
  C   C144      1.0  0.43097  0.10740  0.58948  1.0000
  H   H259      1.0  0.38423  0.08352  0.70671  1.0000
  H   H260      1.0  0.36991  0.07153  0.56069  1.0000
  H   H261      1.0  0.08333  0.30781  0.55743  1.0000
  H   H262      1.0  0.44801  0.11757  0.59740  1.0000
  C   C145      1.0  0.37632  0.23769  0.51906  1.0000
  C   C146      1.0  0.37228  0.21103  0.51202  1.0000
  H   H263      1.0  0.38669  0.24142  0.52979  1.0000
  H   H264      1.0  0.37963  0.19450  0.51730  1.0000
  H   H265      1.0  0.27259  0.30842  0.56834  1.0000
  H   H266      1.0  0.25083  0.27269  0.59245  1.0000
  C   C147      1.0  0.41026  0.05231  0.72346  1.0000
  H   H267      1.0  0.40389  0.31344  0.48838  1.0000
  H   H268      1.0  0.41913  0.29822  0.55885  1.0000
  S   S41       1.0  0.01073  0.32213  0.50629  1.0000
  H   H269      1.0  0.47386  0.28531  0.54537  1.0000
  H   H270      1.0  0.42808  0.25271  0.48576  1.0000
  H   H271      1.0  0.46643  0.04926  0.60218  1.0000
  S   S42       1.0  0.35555  0.02911  0.68909  1.0000
  C   C148      1.0  0.35299  0.25401  0.49861  1.0000
  H   H272      1.0  0.38126  0.14903  0.66942  1.0000
  H   H273      1.0  0.29144  0.03225  0.73085  1.0000
  Fe  Fe22      1.0  0.46429  0.06953  0.65677  1.0000
  C   C149      1.0  0.36727  0.25960  0.51225  1.0000
  H   H274      1.0  0.25896  0.03332  0.48932  1.0000
  H   H275      1.0  0.43513  0.06911  0.72263  1.0000
  H   H276      1.0  0.39692  0.17705  0.68275  1.0000
  C   C150      1.0  0.46249  0.21704  0.70506  1.0000
  H   H277      1.0  0.43400  0.26721  0.54104  1.0000
  H   H278      1.0  0.34911  0.02519  0.65533  1.0000
  H   H279      1.0  0.43535  0.27473  0.56837  1.0000
  H   H280      1.0  0.44288  0.23059  0.49760  1.0000
  H   H281      1.0  0.46135  0.19643  0.52506  1.0000
  S   S43       1.0  0.44719  0.08363  0.67842  1.0000
  S   S44       1.0  0.35336  0.17278  0.48880  1.0000
  H   H282      1.0  0.29331  0.02976  0.64139  1.0000
  H   H283      1.0  0.32750  0.10582  0.73119  1.0000
  C   C151      1.0  0.35834  0.31473  0.55812  1.0000
  Fe  Fe23      1.0  0.42066  0.11636  0.48611  1.0000
  H   H284      1.0  0.40092  0.15746  0.71017  1.0000
  H   H285      1.0  0.33233  0.05964  0.64051  1.0000
  H   H286      1.0  0.46082  0.23808  0.70746  1.0000
  H   H287      1.0  0.22063  0.27505  0.58178  1.0000
  H   H288      1.0  0.36121  0.10709  0.69091  1.0000
  C   C152      1.0  0.37840  0.13705  0.70976  1.0000
  C   C153      1.0  0.23996  0.28804  0.58858  1.0000
  Fe  Fe24      1.0  0.37038  0.13710  0.49726  1.0000
  H   H289      1.0  0.39249  0.17496  0.73311  1.0000
  H   H290      1.0  0.32649  0.30551  0.57856  1.0000
  H   H291      1.0  0.27261  0.30384  0.73066  1.0000
  H   H292      1.0  0.31716  0.08835  0.70624  1.0000
  C   C154      1.0  0.37813  0.15416  0.68150  1.0000
  C   C155      1.0  0.46634  0.16232  0.69862  1.0000
  C   C156      1.0  0.46295  0.18107  0.68660  1.0000
  C   C157      1.0  0.34856  0.22713  0.49167  1.0000
  H   H293      1.0  0.27061  0.01154  0.51774  1.0000
  C   C158      1.0  0.46575  0.19818  0.71709  1.0000
  H   H294      1.0  0.47089  0.15645  0.72294  1.0000
  C   C159      1.0  0.32107  0.07297  0.71507  1.0000
  C   C160      1.0  0.44076  0.29480  0.55971  1.0000
  H   H295      1.0  0.43404  0.28432  0.50792  1.0000
  C   C161      1.0  0.29091  0.32774  0.72799  1.0000
  S   S45       1.0  0.37536  0.29397  0.52094  1.0000
  H   H296      1.0  0.45972  0.13785  0.56947  1.0000
  C   C162      1.0  0.45246  0.28885  0.54401  1.0000
  H   H297      1.0  0.40254  0.12821  0.68951  1.0000
  C   C163      1.0  0.34570  0.32587  0.57188  1.0000
  H   H298      1.0  0.35822  0.05122  0.58858  1.0000
  H   H299      1.0  0.46808  0.14135  0.69623  1.0000
  N   N8        1.0  0.47622  0.31586  0.51614  1.0000
  H   H300      1.0  0.29771  0.31994  0.59464  1.0000
  H   H301      1.0  0.33981  0.30384  0.55052  1.0000
  C   C164      1.0  0.46797  0.17098  0.71375  1.0000
  H   H302      1.0  0.41692  0.10940  0.71462  1.0000
  H   H303      1.0  0.33475  0.01044  0.63788  1.0000
  N   N9        1.0  0.37406  0.11216  0.72252  1.0000
  H   H304      1.0  0.25142  0.33023  0.57462  1.0000
  H   H305      1.0  0.40495  0.04451  0.71189  1.0000
  C   C165      1.0  0.39169  0.09381  0.71753  1.0000
  C   C166      1.0  0.28896  0.04902  0.72226  1.0000
  C   C167      1.0  0.45877  0.31581  0.53141  1.0000
  H   H306      1.0  0.27543  0.06025  0.72801  1.0000
  H   H307      1.0  0.45895  0.22335  0.68060  1.0000
  H   H308      1.0  0.48304  0.03965  0.61854  1.0000
  C   C168      1.0  0.04933  0.32649  0.56173  1.0000
  H   H309      1.0  0.98759  0.30159  0.54452  1.0000
  H   H310      1.0  0.98731  0.30647  0.57468  1.0000
  C   C169      1.0  0.33990  0.09193  0.72741  1.0000
  C   C170      1.0  0.38887  0.06684  0.72927  1.0000
  H   H311      1.0  0.40669  0.03206  0.73162  1.0000
  H   H312      1.0  0.45881  0.31544  0.56382  1.0000
  H   H313      1.0  0.36454  0.04864  0.73083  1.0000
  S   S46       1.0  0.42172  0.32914  0.72897  1.0000
  H   H314      1.0  0.30596  0.32890  0.71734  1.0000
  H   H315      1.0  0.00177  0.32986  0.72925  1.0000
  Fe  Fe25      1.0  0.33095  0.17263  0.90494  1.0000
  S   S47       1.0  0.37991  0.17628  0.90372  1.0000
  S   S48       1.0  0.28634  0.12857  0.90621  1.0000
  Fe  Fe26      1.0  0.35262  0.24153  0.90546  1.0000
  S   S49       1.0  0.40314  0.25000  0.90442  1.0000
  C   C171      1.0  0.39410  0.24792  0.97751  1.0000
  Fe  Fe27      1.0  0.39215  0.21742  0.88614  1.0000
  S   S50       1.0  0.42827  0.23019  0.86486  1.0000
  Fe  Fe28      1.0  0.38654  0.20865  0.92209  1.0000
  S   S51       1.0  0.41289  0.20400  0.94236  1.0000
  S   S52       1.0  0.34259  0.21157  0.88607  1.0000
  S   S53       1.0  0.33669  0.20243  0.92443  1.0000
  H   H316      1.0  0.27522  0.22795  0.84737  1.0000
  H   H317      1.0  0.23793  0.00287  0.97762  1.0000
  Fe  Fe29      1.0  0.20519  0.32719  0.90168  1.0000
  C   C172      1.0  0.32138  0.31226  0.85917  1.0000
  Fe  Fe30      1.0  0.43694  0.26809  0.77399  1.0000
  C   C173      1.0  0.04560  0.31128  0.89604  1.0000
  S   S54       1.0  0.40115  0.25191  0.79545  1.0000
  H   H318      1.0  0.01160  0.31233  0.81048  1.0000
  H   H319      1.0  0.03183  0.27347  0.83168  1.0000
  H   H320      1.0  0.39558  0.07450  0.74068  1.0000
  S   S55       1.0  0.41860  0.25340  0.75136  1.0000
  C   C174      1.0  0.41992  0.23435  0.84550  1.0000
  C   C175      1.0  0.38982  0.22879  0.84202  1.0000
  C   C176      1.0  0.38440  0.23342  0.82657  1.0000
  C   C177      1.0  0.40900  0.24443  0.81449  1.0000
  C   C178      1.0  0.43901  0.24959  0.81791  1.0000
  C   C179      1.0  0.44428  0.24414  0.83330  1.0000
  H   H321      1.0  0.37069  0.22059  0.85120  1.0000
  H   H322      1.0  0.36098  0.22810  0.82389  1.0000
  S   S56       1.0  0.34440  0.28462  0.90547  1.0000
  N   N10       1.0  0.32699  0.28719  0.85186  1.0000
  C   C180      1.0  0.40999  0.21759  0.96059  1.0000
  C   C181      1.0  0.42369  0.20940  0.97289  1.0000
  H   H323      1.0  0.35394  0.14778  0.74085  1.0000
  C   C182      1.0  0.39510  0.23687  0.96300  1.0000
  H   H324      1.0  0.43500  0.19427  0.97119  1.0000
  H   H325      1.0  0.31026  0.26014  0.87423  1.0000
  H   H326      1.0  0.38443  0.24334  0.95368  1.0000
  C   C183      1.0  0.28710  0.09280  0.90356  1.0000
  C   C184      1.0  0.31525  0.09026  0.90058  1.0000
  C   C185      1.0  0.31516  0.06136  0.89903  1.0000
  C   C186      1.0  0.28699  0.03469  0.90058  1.0000
  C   C187      1.0  0.25873  0.03718  0.90335  1.0000
  C   C188      1.0  0.25883  0.06620  0.90476  1.0000
  H   H327      1.0  0.33711  0.11058  0.89943  1.0000
  H   H328      1.0  0.33710  0.05964  0.89677  1.0000
  H   H329      1.0  0.23688  0.01682  0.90442  1.0000
  H   H330      1.0  0.23696  0.06808  0.90689  1.0000
  C   C189      1.0  0.20303  0.02186  0.94380  1.0000
  C   C190      1.0  0.07843  0.28414  0.89726  1.0000
  C   C191      1.0  0.05175  0.25608  0.89778  1.0000
  C   C192      1.0  0.02191  0.25555  0.89761  1.0000
  C   C193      1.0  0.01899  0.28327  0.89669  1.0000
  C   C194      1.0  0.31134  0.26068  0.81066  1.0000
  H   H331      1.0  0.10129  0.28432  0.89758  1.0000
  H   H332      1.0  0.05424  0.23471  0.89848  1.0000
  H   H333      1.0  0.07744  0.27982  0.84568  1.0000
  H   H334      1.0  0.38110  0.11022  0.74685  1.0000
  H   H335      1.0  0.22962  0.23345  0.90871  1.0000
  C   C195      1.0  0.28005  0.25513  0.90688  1.0000
  C   C196      1.0  0.25029  0.25504  0.90693  1.0000
  H   H336      1.0  0.28229  0.23370  0.90865  1.0000
  C   C197      1.0  0.37908  0.15372  0.74116  1.0000
  H   H337      1.0  0.18003  0.00308  0.94242  1.0000
  C   C198      1.0  0.03944  0.28388  0.93999  1.0000
  C   C199      1.0  0.21164  0.28444  0.95240  1.0000
  H   H338      1.0  0.33747  0.32228  0.76623  1.0000
  C   C200      1.0  0.27396  0.31047  0.90265  1.0000
  H   H339      1.0  0.20047  0.03274  0.95432  1.0000
  H   H340      1.0  0.01948  0.27305  0.96824  1.0000
  N   N11       1.0  0.27004  0.32269  0.94930  1.0000
  C   C201      1.0  0.99299  0.22040  0.94637  1.0000
  H   H341      1.0  0.41388  0.13760  0.73467  1.0000
  H   H342      1.0  0.35323  0.27756  0.82164  1.0000
  C   C202      1.0  0.38681  0.16141  0.75751  1.0000
  H   H343      1.0  0.32298  0.24199  0.86006  1.0000
  C   C203      1.0  0.22717  0.00876  0.94524  1.0000
  C   C204      1.0  0.30361  0.31062  0.90274  1.0000
  H   H344      1.0  0.33844  0.27320  0.94741  1.0000
  H   H345      1.0  0.03465  0.31115  0.83132  1.0000
  H   H346      1.0  0.41248  0.28508  0.85927  1.0000
  S   S57       1.0  0.28853  0.99884  0.89949  1.0000
  H   H347      1.0  0.31662  0.28290  0.80378  1.0000
  H   H348      1.0  0.26169  0.27495  0.95426  1.0000
  H   H349      1.0  0.00859  0.22683  0.84549  1.0000
  H   H350      1.0  0.27381  0.29177  0.87098  1.0000
  H   H351      1.0  0.01375  0.22169  0.93897  1.0000
  C   C205      1.0  0.31353  0.26915  0.94774  1.0000
  C   C206      1.0  0.04075  0.29357  0.85339  1.0000
  H   H352      1.0  0.27111  0.28885  0.93437  1.0000
  H   H353      1.0  0.21352  0.26553  0.94640  1.0000
  H   H354      1.0  0.45922  0.30497  0.83899  1.0000
  H   H355      1.0  0.10158  0.30902  0.92785  1.0000
  H   H356      1.0  0.33713  0.07586  0.73782  1.0000
  H   H357      1.0  0.38199  0.18134  0.76017  1.0000
  H   H358      1.0  0.10087  0.30339  0.94865  1.0000
  H   H359      1.0  0.99375  0.29774  0.87022  1.0000
  H   H360      1.0  0.29234  0.27848  0.83561  1.0000
  H   H361      1.0  0.99622  0.28318  0.89668  1.0000
  C   C207      1.0  0.17912  0.28279  0.95077  1.0000
  H   H362      1.0  0.32019  0.31081  0.95760  1.0000
  S   S58       1.0  0.46021  0.31811  0.76489  1.0000
  H   H363      1.0  0.08649  0.30461  0.86089  1.0000
  H   H364      1.0  0.31988  0.24698  0.80345  1.0000
  N   N12       1.0  0.28553  0.02493  0.95036  1.0000
  H   H365      1.0  0.21007  0.03920  0.93350  1.0000
  C   C208      1.0  0.26013  0.03457  0.94631  1.0000
  C   C209      1.0  0.31657  0.04962  0.94292  1.0000
  C   C210      1.0  0.28679  0.02226  0.96761  1.0000
  H   H366      1.0  0.01074  0.30497  0.96471  1.0000
  C   C211      1.0  0.98490  0.24729  0.94088  1.0000
  C   C212      1.0  0.32334  0.08330  0.94570  1.0000
  H   H367      1.0  0.01487  0.32607  0.93957  1.0000
  N   N13       1.0  0.98908  0.27587  0.84048  1.0000
  H   H368      1.0  0.47934  0.28657  0.88599  1.0000
  C   C213      1.0  0.07515  0.30000  0.85004  1.0000
  C   C214      1.0  0.35580  0.10574  0.93811  1.0000
  H   H369      1.0  0.32828  0.31378  0.87110  1.0000
  C   C215      1.0  0.09765  0.31760  0.93895  1.0000
  H   H370      1.0  0.25779  0.05050  0.95447  1.0000
  H   H371      1.0  0.26670  0.04801  0.93466  1.0000
  H   H372      1.0  0.31857  0.04891  0.93014  1.0000
  H   H373      1.0  0.33629  0.04542  0.94698  1.0000
  H   H374      1.0  0.30797  0.01915  0.97029  1.0000
  H   H375      1.0  0.28956  0.04404  0.97226  1.0000
  H   H376      1.0  0.32072  0.32020  0.74338  1.0000
  H   H377      1.0  0.30401  0.25694  0.93764  1.0000
  Fe  Fe31      1.0  0.46366  0.24943  0.74528  1.0000
  H   H378      1.0  0.17573  0.30119  0.95656  1.0000
  H   H379      1.0  0.32245  0.08609  0.95822  1.0000
  H   H380      1.0  0.30631  0.09058  0.94067  1.0000
  H   H381      1.0  0.32638  0.31452  0.93673  1.0000
  C   C216      1.0  0.98596  0.29901  0.81304  1.0000
  H   H382      1.0  0.23746  0.31600  0.93226  1.0000
  C   C217      1.0  0.99988  0.30291  0.93639  1.0000
  H   H383      1.0  0.48011  0.21863  0.95035  1.0000
  C   C218      1.0  0.24717  0.28276  0.90488  1.0000
  H   H384      1.0  0.38137  0.30964  0.75826  1.0000
  C   C219      1.0  0.41068  0.30532  0.86379  1.0000
  C   C220      1.0  0.37658  0.30031  0.86616  1.0000
  H   H385      1.0  0.99843  0.22134  0.95854  1.0000
  C   C221      1.0  0.48136  0.32524  0.83477  1.0000
  H   H386      1.0  0.35977  0.12965  0.93995  1.0000
  H   H387      1.0  0.37421  0.10081  0.94323  1.0000
  H   H388      1.0  0.35788  0.10430  0.92544  1.0000
  H   H389      1.0  0.04615  0.26772  0.94689  1.0000
  H   H390      1.0  0.30059  0.25429  0.95856  1.0000
  H   H391      1.0  0.45810  0.25769  0.80871  1.0000
  H   H392      1.0  0.99489  0.32267  0.84194  1.0000
  H   H393      1.0  0.98730  0.25560  0.81883  1.0000
  H   H394      1.0  0.27492  0.19410  0.87050  1.0000
  C   C222      1.0  0.31789  0.28638  0.83559  1.0000
  C   C223      1.0  0.27600  0.23633  0.85894  1.0000
  H   H395      1.0  0.16112  0.26019  0.95620  1.0000
  S   S59       1.0  0.98873  0.21995  0.89899  1.0000
  H   H396      1.0  0.32211  0.24343  0.83183  1.0000
  H   H397      1.0  0.04155  0.27893  0.92776  1.0000
  H   H398      1.0  0.47420  0.31014  0.97334  1.0000
  H   H399      1.0  0.02993  0.27337  0.86224  1.0000
  C   C224      1.0  0.00319  0.28055  0.96248  1.0000
  C   C225      1.0  0.07537  0.31184  0.89647  1.0000
  H   H400      1.0  0.23708  0.19346  0.86847  1.0000
  H   H401      1.0  0.38245  0.26275  0.97926  1.0000
  S   S60       1.0  0.20969  0.28229  0.90589  1.0000
  C   C226      1.0  0.32769  0.26607  0.82536  1.0000
  C   C227      1.0  0.02428  0.28845  0.83844  1.0000
  H   H402      1.0  0.98522  0.24804  0.92805  1.0000
  S   S61       1.0  0.48030  0.26056  0.76872  1.0000
  C   C228      1.0  0.38155  0.32117  0.76888  1.0000
  C   C229      1.0  0.31018  0.25662  0.86172  1.0000
  H   H403      1.0  0.46744  0.24782  0.83568  1.0000
  H   H404      1.0  0.04025  0.31403  0.85829  1.0000
  H   H405      1.0  0.25997  0.21490  0.88274  1.0000
  H   H406      1.0  0.41187  0.16752  0.75853  1.0000
  H   H407      1.0  0.36721  0.27803  0.84558  1.0000
  H   H408      1.0  0.26111  0.24888  0.85957  1.0000
  H   H409      1.0  0.37480  0.31759  0.84275  1.0000
  H   H410      1.0  0.26713  0.30547  0.97338  1.0000
  H   H411      1.0  0.47025  0.24764  0.90779  1.0000
  H   H412      1.0  0.06184  0.32492  0.95227  1.0000
  C   C230      1.0  0.31107  0.29986  0.94714  1.0000
  C   C231      1.0  0.36177  0.29601  0.85069  1.0000
  H   H413      1.0  0.27529  0.30242  0.85061  1.0000
  H   H414      1.0  0.08758  0.32047  0.84140  1.0000
  C   C232      1.0  0.30674  0.28300  0.90490  1.0000
  Fe  Fe32      1.0  0.44505  0.30312  0.74185  1.0000
  H   H415      1.0  0.17581  0.28514  0.93834  1.0000
  H   H416      1.0  0.37228  0.30317  0.77895  1.0000
  C   C233      1.0  0.26121  0.20802  0.87090  1.0000
  H   H417      1.0  0.37229  0.14159  0.76619  1.0000
  H   H418      1.0  0.42464  0.32617  0.85562  1.0000
  C   C234      1.0  0.27693  0.29551  0.94610  1.0000
  H   H419      1.0  0.99391  0.31505  0.75715  1.0000
  H   H420      1.0  0.21364  0.28018  0.96485  1.0000
  H   H421      1.0  0.28568  0.24774  0.81359  1.0000
  C   C235      1.0  0.06496  0.31669  0.94097  1.0000
  C   C236      1.0  0.23763  0.31578  0.94505  1.0000
  N   N14       1.0  0.00620  0.27838  0.94524  1.0000
  C   C237      1.0  0.28736  0.30916  0.86103  1.0000
  H   H422      1.0  0.36400  0.27963  0.87458  1.0000
  C   C238      1.0  0.38788  0.12745  0.73650  1.0000
  H   H423      1.0  0.00630  0.30359  0.92380  1.0000
  H   H424      1.0  0.32838  0.31004  0.82935  1.0000
  H   H425      1.0  0.42053  0.30830  0.87506  1.0000
  H   H426      1.0  0.37626  0.32063  0.87129  1.0000
  S   S62       1.0  0.46631  0.20694  0.73651  1.0000
  H   H427      1.0  0.48267  0.32915  0.82196  1.0000
  C   C239      1.0  0.27332  0.32766  0.96616  1.0000
  H   H428      1.0  0.22824  0.32602  0.97572  1.0000
  H   H429      1.0  0.32934  0.99937  0.94184  1.0000
  H   H430      1.0  0.17163  0.00290  0.87185  1.0000
  H   H431      1.0  0.48362  0.25157  0.93777  1.0000
  H   H432      1.0  0.48374  0.25460  0.97044  1.0000
  H   H433      1.0  0.28072  0.99860  0.93098  1.0000
  Fe  Fe33      1.0  0.37024  0.42038  0.14108  1.0000
  S   S63       1.0  0.41166  0.41197  0.13255  1.0000
  S   S64       1.0  0.35246  0.44863  0.12589  1.0000
  Fe  Fe34      1.0  0.36514  0.38934  0.17423  1.0000
  S   S65       1.0  0.40543  0.37776  0.16767  1.0000
  H   H434      1.0  0.09067  0.42330  0.03316  1.0000
  Fe  Fe35      1.0  0.42928  0.42600  0.15538  1.0000
  H   H435      1.0  0.25771  0.41247  0.14974  1.0000
  Fe  Fe36      1.0  0.38455  0.36495  0.14539  1.0000
  H   H436      1.0  0.46845  0.34923  0.98830  1.0000
  S   S66       1.0  0.39013  0.43820  0.16295  1.0000
  S   S67       1.0  0.34191  0.37261  0.15279  1.0000
  Fe  Fe37      1.0  0.21714  0.41843  0.02677  1.0000
  S   S68       1.0  0.19470  0.44971  0.03334  1.0000
  S   S69       1.0  0.20679  0.38917  0.00654  1.0000
  Fe  Fe38      1.0  0.24399  0.41992  0.05829  1.0000
  S   S70       1.0  0.22401  0.45137  0.06694  1.0000
  S   S71       1.0  0.26574  0.39489  0.07299  1.0000
  Fe  Fe39      1.0  0.18047  0.42229  0.05686  1.0000
  S   S72       1.0  0.13102  0.40066  0.06917  1.0000
  Fe  Fe40      1.0  0.24012  0.47639  0.04285  1.0000
  S   S73       1.0  0.26441  0.52822  0.04195  1.0000
  S   S74       1.0  0.19939  0.38911  0.04965  1.0000
  S   S75       1.0  0.26380  0.44694  0.03485  1.0000
  H   H437      1.0  0.14652  0.34937  0.14347  1.0000
  H   H438      1.0  0.19886  0.34193  0.07909  1.0000
  C   C240      1.0  0.19227  0.36403  0.10741  1.0000
  H   H439      1.0  0.21131  0.59693  0.03578  1.0000
  C   C241      1.0  0.31756  0.38845  0.03515  1.0000
  C   C242      1.0  0.00996  0.40653  0.10188  1.0000
  S   S76       1.0  0.05754  0.60661  0.15432  1.0000
  Fe  Fe41      1.0  0.04663  0.40809  0.14911  1.0000
  S   S77       1.0  0.00957  0.42233  0.14184  1.0000
  S   S78       1.0  0.09582  0.42881  0.13636  1.0000
  H   H440      1.0  0.32767  0.36181  0.08150  1.0000
  H   H441      1.0  0.19468  0.44760  0.12304  1.0000
  H   H442      1.0  0.99035  0.58531  0.13668  1.0000
  N   N15       1.0  0.00660  0.37542  0.06120  1.0000
  H   H443      1.0  0.03657  0.35818  0.07244  1.0000
  S   S79       1.0  0.04060  0.41710  0.17399  1.0000
  C   C243      1.0  0.03868  0.56708  0.16115  1.0000
  C   C244      1.0  0.04869  0.54664  0.15433  1.0000
  C   C245      1.0  0.03313  0.51478  0.15879  1.0000
  C   C246      1.0  0.42749  0.40046  0.05289  1.0000
  C   C247      1.0  0.20551  0.56348  0.01974  1.0000
  H   H444      1.0  0.25927  0.61461  0.00654  1.0000
  H   H445      1.0  0.06840  0.55545  0.14544  1.0000
  H   H446      1.0  0.04085  0.49921  0.15338  1.0000
  C   C248      1.0  0.39441  0.41521  0.08818  1.0000
  H   H447      1.0  0.44954  0.37066  0.04632  1.0000
  C   C249      1.0  0.12137  0.40938  0.08765  1.0000
  C   C250      1.0  0.14187  0.43480  0.09417  1.0000
  C   C251      1.0  0.13354  0.44072  0.10903  1.0000
  C   C252      1.0  0.10446  0.42162  0.11736  1.0000
  C   C253      1.0  0.08374  0.39652  0.11070  1.0000
  C   C254      1.0  0.09233  0.39029  0.09597  1.0000
  H   H448      1.0  0.16407  0.44990  0.08776  1.0000
  H   H449      1.0  0.14960  0.46028  0.11408  1.0000
  H   H450      1.0  0.06145  0.38147  0.11708  1.0000
  H   H451      1.0  0.33211  0.33585  0.06918  1.0000
  C   C255      1.0  0.32777  0.43322  0.11145  1.0000
  C   C256      1.0  0.31907  0.45261  0.10204  1.0000
  C   C257      1.0  0.29960  0.44113  0.09036  1.0000
  C   C258      1.0  0.28873  0.41016  0.08801  1.0000
  C   C259      1.0  0.29688  0.39068  0.09761  1.0000
  C   C260      1.0  0.31654  0.40215  0.10920  1.0000
  H   H452      1.0  0.32746  0.47663  0.10382  1.0000
  H   H453      1.0  0.29299  0.45615  0.08318  1.0000
  H   H454      1.0  0.28761  0.36647  0.09620  1.0000
  H   H455      1.0  0.32274  0.38694  0.11650  1.0000
  H   H456      1.0  0.39235  0.43078  0.06448  1.0000
  H   H457      1.0  0.41871  0.61869  0.98845  1.0000
  C   C261      1.0  0.48148  0.49414  0.21021  1.0000
  C   C262      1.0  0.30821  0.58895  0.99613  1.0000
  C   C263      1.0  0.31685  0.60024  0.01020  1.0000
  C   C264      1.0  0.30284  0.58148  0.02419  1.0000
  C   C265      1.0  0.28077  0.55105  0.02415  1.0000
  C   C266      1.0  0.27241  0.53956  0.01006  1.0000
  C   C267      1.0  0.28605  0.55854  0.99607  1.0000
  H   H458      1.0  0.38061  0.50106  0.05326  1.0000
  H   H459      1.0  0.30952  0.59039  0.03507  1.0000
  H   H460      1.0  0.25531  0.51612  0.00995  1.0000
  C   C268      1.0  0.39935  0.37490  0.06327  1.0000
  C   C269      1.0  0.40153  0.60995  0.99899  1.0000
  H   H461      1.0  0.40823  0.37075  0.07421  1.0000
  Fe  Fe42      1.0  0.00561  0.36766  0.17814  1.0000
  H   H462      1.0  0.48292  0.44717  0.11748  1.0000
  C   C270      1.0  0.45004  0.47910  0.22079  1.0000
  H   H463      1.0  0.41439  0.40891  0.08747  1.0000
  H   H464      1.0  0.24537  0.44628  0.98649  1.0000
  H   H465      1.0  0.01191  0.36562  0.09485  1.0000
  H   H466      1.0  0.00547  0.57101  0.17805  1.0000
  H   H467      1.0  0.42294  0.48435  0.05255  1.0000
  C   C271      1.0  0.28417  0.64859  0.02965  1.0000
  C   C272      1.0  0.24371  0.39352  0.12806  1.0000
  H   H468      1.0  0.37893  0.60903  0.99579  1.0000
  N   N16       1.0  0.42300  0.45477  0.21433  1.0000
  C   C273      1.0  0.41622  0.46650  0.19916  1.0000
  C   C274      1.0  0.42853  0.42638  0.21250  1.0000
  H   H469      1.0  0.08183  0.45533  0.03751  1.0000
  C   C275      1.0  0.08330  0.38450  0.20803  1.0000
  H   H470      1.0  0.24651  0.37149  0.15031  1.0000
  C   C276      1.0  0.41081  0.49612  0.19923  1.0000
  H   H471      1.0  0.11149  0.44845  0.04681  1.0000
  H   H472      1.0  0.47520  0.41104  0.04383  1.0000
  H   H473      1.0  0.33532  0.40870  0.02766  1.0000
  S   S80       1.0  0.01452  0.35765  0.15362  1.0000
  C   C277      1.0  0.26301  0.35072  0.99011  1.0000
  C   C278      1.0  0.22616  0.59220  0.02685  1.0000
  H   H474      1.0  0.39518  0.44822  0.19528  1.0000
  H   H475      1.0  0.43526  0.47137  0.18974  1.0000
  H   H476      1.0  0.46883  0.44662  0.19405  1.0000
  H   H477      1.0  0.40185  0.52769  0.18346  1.0000
  H   H478      1.0  0.01626  0.43069  0.09728  1.0000
  H   H479      1.0  0.20618  0.40176  0.13994  1.0000
  H   H480      1.0  0.13763  0.33240  0.12564  1.0000
  H   H481      1.0  0.31406  0.36718  0.02976  1.0000
  H   H482      1.0  0.18624  0.56681  0.01459  1.0000
  H   H483      1.0  0.27313  0.63035  0.03952  1.0000
  H   H484      1.0  0.37273  0.43159  0.22038  1.0000
  C   C279      1.0  0.99789  0.38723  0.07564  1.0000
  H   H485      1.0  0.07921  0.37036  0.19817  1.0000
  H   H486      1.0  0.23821  0.49744  0.11300  1.0000
  Fe  Fe43      1.0  0.04015  0.64199  0.16095  1.0000
  H   H487      1.0  0.02386  0.42005  0.04790  1.0000
  H   H488      1.0  0.28351  0.39850  0.14035  1.0000
  N   N17       1.0  0.37083  0.38116  0.06625  1.0000
  H   H489      1.0  0.23219  0.44837  0.12589  1.0000
  H   H490      1.0  0.99734  0.33137  0.07330  1.0000
  C   C280      1.0  0.10452  0.34779  0.13523  1.0000
  H   H491      1.0  0.17920  0.38051  0.08599  1.0000
  Fe  Fe44      1.0  0.00084  0.42725  0.16691  1.0000
  H   H492      1.0  0.33738  0.49162  0.98665  1.0000
  H   H493      1.0  0.42159  0.40327  0.04098  1.0000
  H   H494      1.0  0.99405  0.51107  0.12814  1.0000
  H   H495      1.0  0.42131  0.57992  0.00738  1.0000
  H   H496      1.0  0.39300  0.35305  0.05786  1.0000
  N   N18       1.0  0.36803  0.53352  0.02703  1.0000
  C   C281      1.0  0.39788  0.53316  0.03177  1.0000
  C   C282      1.0  0.34341  0.52441  0.04074  1.0000
  C   C283      1.0  0.35237  0.54446  0.05435  1.0000
  C   C284      1.0  0.32873  0.52954  0.06870  1.0000
  H   H497      1.0  0.34774  0.48685  0.02106  1.0000
  H   H498      1.0  0.41419  0.53586  0.02132  1.0000
  H   H499      1.0  0.41069  0.55336  0.03800  1.0000
  H   H500      1.0  0.33554  0.49982  0.04521  1.0000
  H   H501      1.0  0.32206  0.52577  0.03714  1.0000
  H   H502      1.0  0.30774  0.50650  0.01565  1.0000
  H   H503      1.0  0.35264  0.56727  0.05105  1.0000
  H   H504      1.0  0.37562  0.54809  0.05774  1.0000
  S   S81       1.0  0.98649  0.46330  0.17584  1.0000
  H   H505      1.0  0.43870  0.52559  0.05140  1.0000
  H   H506      1.0  0.30476  0.52512  0.06603  1.0000
  H   H507      1.0  0.32916  0.50756  0.07308  1.0000
  H   H508      1.0  0.33473  0.54504  0.07798  1.0000
  H   H509      1.0  0.38799  0.45653  0.09235  1.0000
  H   H510      1.0  0.47866  0.50052  0.19815  1.0000
  C   C285      1.0  0.42376  0.34868  0.11060  1.0000
  C   C286      1.0  0.37487  0.56565  0.02027  1.0000
  H   H511      1.0  0.37614  0.40424  0.04318  1.0000
  C   C287      1.0  0.15935  0.38335  0.12300  1.0000
  H   H512      1.0  0.41680  0.45102  0.10288  1.0000
  C   C288      1.0  0.39783  0.57799  0.00518  1.0000
  H   H513      1.0  0.38228  0.48294  0.03604  1.0000
  H   H514      1.0  0.45913  0.36971  0.09112  1.0000
  C   C289      1.0  0.45536  0.39821  0.19816  1.0000
  H   H515      1.0  0.42579  0.46380  0.08247  1.0000
  C   C290      1.0  0.32823  0.51151  0.00715  1.0000
  H   H516      1.0  0.19401  0.42129  0.09899  1.0000
  H   H517      1.0  0.04460  0.35288  0.04365  1.0000
  C   C291      1.0  0.42611  0.50538  0.04517  1.0000
  H   H518      1.0  0.30962  0.46394  0.00181  1.0000
  C   C292      1.0  0.08837  0.43721  0.04242  1.0000
  S   S82       1.0  0.00392  0.33443  0.19881  1.0000
  H   H519      1.0  0.29952  0.37232  0.22705  1.0000
  H   H520      1.0  0.10336  0.40702  0.20429  1.0000
  H   H521      1.0  0.18512  0.34152  0.11444  1.0000
  H   H522      1.0  0.44052  0.50701  0.03421  1.0000
  C   C293      1.0  0.03124  0.40123  0.05028  1.0000
  C   C294      1.0  0.35589  0.51071  0.01538  1.0000
  C   C295      1.0  0.39414  0.44559  0.22577  1.0000
  H   H523      1.0  0.02388  0.40672  0.11160  1.0000
  H   H524      1.0  0.00220  0.55299  0.10915  1.0000
  H   H525      1.0  0.24759  0.36005  0.99577  1.0000
  H   H526      1.0  0.14736  0.38714  0.11311  1.0000
  H   H527      1.0  0.37274  0.34853  0.20976  1.0000
  H   H528      1.0  0.25717  0.41612  0.12118  1.0000
  H   H529      1.0  0.25427  0.47881  0.09999  1.0000
  H   H530      1.0  0.35287  0.56747  0.01810  1.0000
  C   C296      1.0  0.17177  0.35900  0.09385  1.0000
  H   H531      1.0  0.07065  0.34455  0.22415  1.0000
  H   H532      1.0  0.04268  0.40066  0.08578  1.0000
  H   H533      1.0  0.15961  0.40080  0.13077  1.0000
  C   C297      1.0  0.24282  0.62007  0.01427  1.0000
  H   H534      1.0  0.41003  0.62642  0.00774  1.0000
  C   C298      1.0  0.13815  0.35161  0.13208  1.0000
  H   H535      1.0  0.11203  0.36600  0.21837  1.0000
  H   H536      1.0  0.43498  0.42275  0.05780  1.0000
  H   H537      1.0  0.30010  0.64180  0.02248  1.0000
  H   H538      1.0  0.38272  0.48810  0.17989  1.0000
  H   H539      1.0  0.21663  0.47893  0.09765  1.0000
  H   H540      1.0  0.07237  0.39970  0.06019  1.0000
  C   C299      1.0  0.03901  0.59351  0.11523  1.0000
  C   C300      1.0  0.32753  0.38684  0.05135  1.0000
  H   H541      1.0  0.06389  0.43165  0.06478  1.0000
  H   H542      1.0  0.44015  0.42168  0.22237  1.0000
  H   H543      1.0  0.43172  0.51547  0.20236  1.0000
  H   H544      1.0  0.07650  0.37040  0.09106  1.0000
  C   C301      1.0  0.35899  0.38379  0.05079  1.0000
  H   H545      1.0  0.14673  0.35104  0.09813  1.0000
  C   C302      1.0  0.01735  0.38909  0.08940  1.0000
  H   H546      1.0  0.03163  0.65250  0.10260  1.0000
  C   C303      1.0  0.17436  0.33462  0.08426  1.0000
  C   C304      1.0  0.20865  0.38644  0.13146  1.0000
  H   H547      1.0  0.03365  0.39322  0.03878  1.0000
  H   H548      1.0  0.10356  0.36697  0.14131  1.0000
  H   H549      1.0  0.21645  0.36998  0.10207  1.0000
  H   H550      1.0  0.40575  0.40593  0.21292  1.0000
  C   C305      1.0  0.09007  0.36789  0.22191  1.0000
  C   C306      1.0  0.01649  0.35015  0.06555  1.0000
  C   C307      1.0  0.40458  0.50592  0.18324  1.0000
  H   H551      1.0  0.42435  0.50976  0.17439  1.0000
  N   N19       1.0  0.25987  0.65103  0.02003  1.0000
  C   C308      1.0  0.06413  0.41670  0.05570  1.0000
  H   H552      1.0  0.39035  0.49257  0.20748  1.0000
  S   S83       1.0  0.33802  0.38276  0.19828  1.0000
  H   H553      1.0  0.46111  0.50304  0.14936  1.0000
  C   C309      1.0  0.31508  0.36148  0.22892  1.0000
  H   H554      1.0  0.04248  0.61443  0.12096  1.0000
  H   H555      1.0  0.05030  0.58074  0.12151  1.0000
  H   H556      1.0  0.05062  0.60071  0.10318  1.0000
  H   H557      1.0  0.21336  0.64864  0.02548  1.0000
  C   C310      1.0  0.39425  0.50379  0.04190  1.0000
  H   H558      1.0  0.06211  0.38839  0.21092  1.0000
  H   H559      1.0  0.43114  0.36927  0.11639  1.0000
  H   H560      1.0  0.24344  0.58642  0.03261  1.0000
  C   C311      1.0  0.33641  0.36241  0.21651  1.0000
  C   C312      1.0  0.37808  0.41092  0.07321  1.0000
  H   H561      1.0  0.28745  0.36856  0.98911  1.0000
  H   H562      1.0  0.35621  0.36346  0.04458  1.0000
  H   H563      1.0  0.19734  0.36292  0.13776  1.0000
  C   C313      1.0  0.01322  0.55548  0.17263  1.0000
  H   H564      1.0  0.43239  0.42338  0.18763  1.0000
  H   H565      1.0  0.38515  0.58233  0.02875  1.0000
  H   H566      1.0  0.30839  0.36694  0.05840  1.0000
  N   N20       1.0  0.19221  0.38824  0.11751  1.0000
  H   H567      1.0  0.23066  0.42153  0.10150  1.0000
  H   H568      1.0  0.33463  0.53419  0.00053  1.0000
  H   H569      1.0  0.33451  0.62339  0.01029  1.0000
  C   C314      1.0  0.20854  0.41921  0.10804  1.0000
  C   C315      1.0  0.21621  0.44766  0.11710  1.0000
  H   H570      1.0  0.37492  0.51360  0.00626  1.0000
  H   H571      1.0  0.37730  0.40118  0.09818  1.0000
  H   H572      1.0  0.23328  0.64835  0.04178  1.0000
  H   H573      1.0  0.35629  0.41376  0.07622  1.0000
  C   C316      1.0  0.23232  0.47746  0.10621  1.0000
  C   C317      1.0  0.40699  0.44871  0.09161  1.0000
  C   C318      1.0  0.35636  0.34827  0.21915  1.0000
  C   C319      1.0  0.44702  0.42564  0.19722  1.0000
  C   C320      1.0  0.34518  0.35446  0.07632  1.0000
  C   C321      1.0  0.25860  0.39397  0.14307  1.0000
  H   H574      1.0  0.24636  0.37556  0.12159  1.0000
  H   H575      1.0  0.43392  0.37635  0.20076  1.0000
  C   C322      1.0  0.99789  0.52365  0.17721  1.0000
  H   H576      1.0  0.27939  0.54963  0.98519  1.0000
  C   C323      1.0  0.00761  0.50317  0.17024  1.0000
  H   H577      1.0  0.46359  0.39066  0.06297  1.0000
  H   H578      1.0  0.22463  0.62049  0.00703  1.0000
  H   H579      1.0  0.46758  0.39778  0.18685  1.0000
  H   H580      1.0  0.19518  0.54359  0.02886  1.0000
  S   S84       1.0  0.48018  0.45444  0.15895  1.0000
  H   H581      1.0  0.29829  0.48885  0.98997  1.0000
  H   H582      1.0  0.21953  0.55799  0.01067  1.0000
  H   H583      1.0  0.98480  0.39521  0.10639  1.0000
  H   H584      1.0  0.00025  0.55396  0.13893  1.0000
  C   C324      1.0  0.00061  0.34025  0.21868  1.0000
  H   H585      1.0  0.32961  0.40813  0.05629  1.0000
  C   C325      1.0  0.43963  0.34884  0.09629  1.0000
  H   H586      1.0  0.99855  0.41038  0.07273  1.0000
  C   C326      1.0  0.35480  0.33813  0.08953  1.0000
  H   H587      1.0  0.99444  0.58660  0.10822  1.0000
  H   H588      1.0  0.37185  0.35440  0.09626  1.0000
  H   H589      1.0  0.38957  0.56282  0.99592  1.0000
  H   H590      1.0  0.29506  0.39065  0.03598  1.0000
  S   S85       1.0  0.99296  0.63480  0.17216  1.0000
  H   H591      1.0  0.99263  0.38090  0.21503  1.0000
  H   H592      1.0  0.10573  0.41019  0.23276  1.0000
  C   C327      1.0  0.00422  0.57320  0.11513  1.0000
  C   C328      1.0  0.23689  0.65898  0.02961  1.0000
  H   H593      1.0  0.47112  0.40004  0.20723  1.0000
  C   C329      1.0  0.02576  0.33532  0.05197  1.0000
  C   C330      1.0  0.31790  0.48745  0.99572  1.0000
  C   C331      1.0  0.47804  0.33381  0.99355  1.0000
  C   C332      1.0  0.98723  0.56357  0.13184  1.0000
  H   H594      1.0  0.44360  0.49763  0.22437  1.0000
  H   H595      1.0  0.39114  0.46623  0.22897  1.0000
  C   C333      1.0  0.45559  0.39265  0.05146  1.0000
  H   H596      1.0  0.15940  0.33141  0.07470  1.0000
  C   C334      1.0  0.99501  0.36475  0.22353  1.0000
  H   H597      1.0  0.32063  0.65273  0.05381  1.0000
  H   H598      1.0  0.09408  0.34711  0.12419  1.0000
  C   C335      1.0  0.21417  0.39880  0.98614  1.0000
  H   H599      1.0  0.45520  0.46950  0.23163  1.0000
  H   H600      1.0  0.06038  0.66107  0.08615  1.0000
  C   C336      1.0  0.30812  0.35646  0.44537  1.0000
  H   H601      1.0  0.12446  0.63407  0.46229  1.0000
  H   H602      1.0  0.28807  0.59468  0.35886  1.0000
  H   H603      1.0  0.28003  0.34694  0.38993  1.0000
  C   C337      1.0  0.23899  0.61078  0.36786  1.0000
  H   H604      1.0  0.33323  0.36719  0.44061  1.0000
  H   H605      1.0  0.00806  0.54158  0.33728  1.0000
  S   S86       1.0  0.44102  0.41560  0.46859  1.0000
  C   C338      1.0  0.26040  0.56202  0.37883  1.0000
  S   S87       1.0  0.09268  0.44579  0.45420  1.0000
  H   H606      1.0  0.16154  0.43637  0.45603  1.0000
  Fe  Fe45      1.0  0.42106  0.44014  0.45406  1.0000
  S   S88       1.0  0.41517  0.43916  0.42511  1.0000
  S   S89       1.0  0.38973  0.46425  0.46394  1.0000
  Fe  Fe46      1.0  0.40799  0.39074  0.42341  1.0000
  H   H607      1.0  0.25278  0.44930  0.48106  1.0000
  S   S90       1.0  0.40447  0.38354  0.44866  1.0000
  Fe  Fe47      1.0  0.33319  0.61697  0.45632  1.0000
  S   S91       1.0  0.30371  0.60963  0.43653  1.0000
  S   S92       1.0  0.34457  0.57538  0.46457  1.0000
  Fe  Fe48      1.0  0.27589  0.63115  0.44945  1.0000
  S   S93       1.0  0.22067  0.60566  0.45056  1.0000
  Fe  Fe49      1.0  0.02883  0.51616  0.43205  1.0000
  S   S94       1.0  0.03452  0.53483  0.40703  1.0000
  S   S95       1.0  0.06878  0.53502  0.44857  1.0000
  H   H608      1.0  0.03604  0.52764  0.34285  1.0000
  S   S96       1.0  0.01561  0.46745  0.37916  1.0000
  H   H609      1.0  0.10502  0.62843  0.30709  1.0000
  C   C339      1.0  0.29364  0.36276  0.41948  1.0000
  S   S97       1.0  0.00262  0.46622  0.42685  1.0000
  Fe  Fe50      1.0  0.15561  0.60555  0.39797  1.0000
  S   S98       1.0  0.16235  0.62203  0.37245  1.0000
  S   S99       1.0  0.16945  0.56633  0.40569  1.0000
  Fe  Fe51      1.0  0.11758  0.62879  0.37717  1.0000
  S   S100      1.0  0.07484  0.61189  0.36190  1.0000
  S   S101      1.0  0.11085  0.61124  0.40246  1.0000
  C   C340      1.0  0.17813  0.58794  0.45041  1.0000
  C   C341      1.0  0.15953  0.55974  0.45931  1.0000
  C   C342      1.0  0.12681  0.54440  0.45845  1.0000
  C   C343      1.0  0.11116  0.55632  0.44868  1.0000
  C   C344      1.0  0.12950  0.58513  0.44017  1.0000
  C   C345      1.0  0.16247  0.60055  0.44094  1.0000
  H   H610      1.0  0.11366  0.52196  0.46468  1.0000
  H   H611      1.0  0.11827  0.59567  0.43302  1.0000
  H   H612      1.0  0.17587  0.62220  0.43402  1.0000
  C   C346      1.0  0.37966  0.49698  0.46293  1.0000
  C   C347      1.0  0.38713  0.51911  0.44995  1.0000
  C   C348      1.0  0.37687  0.54327  0.45006  1.0000
  C   C349      1.0  0.35959  0.54625  0.46330  1.0000
  C   C350      1.0  0.35301  0.52454  0.47622  1.0000
  C   C351      1.0  0.36258  0.50037  0.47598  1.0000
  H   H613      1.0  0.40054  0.51747  0.43975  1.0000
  H   H614      1.0  0.38248  0.55964  0.43992  1.0000
  H   H615      1.0  0.16355  0.40233  0.46479  1.0000
  C   C352      1.0  0.01797  0.59946  0.34962  1.0000
  C   C353      1.0  0.03254  0.58986  0.36105  1.0000
  C   C354      1.0  0.01274  0.56399  0.37138  1.0000
  H   H616      1.0  0.03210  0.61945  0.34169  1.0000
  H   H617      1.0  0.02295  0.55548  0.38001  1.0000
  C   C355      1.0  0.11517  0.48026  0.44146  1.0000
  C   C356      1.0  0.09934  0.49216  0.43185  1.0000
  C   C357      1.0  0.11556  0.51908  0.42145  1.0000
  C   C358      1.0  0.14815  0.53408  0.41998  1.0000
  C   C359      1.0  0.16425  0.52156  0.42917  1.0000
  C   C360      1.0  0.14790  0.49518  0.44003  1.0000
  H   H618      1.0  0.07410  0.48118  0.43287  1.0000
  H   H619      1.0  0.10265  0.52850  0.41476  1.0000
  H   H620      1.0  0.18946  0.53291  0.42822  1.0000
  H   H621      1.0  0.16059  0.48648  0.44726  1.0000
  C   C361      1.0  0.46002  0.47214  0.44019  1.0000
  H   H622      1.0  0.28235  0.33766  0.41853  1.0000
  H   H623      1.0  0.24802  0.59979  0.39697  1.0000
  H   H624      1.0  0.25492  0.61839  0.34283  1.0000
  H   H625      1.0  0.28950  0.55135  0.41381  1.0000
  H   H626      1.0  0.44460  0.48104  0.44556  1.0000
  H   H627      1.0  0.30762  0.36260  0.45746  1.0000
  C   C362      1.0  0.07897  0.41864  0.28102  1.0000
  C   C363      1.0  0.01364  0.52135  0.33778  1.0000
  C   C364      1.0  0.02100  0.62525  0.38716  1.0000
  C   C365      1.0  0.25547  0.35250  0.44278  1.0000
  H   H628      1.0  0.03685  0.61909  0.39339  1.0000
  C   C366      1.0  0.20496  0.59542  0.34592  1.0000
  H   H629      1.0  0.02002  0.65928  0.29388  1.0000
  H   H630      1.0  0.23822  0.38266  0.42984  1.0000
  C   C367      1.0  0.02153  0.43281  0.35613  1.0000
  S   S102      1.0  0.99134  0.35289  0.27056  1.0000
  H   H631      1.0  0.42926  0.35695  0.35787  1.0000
  H   H632      1.0  0.13395  0.60039  0.31867  1.0000
  H   H633      1.0  0.32524  0.55584  0.42170  1.0000
  H   H634      1.0  0.02568  0.40671  0.33744  1.0000
  H   H635      1.0  0.24114  0.38793  0.44995  1.0000
  C   C368      1.0  0.28223  0.59513  0.37143  1.0000
  S   S103      1.0  0.45770  0.39809  0.42220  1.0000
  C   C369      1.0  0.01643  0.40551  0.34931  1.0000
  H   H636      1.0  0.33701  0.46386  0.44103  1.0000
  H   H637      1.0  0.25823  0.51597  0.38009  1.0000
  C   C370      1.0  0.07492  0.39834  0.26788  1.0000
  H   H638      1.0  0.17633  0.34830  0.24804  1.0000
  C   C371      1.0  0.38286  0.37391  0.38012  1.0000
  H   H639      1.0  0.02829  0.62852  0.28722  1.0000
  S   S104      1.0  0.34645  0.34281  0.34018  1.0000
  C   C372      1.0  0.27329  0.53919  0.37411  1.0000
  H   H640      1.0  0.40336  0.39288  0.38300  1.0000
  C   C373      1.0  0.35088  0.34627  0.36031  1.0000
  C   C374      1.0  0.23495  0.37053  0.44153  1.0000
  C   C375      1.0  0.04689  0.35703  0.44906  1.0000
  H   H641      1.0  0.08753  0.40995  0.29097  1.0000
  C   C376      1.0  0.36248  0.35202  0.39192  1.0000
  H   H642      1.0  0.03482  0.45477  0.34934  1.0000
  H   H643      1.0  0.04315  0.61896  0.31314  1.0000
  H   H644      1.0  0.36810  0.44508  0.25641  1.0000
  C   C377      1.0  0.01350  0.65811  0.36637  1.0000
  H   H645      1.0  0.06610  0.40818  0.25848  1.0000
  H   H646      1.0  0.34303  0.41259  0.24719  1.0000
  C   C378      1.0  0.37706  0.37102  0.36448  1.0000
  H   H647      1.0  0.99705  0.33352  0.45398  1.0000
  H   H648      1.0  0.35101  0.41885  0.44116  1.0000
  H   H649      1.0  0.01621  0.62737  0.41827  1.0000
  H   H650      1.0  0.05849  0.33839  0.25608  1.0000
  C   C379      1.0  0.98876  0.60737  0.39032  1.0000
  H   H651      1.0  0.06270  0.42661  0.42362  1.0000
  H   H652      1.0  0.21983  0.33617  0.47955  1.0000
  H   H653      1.0  0.39331  0.38793  0.35549  1.0000
  Fe  Fe52      1.0  0.46334  0.39920  0.45112  1.0000
  H   H654      1.0  0.06157  0.59425  0.44030  1.0000
  H   H655      1.0  0.36329  0.40680  0.26290  1.0000
  S   S105      1.0  0.30532  0.63877  0.46963  1.0000
  H   H656      1.0  0.34424  0.41655  0.42111  1.0000
  H   H657      1.0  0.20791  0.50951  0.46584  1.0000
  H   H658      1.0  0.98779  0.38730  0.24303  1.0000
  H   H659      1.0  0.23906  0.57881  0.35087  1.0000
  H   H660      1.0  0.15144  0.40296  0.23917  1.0000
  C   C380      1.0  0.05351  0.63359  0.43219  1.0000
  H   H661      1.0  0.99414  0.47448  0.34772  1.0000
  H   H662      1.0  0.05699  0.37501  0.27221  1.0000
  H   H663      1.0  0.26675  0.49498  0.42226  1.0000
  C   C381      1.0  0.04171  0.59928  0.43724  1.0000
  H   H664      1.0  0.30240  0.49981  0.43013  1.0000
  H   H665      1.0  0.27509  0.52349  0.47370  1.0000
  H   H666      1.0  0.29795  0.40608  0.45008  1.0000
  C   C382      1.0  0.36513  0.42261  0.25258  1.0000
  C   C383      1.0  0.13002  0.60892  0.32978  1.0000
  C   C384      1.0  0.10613  0.39708  0.26223  1.0000
  H   H667      1.0  0.12328  0.42096  0.25785  1.0000
  H   H668      1.0  0.11465  0.39053  0.27286  1.0000
  H   H669      1.0  0.18036  0.41680  0.44510  1.0000
  H   H670      1.0  0.09568  0.44270  0.27696  1.0000
  H   H671      1.0  0.13791  0.36355  0.23708  1.0000
  H   H672      1.0  0.18638  0.36308  0.44514  1.0000
  H   H673      1.0  0.03144  0.58580  0.42761  1.0000
  C   C385      1.0  0.27707  0.46256  0.47563  1.0000
  H   H674      1.0  0.29004  0.40293  0.40751  1.0000
  S   S106      1.0  0.18551  0.65305  0.40392  1.0000
  C   C386      1.0  0.45875  0.65727  0.41989  1.0000
  H   H675      1.0  0.21037  0.54778  0.48303  1.0000
  C   C387      1.0  0.25225  0.50720  0.47029  1.0000
  H   H676      1.0  0.99776  0.62035  0.30269  1.0000
  H   H677      1.0  0.20152  0.45012  0.47392  1.0000
  H   H678      1.0  0.27937  0.38243  0.38241  1.0000
  C   C388      1.0  0.04443  0.64199  0.30954  1.0000
  H   H679      1.0  0.14850  0.60972  0.33708  1.0000
  H   H680      1.0  0.19253  0.65464  0.45568  1.0000
  H   H681      1.0  0.43840  0.63451  0.42078  1.0000
  C   C389      1.0  0.23132  0.52472  0.46887  1.0000
  H   H682      1.0  0.19983  0.38944  0.24448  1.0000
  H   H683      1.0  0.31515  0.38244  0.38810  1.0000
  H   H684      1.0  0.98777  0.50016  0.35988  1.0000
  C   C390      1.0  0.01650  0.35203  0.45860  1.0000
  C   C391      1.0  0.28934  0.37197  0.39098  1.0000
  C   C392      1.0  0.33682  0.42246  0.43229  1.0000
  H   H685      1.0  0.21915  0.42774  0.46468  1.0000
  H   H686      1.0  0.46578  0.66045  0.39510  1.0000
  H   H687      1.0  0.46161  0.33626  0.42579  1.0000
  H   H688      1.0  0.05605  0.41838  0.28506  1.0000
  H   H689      1.0  0.06467  0.64615  0.44186  1.0000
  H   H690      1.0  0.02946  0.39646  0.46597  1.0000
  C   C393      1.0  0.31383  0.34690  0.24378  1.0000
  C   C394      1.0  0.39295  0.42654  0.24117  1.0000
  H   H691      1.0  0.39029  0.40316  0.23900  1.0000
  H   H692      1.0  0.31481  0.44992  0.46772  1.0000
  H   H693      1.0  0.31291  0.53323  0.40579  1.0000
  H   H694      1.0  0.17059  0.54881  0.46639  1.0000
  S   S107      1.0  0.03601  0.34847  0.30637  1.0000
  C   C395      1.0  0.29328  0.64943  0.36516  1.0000
  C   C396      1.0  0.45805  0.43663  0.44413  1.0000
  C   C397      1.0  0.26672  0.62158  0.39097  1.0000
  H   H695      1.0  0.23271  0.63064  0.36761  1.0000
  C   C398      1.0  0.28056  0.37771  0.40733  1.0000
  N   N21       1.0  0.10774  0.47369  0.37935  1.0000
  C   C399      1.0  0.10413  0.44950  0.36855  1.0000
  C   C400      1.0  0.08398  0.46006  0.39356  1.0000
  C   C401      1.0  0.10154  0.49863  0.37077  1.0000
  C   C402      1.0  0.14030  0.48821  0.38402  1.0000
  C   C403      1.0  0.15109  0.46652  0.39325  1.0000
  C   C404      1.0  0.12568  0.46019  0.35302  1.0000
  C   C405      1.0  0.09954  0.52385  0.38042  1.0000
  C   C406      1.0  0.07229  0.42530  0.39889  1.0000
  C   C407      1.0  0.04996  0.41600  0.41382  1.0000
  C   C408      1.0  0.18539  0.48335  0.39590  1.0000
  C   C409      1.0  0.11985  0.43316  0.34352  1.0000
  C   C410      1.0  0.08985  0.54555  0.37087  1.0000
  H   H696      1.0  0.07958  0.43910  0.36565  1.0000
  H   H697      1.0  0.10793  0.43022  0.37423  1.0000
  H   H698      1.0  0.09266  0.47292  0.40355  1.0000
  H   H699      1.0  0.06242  0.46273  0.39176  1.0000
  H   H700      1.0  0.07933  0.48818  0.36542  1.0000
  H   H701      1.0  0.12021  0.51120  0.36108  1.0000
  H   H702      1.0  0.15766  0.50042  0.37378  1.0000
  H   H703      1.0  0.14237  0.50643  0.39159  1.0000
  H   H704      1.0  0.14868  0.44643  0.38709  1.0000
  H   H705      1.0  0.13726  0.45846  0.40482  1.0000
  H   H706      1.0  0.12111  0.47746  0.34582  1.0000
  H   H707      1.0  0.15064  0.47009  0.35503  1.0000
  H   H708      1.0  0.12251  0.53804  0.38422  1.0000
  H   H709      1.0  0.08218  0.51392  0.39079  1.0000
  H   H710      1.0  0.05899  0.41140  0.39002  1.0000
  H   H711      1.0  0.09183  0.41908  0.40092  1.0000
  C   C411      1.0  0.00080  0.43163  0.47498  1.0000
  Fe  Fe53      1.0  0.14171  0.66037  0.40652  1.0000
  H   H712      1.0  0.03941  0.39068  0.41644  1.0000
  H   H713      1.0  0.18920  0.50402  0.40192  1.0000
  H   H714      1.0  0.19224  0.46788  0.40321  1.0000
  H   H715      1.0  0.20046  0.49048  0.38467  1.0000
  H   H716      1.0  0.13520  0.44127  0.33236  1.0000
  H   H717      1.0  0.12503  0.41532  0.34986  1.0000
  H   H718      1.0  0.09514  0.42268  0.34096  1.0000
  H   H719      1.0  0.10696  0.55723  0.36051  1.0000
  H   H720      1.0  0.06627  0.53288  0.36722  1.0000
  H   H721      1.0  0.08884  0.56333  0.37805  1.0000
  C   C412      1.0  0.34436  0.45667  0.43020  1.0000
  N   N22       1.0  0.10450  0.37542  0.25020  1.0000
  C   C413      1.0  0.18395  0.37036  0.25323  1.0000
  Fe  Fe54      1.0  0.00610  0.48554  0.40205  1.0000
  C   C414      1.0  0.01200  0.38212  0.45866  1.0000
  H   H722      1.0  0.28853  0.41347  0.43147  1.0000
  H   H723      1.0  0.24126  0.48961  0.48041  1.0000
  H   H724      1.0  0.33608  0.64849  0.37367  1.0000
  H   H725      1.0  0.02578  0.43868  0.47085  1.0000
  C   C415      1.0  0.13656  0.63221  0.47252  1.0000
  C   C416      1.0  0.30170  0.40284  0.43770  1.0000
  S   S108      1.0  0.09956  0.37735  0.48011  1.0000
  C   C417      1.0  0.03311  0.65058  0.37553  1.0000
  H   H726      1.0  0.18558  0.57817  0.35418  1.0000
  H   H727      1.0  0.28845  0.62440  0.39615  1.0000
  C   C418      1.0  0.09181  0.38514  0.23641  1.0000
  H   H728      1.0  0.30458  0.60096  0.37649  1.0000
  H   H729      1.0  0.08260  0.62491  0.32508  1.0000
  Fe  Fe55      1.0  0.47108  0.45268  0.42289  1.0000
  H   H730      1.0  0.36994  0.47020  0.42730  1.0000
  H   H731      1.0  0.41434  0.43761  0.24692  1.0000
  C   C419      1.0  0.13745  0.37964  0.24548  1.0000
  Fe  Fe56      1.0  0.98804  0.53711  0.41201  1.0000
  H   H732      1.0  0.14474  0.61389  0.47130  1.0000
  H   H733      1.0  0.33247  0.46184  0.42063  1.0000
  C   C420      1.0  0.00940  0.43197  0.37152  1.0000
  C   C421      1.0  0.16405  0.66287  0.47393  1.0000
  C   C422      1.0  0.23658  0.60065  0.35129  1.0000
  H   H734      1.0  0.25368  0.34565  0.45545  1.0000
  H   H735      1.0  0.10707  0.59260  0.33600  1.0000
  H   H736      1.0  0.44559  0.55966  0.46171  1.0000
  N   N23       1.0  0.25790  0.49315  0.45608  1.0000
  H   H737      1.0  0.02395  0.59199  0.44751  1.0000
  C   C423      1.0  0.27934  0.47765  0.45896  1.0000
  C   C424      1.0  0.27410  0.51913  0.44324  1.0000
  C   C425      1.0  0.22783  0.47087  0.45090  1.0000
  C   C426      1.0  0.20718  0.44295  0.46273  1.0000
  H   H738      1.0  0.03074  0.42318  0.41252  1.0000
  C   C427      1.0  0.28640  0.51080  0.42802  1.0000
  H   H739      1.0  0.43640  0.35187  0.37763  1.0000
  S   S109      1.0  0.36961  0.35344  0.41182  1.0000
  C   C428      1.0  0.17631  0.42357  0.45670  1.0000
  N   N24       1.0  0.27032  0.61925  0.37386  1.0000
  C   C429      1.0  0.30457  0.53961  0.41665  1.0000
  Fe  Fe57      1.0  0.09727  0.42347  0.47759  1.0000
  H   H740      1.0  0.21996  0.59233  0.37587  1.0000
  H   H741      1.0  0.27624  0.46002  0.45081  1.0000
  H   H742      1.0  0.30427  0.49456  0.45644  1.0000
  H   H743      1.0  0.29435  0.53788  0.44743  1.0000
  H   H744      1.0  0.25820  0.52956  0.43981  1.0000
  H   H745      1.0  0.21350  0.48291  0.44717  1.0000
  H   H746      1.0  0.23279  0.46104  0.44043  1.0000
  C   C430      1.0  0.25793  0.64754  0.39579  1.0000
  H   H747      1.0  0.22566  0.62263  0.41625  1.0000
  H   H748      1.0  0.27377  0.53800  0.36141  1.0000
  H   H749      1.0  0.42186  0.34305  0.47244  1.0000
  C   C431      1.0  0.08322  0.34297  0.25708  1.0000
  C   C432      1.0  0.24848  0.64291  0.41323  1.0000
  H   H750      1.0  0.00227  0.47354  0.46294  1.0000
  H   H751      1.0  0.01959  0.39531  0.44696  1.0000
  H   H752      1.0  0.03659  0.65092  0.31963  1.0000
  S   S110      1.0  0.99032  0.34121  0.34963  1.0000
  C   C433      1.0  0.02128  0.63736  0.29758  1.0000
  H   H753      1.0  0.04502  0.36051  0.43656  1.0000
  H   H754      1.0  0.29729  0.54606  0.37742  1.0000
  H   H755      1.0  0.23809  0.64774  0.39000  1.0000
  H   H756      1.0  0.25865  0.56084  0.39166  1.0000
  H   H757      1.0  0.46315  0.33384  0.39740  1.0000
  H   H758      1.0  0.06685  0.37728  0.45225  1.0000
  H   H759      1.0  0.31872  0.36969  0.41559  1.0000
  H   H760      1.0  0.14054  0.35655  0.26776  1.0000
  C   C434      1.0  0.10429  0.64034  0.31754  1.0000
  H   H761      1.0  0.29750  0.34666  0.25318  1.0000
  C   C435      1.0  0.13108  0.64104  0.32689  1.0000
  H   H762      1.0  0.48343  0.53660  0.48202  1.0000
  N   N25       1.0  0.28948  0.36897  0.43605  1.0000
  H   H763      1.0  0.24214  0.54507  0.46007  1.0000
  C   C436      1.0  0.98785  0.49404  0.34783  1.0000
  C   C437      1.0  0.99249  0.40326  0.38009  1.0000
  H   H764      1.0  0.01655  0.51542  0.32586  1.0000
  H   H765      1.0  0.07147  0.63903  0.42219  1.0000
  H   H766      1.0  0.16441  0.39718  0.26488  1.0000
  H   H767      1.0  0.25472  0.36743  0.40937  1.0000
  H   H768      1.0  0.24625  0.66338  0.41711  1.0000
  H   H769      1.0  0.23647  0.55419  0.37538  1.0000
  H   H770      1.0  0.20328  0.58687  0.33436  1.0000
  H   H771      1.0  0.20242  0.61736  0.34492  1.0000
  H   H772      1.0  0.27697  0.41818  0.47256  1.0000
  C   C438      1.0  0.29305  0.44078  0.47581  1.0000
  C   C439      1.0  0.99889  0.37674  0.35776  1.0000
  C   C440      1.0  0.98717  0.37594  0.37323  1.0000
  C   C441      1.0  0.99534  0.34764  0.25066  1.0000
  H   H773      1.0  0.12848  0.64869  0.33840  1.0000
  H   H774      1.0  0.00828  0.63276  0.43776  1.0000
  C   C442      1.0  0.99229  0.36833  0.23944  1.0000
  H   H775      1.0  0.45215  0.52554  0.45981  1.0000
  C   C443      1.0  0.46181  0.54884  0.46373  1.0000
  S   S111      1.0  0.36844  0.66434  0.44617  1.0000
  H   H776      1.0  0.19708  0.36908  0.26310  1.0000
  H   H777      1.0  0.08440  0.34013  0.26977  1.0000
  C   C444      1.0  0.98506  0.58526  0.34907  1.0000
  H   H778      1.0  0.26608  0.63887  0.41953  1.0000
  C   C445      1.0  0.99567  0.46096  0.47477  1.0000
  C   C446      1.0  0.35545  0.33412  0.23406  1.0000
  C   C447      1.0  0.02650  0.64157  0.42763  1.0000
  H   H779      1.0  0.15439  0.65623  0.32076  1.0000
  H   H780      1.0  0.29790  0.64648  0.35283  1.0000
  H   H781      1.0  0.06739  0.38199  0.23955  1.0000
  H   H782      1.0  0.05163  0.33645  0.45121  1.0000
  H   H783      1.0  0.01778  0.34395  0.47067  1.0000
  Fe  Fe58      1.0  0.33749  0.65783  0.42737  1.0000
  C   C448      1.0  0.33424  0.33332  0.24649  1.0000
  C   C449      1.0  0.15568  0.37590  0.25899  1.0000
  H   H784      1.0  0.11949  0.62543  0.48304  1.0000
  H   H785      1.0  0.08349  0.65675  0.29157  1.0000
  C   C450      1.0  0.20020  0.34928  0.44526  1.0000
  H   H786      1.0  0.07595  0.47480  0.48346  1.0000
  C   C451      1.0  0.46659  0.54689  0.48085  1.0000
  H   H787      1.0  0.05808  0.66349  0.37318  1.0000
  C   C452      1.0  0.43352  0.34149  0.36653  1.0000
  H   H788      1.0  0.19537  0.33631  0.45690  1.0000
  H   H789      1.0  0.45548  0.33981  0.36250  1.0000
  H   H790      1.0  0.28882  0.48078  0.48314  1.0000
  H   H791      1.0  0.98668  0.42147  0.45256  1.0000
  H   H792      1.0  0.47993  0.65357  0.42173  1.0000
  H   H793      1.0  0.19239  0.33273  0.43651  1.0000
  H   H794      1.0  0.01049  0.47632  0.48271  1.0000
  H   H795      1.0  0.16101  0.33195  0.28699  1.0000
  H   H796      1.0  0.47684  0.57076  0.48396  1.0000
  H   H797      1.0  0.19545  0.61865  0.48400  1.0000
  Fe  Fe59      1.0  0.37530  0.39759  0.52083  1.0000
  H   H798      1.0  0.99800  0.63841  0.63591  1.0000
  S   S112      1.0  0.38269  0.42932  0.54011  1.0000
  Fe  Fe60      1.0  0.32808  0.36521  0.49833  1.0000
  H   H799      1.0  0.02249  0.62232  0.68541  1.0000
  H   H800      1.0  0.01218  0.48810  0.67377  1.0000
  C   C453      1.0  0.44778  0.54867  0.51630  1.0000
  S   S113      1.0  0.36599  0.41323  0.49739  1.0000
  S   S114      1.0  0.41002  0.38169  0.51061  1.0000
  Fe  Fe61      1.0  0.13139  0.39740  0.49860  1.0000
  S   S115      1.0  0.13048  0.44389  0.49508  1.0000
  S   S116      1.0  0.18044  0.40490  0.50391  1.0000
  Fe  Fe62      1.0  0.05915  0.36271  0.49917  1.0000
  S   S117      1.0  0.05560  0.40770  0.49568  1.0000
  H   H801      1.0  0.39103  0.46723  0.56496  1.0000
  Fe  Fe63      1.0  0.08918  0.42399  0.51346  1.0000
  S   S118      1.0  0.07704  0.44795  0.53301  1.0000
  S   S119      1.0  0.09143  0.37881  0.51779  1.0000
  H   H802      1.0  0.03533  0.40230  0.60137  1.0000
  H   H803      1.0  0.36499  0.33580  0.57918  1.0000
  H   H804      1.0  0.33074  0.49808  0.52397  1.0000
  S   S120      1.0  0.43202  0.43766  0.64655  1.0000
  H   H805      1.0  0.37805  0.52321  0.50535  1.0000
  Fe  Fe64      1.0  0.45903  0.46201  0.62340  1.0000
  S   S121      1.0  0.45134  0.43668  0.60142  1.0000
  Fe  Fe65      1.0  0.43491  0.48389  0.65184  1.0000
  S   S122      1.0  0.39595  0.49563  0.66174  1.0000
  H   H806      1.0  0.22660  0.41855  0.71433  1.0000
  H   H807      1.0  0.44720  0.47723  0.48975  1.0000
  H   H808      1.0  0.41913  0.39738  0.55189  1.0000
  H   H809      1.0  0.99900  0.39564  0.58113  1.0000
  Fe  Fe66      1.0  0.03776  0.42099  0.65418  1.0000
  S   S123      1.0  0.08079  0.41460  0.64695  1.0000
  H   H810      1.0  0.07240  0.43967  0.72862  1.0000
  Fe  Fe67      1.0  0.07161  0.48991  0.64524  1.0000
  S   S124      1.0  0.11776  0.48863  0.63772  1.0000
  S   S125      1.0  0.05661  0.52892  0.64232  1.0000
  Fe  Fe68      1.0  0.08870  0.44758  0.62580  1.0000
  S   S126      1.0  0.10574  0.43487  0.60311  1.0000
  Fe  Fe69      1.0  0.10647  0.45558  0.65944  1.0000
  S   S127      1.0  0.13792  0.44462  0.67519  1.0000
  S   S128      1.0  0.04341  0.45066  0.63206  1.0000
  S   S129      1.0  0.06256  0.46007  0.66787  1.0000
  C   C454      1.0  0.11133  0.63087  0.64814  1.0000
  C   C455      1.0  0.08423  0.62082  0.64071  1.0000
  C   C456      1.0  0.06839  0.58960  0.63860  1.0000
  C   C457      1.0  0.07939  0.56817  0.64392  1.0000
  C   C458      1.0  0.10689  0.57828  0.65106  1.0000
  C   C459      1.0  0.12287  0.60960  0.65310  1.0000
  S   S130      1.0  0.31798  0.44308  0.72787  1.0000
  H   H811      1.0  0.04735  0.58190  0.63289  1.0000
  H   H812      1.0  0.11557  0.56193  0.65518  1.0000
  H   H813      1.0  0.14395  0.61727  0.65877  1.0000
  C   C460      1.0  0.19722  0.49641  0.71228  1.0000
  C   C461      1.0  0.19157  0.46598  0.71061  1.0000
  C   C462      1.0  0.17316  0.45056  0.69925  1.0000
  C   C463      1.0  0.16000  0.46524  0.68951  1.0000
  C   C464      1.0  0.16529  0.49559  0.69127  1.0000
  C   C465      1.0  0.18381  0.51107  0.70263  1.0000
  H   H814      1.0  0.20164  0.45446  0.71802  1.0000
  H   H815      1.0  0.16932  0.42715  0.69789  1.0000
  H   H816      1.0  0.15547  0.50725  0.68377  1.0000
  H   H817      1.0  0.18805  0.53464  0.70384  1.0000
  Fe  Fe70      1.0  0.47882  0.45353  0.65571  1.0000
  C   C466      1.0  0.99675  0.61564  0.64025  1.0000
  S   S131      1.0  0.99276  0.37878  0.66265  1.0000
  H   H818      1.0  0.06717  0.50721  0.48571  1.0000
  C   C467      1.0  0.37724  0.48191  0.68078  1.0000
  C   C468      1.0  0.37260  0.45310  0.68780  1.0000
  C   C469      1.0  0.35457  0.44154  0.70230  1.0000
  C   C470      1.0  0.34171  0.45896  0.71003  1.0000
  C   C471      1.0  0.34718  0.48812  0.70322  1.0000
  C   C472      1.0  0.36456  0.49937  0.68857  1.0000
  H   H819      1.0  0.38202  0.43933  0.68181  1.0000
  H   H820      1.0  0.35015  0.41881  0.70738  1.0000
  H   H821      1.0  0.33754  0.50179  0.70908  1.0000
  H   H822      1.0  0.36812  0.52169  0.68321  1.0000
  C   C473      1.0  0.44047  0.35322  0.71161  1.0000
  H   H823      1.0  0.04487  0.38394  0.57553  1.0000
  H   H824      1.0  0.05561  0.38823  0.68022  1.0000
  H   H825      1.0  0.01378  0.57869  0.65846  1.0000
  C   C474      1.0  0.00553  0.37660  0.53555  1.0000
  C   C475      1.0  0.43052  0.37553  0.70633  1.0000
  H   H826      1.0  0.09803  0.47832  0.69700  1.0000
  C   C476      1.0  0.44844  0.47345  0.50234  1.0000
  H   H827      1.0  0.01727  0.61328  0.63458  1.0000
  H   H828      1.0  0.43875  0.56499  0.51143  1.0000
  H   H829      1.0  0.99133  0.52396  0.66443  1.0000
  C   C477      1.0  0.08544  0.44439  0.55242  1.0000
  C   C478      1.0  0.07297  0.45662  0.56389  1.0000
  C   C479      1.0  0.07891  0.45404  0.57945  1.0000
  C   C480      1.0  0.09762  0.43932  0.58369  1.0000
  C   C481      1.0  0.11020  0.42726  0.57217  1.0000
  C   C482      1.0  0.10414  0.42971  0.55664  1.0000
  H   H830      1.0  0.05849  0.46806  0.56077  1.0000
  H   H831      1.0  0.06907  0.46343  0.58817  1.0000
  H   H832      1.0  0.12472  0.41587  0.57530  1.0000
  H   H833      1.0  0.11407  0.42032  0.54796  1.0000
  C   C483      1.0  0.20659  0.38767  0.50042  1.0000
  C   C484      1.0  0.08629  0.47357  0.70901  1.0000
  C   C485      1.0  0.25632  0.38594  0.50496  1.0000
  H   H834      1.0  0.23813  0.41501  0.51575  1.0000
  H   H835      1.0  0.09601  0.34691  0.54906  1.0000
  H   H836      1.0  0.01890  0.63180  0.66048  1.0000
  C   C486      1.0  0.40323  0.43203  0.55668  1.0000
  C   C487      1.0  0.41875  0.41350  0.55985  1.0000
  C   C488      1.0  0.43354  0.41557  0.57350  1.0000
  C   C489      1.0  0.43318  0.43619  0.58414  1.0000
  C   C490      1.0  0.41787  0.45492  0.58088  1.0000
  C   C491      1.0  0.40300  0.45281  0.56725  1.0000
  H   H837      1.0  0.41733  0.47085  0.58894  1.0000
  C   C492      1.0  0.08825  0.38068  0.71716  1.0000
  H   H838      1.0  0.32533  0.50621  0.65075  1.0000
  C   C493      1.0  0.45738  0.50354  0.51011  1.0000
  C   C494      1.0  0.03771  0.34886  0.55365  1.0000
  H   H839      1.0  0.29360  0.38996  0.57964  1.0000
  H   H840      1.0  0.44526  0.40095  0.57589  1.0000
  H   H841      1.0  0.35181  0.36887  0.72800  1.0000
  H   H842      1.0  0.28035  0.36006  0.55453  1.0000
  H   H843      1.0  0.43778  0.54259  0.52872  1.0000
  H   H844      1.0  0.40525  0.48937  0.52700  1.0000
  H   H845      1.0  0.05879  0.33457  0.57267  1.0000
  H   H846      1.0  0.10025  0.49259  0.71563  1.0000
  H   H847      1.0  0.31098  0.38249  0.60776  1.0000
  H   H848      1.0  0.47327  0.45423  0.51662  1.0000
  N   N26       1.0  0.31900  0.36156  0.57872  1.0000
  H   H849      1.0  0.39071  0.41348  0.72133  1.0000
  Fe  Fe71      1.0  0.39839  0.39410  0.48712  1.0000
  H   H850      1.0  0.34088  0.46377  0.64507  1.0000
  H   H851      1.0  0.35189  0.41748  0.62204  1.0000
  H   H852      1.0  0.03041  0.38560  0.53073  1.0000
  H   H853      1.0  0.29934  0.43743  0.48758  1.0000
  C   C495      1.0  0.35742  0.40294  0.61409  1.0000
  H   H854      1.0  0.07541  0.63707  0.63666  1.0000
  H   H855      1.0  0.21623  0.59645  0.48985  1.0000
  H   H856      1.0  0.33220  0.40896  0.56991  1.0000
  C   C496      1.0  0.07304  0.48978  0.49198  1.0000
  H   H857      1.0  0.01803  0.36144  0.70245  1.0000
  C   C497      1.0  0.03653  0.37741  0.72903  1.0000
  C   C498      1.0  0.00341  0.52864  0.67507  1.0000
  H   H858      1.0  0.10834  0.44561  0.71717  1.0000
  C   C499      1.0  0.07921  0.62487  0.68793  1.0000
  H   H859      1.0  0.24897  0.55355  0.48731  1.0000
  H   H860      1.0  0.33691  0.41677  0.59566  1.0000
  H   H861      1.0  0.23921  0.66103  0.71237  1.0000
  H   H862      1.0  0.99539  0.54109  0.69799  1.0000
  C   C500      1.0  0.99675  0.61340  0.65783  1.0000
  H   H863      1.0  0.06266  0.47300  0.70872  1.0000
  H   H864      1.0  0.01911  0.39930  0.55561  1.0000
  H   H865      1.0  0.00216  0.41652  0.68819  1.0000
  H   H866      1.0  0.08060  0.64698  0.68248  1.0000
  C   C501      1.0  0.23400  0.39775  0.50782  1.0000
  S   S132      1.0  0.22120  0.51697  0.72607  1.0000
  H   H867      1.0  0.01802  0.59462  0.70085  1.0000
  H   H868      1.0  0.18042  0.35715  0.48456  1.0000
  H   H869      1.0  0.10801  0.48700  0.50530  1.0000
  N   N27       1.0  0.26786  0.47300  0.67172  1.0000
  C   C502      1.0  0.24849  0.44749  0.68424  1.0000
  C   C503      1.0  0.24601  0.48030  0.66215  1.0000
  C   C504      1.0  0.28822  0.50170  0.67846  1.0000
  C   C505      1.0  0.27146  0.51361  0.69054  1.0000
  C   C506      1.0  0.22600  0.45477  0.65250  1.0000
  C   C507      1.0  0.20652  0.46577  0.64260  1.0000
  C   C508      1.0  0.29426  0.54412  0.69537  1.0000
  H   H870      1.0  0.23513  0.42602  0.67905  1.0000
  H   H871      1.0  0.23060  0.45305  0.69047  1.0000
  H   H872      1.0  0.22895  0.48506  0.66973  1.0000
  H   H873      1.0  0.25902  0.50188  0.65424  1.0000
  H   H874      1.0  0.30715  0.49837  0.68394  1.0000
  H   H875      1.0  0.30043  0.52089  0.66907  1.0000
  H   H876      1.0  0.26163  0.49706  0.70113  1.0000
  H   H877      1.0  0.25220  0.51760  0.68584  1.0000
  H   H878      1.0  0.29259  0.48972  0.63978  1.0000
  H   H879      1.0  0.24071  0.44790  0.64456  1.0000
  H   H880      1.0  0.20952  0.43418  0.66022  1.0000
  H   H881      1.0  0.22187  0.48536  0.63398  1.0000
  H   H882      1.0  0.19137  0.44678  0.63631  1.0000
  H   H883      1.0  0.19121  0.47303  0.64997  1.0000
  H   H884      1.0  0.30299  0.56222  0.68536  1.0000
  H   H885      1.0  0.28220  0.55152  0.70454  1.0000
  H   H886      1.0  0.31442  0.54169  0.70002  1.0000
  H   H887      1.0  0.23193  0.39159  0.70225  1.0000
  N   N28       1.0  0.13041  0.54783  0.51696  1.0000
  C   C509      1.0  0.15261  0.56910  0.50350  1.0000
  C   C510      1.0  0.10058  0.52694  0.51096  1.0000
  C   C511      1.0  0.12215  0.56723  0.52777  1.0000
  C   C512      1.0  0.14417  0.52943  0.52599  1.0000
  C   C513      1.0  0.16739  0.51983  0.51683  1.0000
  C   C514      1.0  0.18161  0.59648  0.50782  1.0000
  C   C515      1.0  0.09654  0.54935  0.54150  1.0000
  C   C516      1.0  0.10338  0.50533  0.49925  1.0000
  C   C517      1.0  0.05199  0.59803  0.68265  1.0000
  C   C518      1.0  0.17293  0.49515  0.52646  1.0000
  C   C519      1.0  0.20602  0.61206  0.49377  1.0000
  C   C520      1.0  0.09518  0.57057  0.55351  1.0000
  H   H888      1.0  0.14007  0.57901  0.49612  1.0000
  H   H889      1.0  0.16121  0.55652  0.49562  1.0000
  H   H890      1.0  0.08336  0.51129  0.52059  1.0000
  H   H891      1.0  0.08939  0.54090  0.50556  1.0000
  H   H892      1.0  0.11429  0.58296  0.52122  1.0000
  H   H893      1.0  0.14318  0.58229  0.53303  1.0000
  H   H894      1.0  0.15702  0.54227  0.53531  1.0000
  H   H895      1.0  0.12512  0.50826  0.53227  1.0000
  H   H896      1.0  0.19025  0.54000  0.51384  1.0000
  H   H897      1.0  0.15919  0.51067  0.50592  1.0000
  H   H898      1.0  0.17455  0.61411  0.51211  1.0000
  H   H899      1.0  0.19267  0.58892  0.51702  1.0000
  H   H900      1.0  0.10084  0.53060  0.54747  1.0000
  H   H901      1.0  0.07315  0.53917  0.53731  1.0000
  H   H902      1.0  0.38188  0.41598  0.60873  1.0000
  H   H903      1.0  0.03737  0.33829  0.70756  1.0000
  H   H904      1.0  0.99580  0.39168  0.60951  1.0000
  N   N29       1.0  0.01080  0.35218  0.56242  1.0000
  H   H905      1.0  0.45740  0.49765  0.52272  1.0000
  H   H906      1.0  0.19034  0.48931  0.51990  1.0000
  H   H907      1.0  0.18181  0.50336  0.53750  1.0000
  H   H908      1.0  0.35549  0.38184  0.62100  1.0000
  C   C521      1.0  0.00296  0.37562  0.55347  1.0000
  H   H909      1.0  0.99329  0.35378  0.53158  1.0000
  H   H910      1.0  0.07614  0.55730  0.56293  1.0000
  H   H911      1.0  0.11752  0.58036  0.55873  1.0000
  H   H912      1.0  0.09043  0.58956  0.54814  1.0000
  H   H913      1.0  0.01715  0.38395  0.72676  1.0000
  H   H914      1.0  0.42100  0.54116  0.48965  1.0000
  C   C522      1.0  0.33405  0.35011  0.56631  1.0000
  H   H915      1.0  0.35641  0.48379  0.48609  1.0000
  C   C523      1.0  0.47252  0.46048  0.50419  1.0000
  H   H916      1.0  0.01778  0.33473  0.67726  1.0000
  H   H917      1.0  0.43930  0.41421  0.68944  1.0000
  H   H918      1.0  0.43995  0.45961  0.71772  1.0000
  C   C524      1.0  0.05804  0.36858  0.68647  1.0000
  S   S133      1.0  0.47979  0.49807  0.66270  1.0000
  C   C525      1.0  0.33490  0.39483  0.60170  1.0000
  H   H919      1.0  0.15088  0.47387  0.52907  1.0000
  H   H920      1.0  0.36589  0.39054  0.58359  1.0000
  H   H921      1.0  0.08523  0.35683  0.71575  1.0000
  Fe  Fe72      1.0  0.36924  0.33577  0.51072  1.0000
  H   H922      1.0  0.03204  0.34117  0.54210  1.0000
  C   C526      1.0  0.34774  0.48777  0.52292  1.0000
  H   H923      1.0  0.40832  0.46867  0.72455  1.0000
  N   N30       1.0  0.99208  0.57562  0.68180  1.0000
  C   C527      1.0  0.06627  0.41639  0.70724  1.0000
  H   H924      1.0  0.27990  0.40454  0.53905  1.0000
  H   H925      1.0  0.10147  0.62340  0.68432  1.0000
  C   C528      1.0  0.30774  0.48436  0.64743  1.0000
  C   C529      1.0  0.28865  0.46255  0.66209  1.0000
  H   H926      1.0  0.28401  0.43191  0.69113  1.0000
  C   C530      1.0  0.26655  0.43907  0.69653  1.0000
  H   H927      1.0  0.12228  0.51750  0.48977  1.0000
  C   C531      1.0  0.25171  0.36428  0.49443  1.0000
  H   H928      1.0  0.07641  0.62426  0.70072  1.0000
  H   H929      1.0  0.27492  0.43928  0.65863  1.0000
  C   C532      1.0  0.24413  0.41232  0.70818  1.0000
  H   H930      1.0  0.22523  0.63307  0.49688  1.0000
  H   H931      1.0  0.42566  0.45560  0.50781  1.0000
  H   H932      1.0  0.99628  0.42117  0.48715  1.0000
  C   C533      1.0  0.40430  0.49871  0.51510  1.0000
  H   H933      1.0  0.38666  0.53047  0.52474  1.0000
  N   N31       1.0  0.43686  0.52018  0.50789  1.0000
  C   C534      1.0  0.34268  0.37538  0.58997  1.0000
  H   H934      1.0  0.25739  0.40664  0.71690  1.0000
  C   C535      1.0  0.47276  0.39537  0.68526  1.0000
  H   H935      1.0  0.27883  0.45873  0.70310  1.0000
  H   H936      1.0  0.46584  0.43954  0.49814  1.0000
  H   H937      1.0  0.34012  0.48642  0.62794  1.0000
  H   H938      1.0  0.20498  0.65429  0.72527  1.0000
  C   C536      1.0  0.38008  0.51261  0.51663  1.0000
  C   C537      1.0  0.32536  0.46984  0.63793  1.0000
  H   H939      1.0  0.39410  0.47857  0.50844  1.0000
  C   C538      1.0  0.48187  0.37226  0.69020  1.0000
  C   C539      1.0  0.31101  0.38659  0.57160  1.0000
  C   C540      1.0  0.46561  0.35109  0.70323  1.0000
  H   H940      1.0  0.00497  0.42155  0.53156  1.0000
  H   H941      1.0  0.30580  0.43051  0.55100  1.0000
  C   C541      1.0  0.04313  0.34099  0.67740  1.0000
  S   S134      1.0  0.28058  0.35118  0.48908  1.0000
  H   H942      1.0  0.31858  0.38637  0.54644  1.0000
  C   C542      1.0  0.04163  0.36214  0.70324  1.0000
  H   H943      1.0  0.30628  0.45985  0.66909  1.0000
  S   S135      1.0  0.36003  0.34679  0.48672  1.0000
  C   C543      1.0  0.98759  0.54296  0.68637  1.0000
  H   H944      1.0  0.05270  0.57662  0.68777  1.0000
  S   S136      1.0  0.45845  0.50718  0.62806  1.0000
  H   H945      1.0  0.35442  0.36982  0.55977  1.0000
  H   H946      1.0  0.05430  0.34690  0.66524  1.0000
  N   N32       1.0  0.05870  0.38431  0.71445  1.0000
  C   C544      1.0  0.43521  0.52791  0.49100  1.0000
  H   H947      1.0  0.33982  0.52607  0.48654  1.0000
  H   H948      1.0  0.33952  0.46955  0.51500  1.0000
  H   H949      1.0  0.10758  0.39546  0.70807  1.0000
  C   C545      1.0  0.44666  0.39664  0.69322  1.0000
  H   H950      1.0  0.08326  0.37413  0.68634  1.0000
  H   H951      1.0  0.02424  0.34632  0.58532  1.0000
  C   C546      1.0  0.02046  0.59854  0.68802  1.0000
  C   C547      1.0  0.29915  0.38296  0.55535  1.0000
  C   C548      1.0  0.99376  0.58142  0.66441  1.0000
  H   H952      1.0  0.34844  0.47713  0.53453  1.0000
  H   H953      1.0  0.08133  0.42178  0.69607  1.0000
  C   C549      1.0  0.20151  0.36532  0.49022  1.0000
  C   C550      1.0  0.08405  0.44311  0.71670  1.0000
  H   H954      1.0  0.32594  0.38509  0.73353  1.0000
  H   H955      1.0  0.02827  0.54388  0.67140  1.0000
  C   C551      1.0  0.01134  0.38356  0.60293  1.0000
  H   H956      1.0  0.05355  0.47542  0.50099  1.0000
  H   H957      1.0  0.27751  0.39425  0.51054  1.0000
  H   H958      1.0  0.30875  0.44880  0.63346  1.0000
  C   C552      1.0  0.99970  0.37498  0.58726  1.0000
  H   H959      1.0  0.48209  0.51839  0.50574  1.0000
  C   C553      1.0  0.29066  0.33587  0.58776  1.0000
  S   S137      1.0  0.33481  0.35086  0.52244  1.0000
  H   H960      1.0  0.05800  0.37178  0.55117  1.0000
  H   H961      1.0  0.04445  0.41802  0.70440  1.0000
  H   H962      1.0  0.27965  0.34505  0.59653  1.0000
  C   C554      1.0  0.28713  0.40699  0.55091  1.0000
  H   H963      1.0  0.05588  0.59965  0.66994  1.0000
  C   C555      1.0  0.02140  0.36414  0.57760  1.0000
  H   H964      1.0  0.42257  0.50654  0.48560  1.0000
  H   H965      1.0  0.34639  0.35710  0.59688  1.0000
  H   H966      1.0  0.45278  0.33739  0.50265  1.0000
  H   H967      1.0  0.26659  0.40384  0.55905  1.0000
  H   H968      1.0  0.99512  0.39870  0.51561  1.0000
  H   H969      1.0  0.27930  0.34326  0.72582  1.0000
  H   H970      1.0  0.01141  0.36339  0.60991  1.0000
  C   C556      1.0  0.22396  0.35363  0.48731  1.0000
  H   H971      1.0  0.41052  0.37669  0.71250  1.0000
  H   H972      1.0  0.47196  0.37564  0.51962  1.0000
  H   H973      1.0  0.20106  0.63829  0.70690  1.0000
  C   C557      1.0  0.00168  0.49810  0.68237  1.0000
  C   C558      1.0  0.47691  0.34198  0.50526  1.0000
  C   C559      1.0  0.21475  0.65849  0.71290  1.0000
  H   H974      1.0  0.11683  0.66183  0.71403  1.0000
  C   C560      1.0  0.22639  0.53650  0.48419  1.0000
  H   H975      1.0  0.12973  0.36258  0.73152  1.0000
  H   H976      1.0  0.21577  0.51715  0.49356  1.0000
  H   H977      1.0  0.01495  0.50164  0.69259  1.0000
  C   C561      1.0  0.98512  0.39352  0.69236  1.0000
  H   H978      1.0  0.37834  0.33414  0.55120  1.0000
  C   C562      1.0  0.99227  0.39786  0.52841  1.0000
  H   H979      1.0  0.31810  0.34010  0.55750  1.0000
  H   H980      1.0  0.99077  0.37188  0.48797  1.0000
  H   H981      1.0  0.47877  0.59417  0.53491  1.0000
  C   C563      1.0  0.48347  0.56649  0.51694  1.0000
  H   H982      1.0  0.47182  0.33723  0.53672  1.0000
  H   H983      1.0  0.47255  0.33314  0.70683  1.0000
  H   H984      1.0  0.47909  0.39645  0.49161  1.0000
  H   H985      1.0  0.14977  0.40327  0.72515  1.0000
  C   C564      1.0  0.40181  0.42196  0.73184  1.0000
  C   C565      1.0  0.42259  0.45624  0.72778  1.0000
  H   H986      1.0  0.17535  0.65959  0.48414  1.0000
  C   C566      1.0  0.13176  0.38571  0.73380  1.0000
  C   C567      1.0  0.10035  0.38739  0.73322  1.0000
  Fe  Fe73      1.0  0.21409  0.38689  0.91502  1.0000
  Fe  Fe74      1.0  0.15748  0.35301  0.89769  1.0000
  S   S138      1.0  0.23539  0.41976  0.93302  1.0000
  Fe  Fe75      1.0  0.22243  0.38495  0.87944  1.0000
  N   N33       1.0  0.35527  0.38301  0.75109  1.0000
  S   S139      1.0  0.25531  0.41290  0.85794  1.0000
  C   C568      1.0  0.31330  0.39926  0.76329  1.0000
  H   H987      1.0  0.27634  0.40631  0.77629  1.0000
  C   C569      1.0  0.37683  0.41624  0.74574  1.0000
  C   C570      1.0  0.30903  0.61864  0.78475  1.0000
  S   S140      1.0  0.19439  0.40185  0.89498  1.0000
  S   S141      1.0  0.24527  0.37383  0.89929  1.0000
  C   C571      1.0  0.42391  0.62674  0.74480  1.0000
  Fe  Fe76      1.0  0.25086  0.46116  0.76990  1.0000
  S   S142      1.0  0.25430  0.50910  0.76538  1.0000
  S   S143      1.0  0.21801  0.42799  0.79006  1.0000
  H   H988      1.0  0.40314  0.64461  0.76167  1.0000
  Fe  Fe77      1.0  0.30561  0.52318  0.75954  1.0000
  S   S144      1.0  0.34538  0.56188  0.76858  1.0000
  S   S145      1.0  0.24283  0.45053  0.74534  1.0000
  S   S146      1.0  0.30249  0.47579  0.76572  1.0000
  C   C572      1.0  0.33866  0.58927  0.77881  1.0000
  H   H989      1.0  0.29402  0.33451  0.75190  1.0000
  C   C573      1.0  0.31271  0.59546  0.77703  1.0000
  H   H990      1.0  0.34979  0.39310  0.77460  1.0000
  H   H991      1.0  0.29589  0.58289  0.76944  1.0000
  C   C574      1.0  0.24450  0.41504  0.83899  1.0000
  C   C575      1.0  0.21337  0.40135  0.83591  1.0000
  C   C576      1.0  0.20571  0.40509  0.82080  1.0000
  C   C577      1.0  0.22901  0.42259  0.80866  1.0000
  C   C578      1.0  0.26018  0.43588  0.81169  1.0000
  C   C579      1.0  0.26785  0.43197  0.82677  1.0000
  H   H992      1.0  0.19518  0.38818  0.84520  1.0000
  H   H993      1.0  0.18154  0.39465  0.81856  1.0000
  H   H994      1.0  0.27836  0.44923  0.80245  1.0000
  H   H995      1.0  0.29201  0.44252  0.82904  1.0000
  C   C580      1.0  0.22639  0.41111  0.95343  1.0000
  C   C581      1.0  0.20596  0.38172  0.96030  1.0000
  H   H996      1.0  0.03785  0.33291  0.73593  1.0000
  C   C582      1.0  0.24057  0.43431  0.96300  1.0000
  H   H997      1.0  0.19481  0.36371  0.95309  1.0000
  H   H998      1.0  0.28924  0.62378  0.78309  1.0000
  H   H999      1.0  0.25637  0.45712  0.95778  1.0000
  H   H1000     1.0  0.32420  0.33225  0.90120  1.0000
  H   H1001     1.0  0.08380  0.37014  0.74249  1.0000
  C   C583      1.0  0.33640  0.36975  0.73804  1.0000
  C   C584      1.0  0.36129  0.33882  0.76793  1.0000
  H   H1002     1.0  0.30828  0.42649  0.92706  1.0000
  H   H1003     1.0  0.48122  0.34577  0.83978  1.0000
  C   C585      1.0  0.47349  0.39694  0.74568  1.0000
  H   H1004     1.0  0.44276  0.63929  0.81663  1.0000
  C   C586      1.0  0.25330  0.34236  0.97411  1.0000
  S   S147      1.0  0.30226  0.51780  0.73421  1.0000
  H   H1005     1.0  0.38927  0.42770  0.75550  1.0000
  H   H1006     1.0  0.30695  0.39731  0.91494  1.0000
  H   H1007     1.0  0.36335  0.42918  0.74208  1.0000
  H   H1008     1.0  0.37311  0.64112  0.80422  1.0000
  H   H1009     1.0  0.27684  0.36982  0.78160  1.0000
  H   H1010     1.0  0.41811  0.63824  0.73482  1.0000
  H   H1011     1.0  0.04308  0.33263  0.89543  1.0000
  H   H1012     1.0  0.33214  0.65653  0.92846  1.0000
  C   C587      1.0  0.42622  0.64431  0.75895  1.0000
  H   H1013     1.0  0.38283  0.66252  0.93780  1.0000
  C   C588      1.0  0.36031  0.60570  0.78870  1.0000
  Fe  Fe78      1.0  0.29523  0.46930  0.74076  1.0000
  C   C589      1.0  0.02087  0.34327  0.73609  1.0000
  H   H1014     1.0  0.41708  0.41042  0.73442  1.0000
  C   C590      1.0  0.33102  0.63548  0.79441  1.0000
  H   H1015     1.0  0.29294  0.34484  0.92664  1.0000
  C   C591      1.0  0.29186  0.39462  0.77818  1.0000
  C   C592      1.0  0.35646  0.62866  0.79655  1.0000
  C   C593      1.0  0.34203  0.61213  0.89149  1.0000
  H   H1016     1.0  0.36012  0.34754  0.77933  1.0000
  H   H1017     1.0  0.33644  0.41039  0.92817  1.0000
  N   N34       1.0  0.24376  0.51218  0.82474  1.0000
  C   C594      1.0  0.23078  0.50383  0.80955  1.0000
  C   C595      1.0  0.27639  0.51368  0.82428  1.0000
  C   C596      1.0  0.22301  0.48682  0.83714  1.0000
  C   C597      1.0  0.24345  0.54188  0.82905  1.0000
  C   C598      1.0  0.25895  0.57014  0.81673  1.0000
  C   C599      1.0  0.19653  0.49929  0.80880  1.0000
  C   C600      1.0  0.23464  0.48854  0.85342  1.0000
  C   C601      1.0  0.29726  0.52430  0.80853  1.0000
  C   C602      1.0  0.33045  0.52825  0.81056  1.0000
  C   C603      1.0  0.25365  0.59737  0.82204  1.0000
  C   C604      1.0  0.18740  0.49531  0.79238  1.0000
  C   C605      1.0  0.21092  0.46275  0.86506  1.0000
  H   H1018     1.0  0.23191  0.48212  0.80671  1.0000
  H   H1019     1.0  0.24535  0.52114  0.79980  1.0000
  H   H1020     1.0  0.28948  0.52835  0.83300  1.0000
  H   H1021     1.0  0.27529  0.49056  0.82771  1.0000
  H   H1022     1.0  0.21965  0.46402  0.83349  1.0000
  H   H1023     1.0  0.19929  0.48628  0.83882  1.0000
  H   H1024     1.0  0.21909  0.53865  0.83246  1.0000
  H   H1025     1.0  0.25560  0.54885  0.83952  1.0000
  H   H1026     1.0  0.24924  0.56553  0.80552  1.0000
  H   H1027     1.0  0.28453  0.57742  0.81499  1.0000
  H   H1028     1.0  0.18019  0.47823  0.81628  1.0000
  H   H1029     1.0  0.19301  0.51927  0.81253  1.0000
  H   H1030     1.0  0.23814  0.51055  0.85793  1.0000
  H   H1031     1.0  0.25697  0.48613  0.85314  1.0000
  H   H1032     1.0  0.28787  0.50679  0.80034  1.0000
  H   H1033     1.0  0.29854  0.54625  0.80312  1.0000
  H   H1034     1.0  0.33015  0.50666  0.81614  1.0000
  H   H1035     1.0  0.34451  0.53388  0.79910  1.0000
  H   H1036     1.0  0.34189  0.54728  0.81769  1.0000
  H   H1037     1.0  0.22832  0.59126  0.82454  1.0000
  H   H1038     1.0  0.26548  0.60506  0.83252  1.0000
  H   H1039     1.0  0.26351  0.61686  0.81273  1.0000
  H   H1040     1.0  0.16246  0.49085  0.79232  1.0000
  H   H1041     1.0  0.20176  0.51648  0.78446  1.0000
  H   H1042     1.0  0.19057  0.47553  0.78803  1.0000
  H   H1043     1.0  0.20689  0.43996  0.86129  1.0000
  H   H1044     1.0  0.22006  0.46424  0.87649  1.0000
  H   H1045     1.0  0.18833  0.46466  0.86642  1.0000
  N   N35       1.0  0.33525  0.61597  0.92108  1.0000
  C   C606      1.0  0.32195  0.63138  0.93214  1.0000
  C   C607      1.0  0.37057  0.63083  0.91995  1.0000
  C   C608      1.0  0.32596  0.62115  0.90525  1.0000
  C   C609      1.0  0.32228  0.58166  0.92549  1.0000
  C   C610      1.0  0.32390  0.57055  0.94236  1.0000
  C   C611      1.0  0.28593  0.61959  0.93394  1.0000
  C   C612      1.0  0.42077  0.65015  0.93272  1.0000
  C   C613      1.0  0.38576  0.64169  0.93493  1.0000
  C   C614      1.0  0.28951  0.38060  0.93924  1.0000
  H   H1046     1.0  0.27784  0.62529  0.92304  1.0000
  H   H1047     1.0  0.06402  0.33297  0.93155  1.0000
  H   H1048     1.0  0.38000  0.60042  0.79034  1.0000
  H   H1049     1.0  0.98912  0.34994  0.75330  1.0000
  H   H1050     1.0  0.32884  0.62948  0.94392  1.0000
  H   H1051     1.0  0.38022  0.61536  0.91513  1.0000
  H   H1052     1.0  0.30777  0.52828  0.95782  1.0000
  H   H1053     1.0  0.31936  0.35880  0.77037  1.0000
  H   H1054     1.0  0.30033  0.60817  0.90508  1.0000
  H   H1055     1.0  0.29745  0.57028  0.92315  1.0000
  H   H1056     1.0  0.33463  0.57142  0.91805  1.0000
  H   H1057     1.0  0.31356  0.58070  0.95086  1.0000
  H   H1058     1.0  0.34841  0.57614  0.94431  1.0000
  H   H1059     1.0  0.48136  0.42034  0.74940  1.0000
  H   H1060     1.0  0.27420  0.59438  0.93717  1.0000
  H   H1061     1.0  0.23026  0.33396  0.94799  1.0000
  C   C615      1.0  0.33488  0.38261  0.76538  1.0000
  C   C616      1.0  0.27527  0.63466  0.94660  1.0000
  H   H1062     1.0  0.37527  0.62430  0.94508  1.0000
  H   H1063     1.0  0.29821  0.34192  0.96765  1.0000
  C   C617      1.0  0.30582  0.53565  0.94573  1.0000
  H   H1064     1.0  0.25178  0.64025  0.98092  1.0000
  H   H1065     1.0  0.36721  0.62813  0.88925  1.0000
  H   H1066     1.0  0.43530  0.46613  0.73771  1.0000
  H   H1067     1.0  0.43078  0.63102  0.76856  1.0000
  S   S148      1.0  0.10769  0.34760  0.89652  1.0000
  H   H1068     1.0  0.28614  0.66006  0.94383  1.0000
  H   H1069     1.0  0.46006  0.37991  0.75575  1.0000
  C   C618      1.0  0.32729  0.61366  0.87662  1.0000
  H   H1070     1.0  0.26558  0.37744  0.93734  1.0000
  H   H1071     1.0  0.40501  0.60311  0.74750  1.0000
  H   H1072     1.0  0.30245  0.59667  0.87789  1.0000
  H   H1073     1.0  0.45778  0.39443  0.73654  1.0000
  H   H1074     1.0  0.25529  0.36341  0.96730  1.0000
  H   H1075     1.0  0.39761  0.38222  0.75883  1.0000
  H   H1076     1.0  0.42499  0.62960  0.93075  1.0000
  H   H1077     1.0  0.30004  0.34907  0.87412  1.0000
  S   S149      1.0  0.17524  0.33928  0.91886  1.0000
  C   C619      1.0  0.20005  0.37560  0.97656  1.0000
  H   H1078     1.0  0.44615  0.62495  0.74156  1.0000
  C   C620      1.0  0.31176  0.40512  0.92656  1.0000
  H   H1079     1.0  0.11544  0.34165  0.93873  1.0000
  C   C621      1.0  0.23439  0.42827  0.97927  1.0000
  H   H1080     1.0  0.29816  0.39033  0.75402  1.0000
  H   H1081     1.0  0.42670  0.64617  0.79089  1.0000
  H   H1082     1.0  0.10329  0.41033  0.73615  1.0000
  H   H1083     1.0  0.31538  0.52381  0.93777  1.0000
  Fe  Fe79      1.0  0.25017  0.49958  0.74042  1.0000
  C   C622      1.0  0.00634  0.33981  0.75276  1.0000
  H   H1084     1.0  0.32723  0.42437  0.76044  1.0000
  H   H1085     1.0  0.02466  0.35129  0.76035  1.0000
  H   H1086     1.0  0.33102  0.64583  0.90243  1.0000
  H   H1087     1.0  0.28065  0.52846  0.94445  1.0000
  H   H1088     1.0  0.29619  0.35672  0.85399  1.0000
  H   H1089     1.0  0.04806  0.39171  0.73813  1.0000
  H   H1090     1.0  0.34006  0.58846  0.89377  1.0000
  H   H1091     1.0  0.34006  0.60843  0.86686  1.0000
  H   H1092     1.0  0.38233  0.35788  0.74432  1.0000
  H   H1093     1.0  0.13959  0.39022  0.74545  1.0000
  C   C623      1.0  0.28644  0.33957  0.86439  1.0000
  S   S150      1.0  0.32479  0.61228  0.97849  1.0000
  H   H1094     1.0  0.28182  0.62872  0.95794  1.0000
  C   C624      1.0  0.37523  0.36623  0.75491  1.0000
  H   H1095     1.0  0.29533  0.38991  0.95044  1.0000
  Fe  Fe80      1.0  0.35719  0.66235  0.97894  1.0000
  H   H1096     1.0  0.40598  0.33686  0.77031  1.0000
  H   H1097     1.0  0.26188  0.33586  0.86756  1.0000
  C   C625      1.0  0.46041  0.65428  0.80701  1.0000
  H   H1098     1.0  0.47145  0.64064  0.80145  1.0000
  H   H1099     1.0  0.24949  0.62631  0.94756  1.0000
  H   H1100     1.0  0.31758  0.35596  0.94160  1.0000
  H   H1101     1.0  0.18441  0.35273  0.98176  1.0000
  H   H1102     1.0  0.30577  0.40456  0.78775  1.0000
  C   C626      1.0  0.29339  0.35030  0.93884  1.0000
  H   H1103     1.0  0.33653  0.33498  0.85253  1.0000
  H   H1104     1.0  0.27187  0.33187  0.90106  1.0000
  S   S151      1.0  0.18428  0.33712  0.88075  1.0000
  H   H1105     1.0  0.32858  0.63699  0.87371  1.0000
  H   H1106     1.0  0.43140  0.65949  0.94324  1.0000
  H   H1107     1.0  0.38021  0.65213  0.91160  1.0000
  C   C627      1.0  0.31028  0.33678  0.74160  1.0000
  H   H1108     1.0  0.98987  0.34755  0.86528  1.0000
  H   H1109     1.0  0.22521  0.92354  0.98935  1.0000
  S   S152      1.0  0.36076  0.69158  0.99832  1.0000
  C   C628      1.0  0.22792  0.79312  0.11345  1.0000
  C   C629      1.0  0.30422  0.77759  0.13340  1.0000
  C   C630      1.0  0.04335  0.69611  0.08879  1.0000
  H   H1110     1.0  0.38421  0.83905  0.05849  1.0000
  C   C631      1.0  0.24507  0.69375  0.02993  1.0000
  Fe  Fe81      1.0  0.06274  0.71108  0.15483  1.0000
  S   S153      1.0  0.10075  0.75763  0.14478  1.0000
  S   S154      1.0  0.01749  0.70915  0.16585  1.0000
  Fe  Fe82      1.0  0.21333  0.81891  0.06499  1.0000
  S   S155      1.0  0.25921  0.82356  0.07232  1.0000
  S   S156      1.0  0.16815  0.77968  0.07633  1.0000
  Fe  Fe83      1.0  0.24465  0.86438  0.03595  1.0000
  S   S157      1.0  0.29299  0.87184  0.04125  1.0000
  S   S158      1.0  0.23592  0.89213  0.01588  1.0000
  Fe  Fe84      1.0  0.27246  0.82075  0.04753  1.0000
  S   S159      1.0  0.29790  0.79016  0.04594  1.0000
  Fe  Fe85      1.0  0.27674  0.87420  0.06589  1.0000
  S   S160      1.0  0.31571  0.90490  0.07917  1.0000
  S   S161      1.0  0.22544  0.81285  0.04031  1.0000
  S   S162      1.0  0.22942  0.87024  0.06036  1.0000
  C   C632      1.0  0.11925  0.76364  0.12572  1.0000
  C   C633      1.0  0.14034  0.79345  0.11943  1.0000
  C   C634      1.0  0.15584  0.79882  0.10436  1.0000
  C   C635      1.0  0.15040  0.77434  0.09550  1.0000
  C   C636      1.0  0.12943  0.74455  0.10181  1.0000
  C   C637      1.0  0.11400  0.73919  0.11687  1.0000
  H   H1111     1.0  0.14462  0.81247  0.12624  1.0000
  H   H1112     1.0  0.17168  0.82190  0.09954  1.0000
  H   H1113     1.0  0.12515  0.72553  0.09501  1.0000
  H   H1114     1.0  0.09829  0.71613  0.12169  1.0000
  C   C638      1.0  0.31830  0.96246  0.11955  1.0000
  C   C639      1.0  0.09819  0.80298  0.07861  1.0000
  C   C640      1.0  0.34382  0.94222  0.10110  1.0000
  C   C641      1.0  0.31567  0.92669  0.09476  1.0000
  C   C642      1.0  0.28882  0.92924  0.10081  1.0000
  C   C643      1.0  0.29015  0.94696  0.11318  1.0000
  C   C644      1.0  0.34514  0.95992  0.11347  1.0000
  H   H1115     1.0  0.26707  0.91754  0.09599  1.0000
  H   H1116     1.0  0.26927  0.94886  0.11780  1.0000
  C   C645      1.0  0.32143  0.76300  0.99921  1.0000
  C   C646      1.0  0.30307  0.77946  0.00024  1.0000
  C   C647      1.0  0.29574  0.78809  0.01453  1.0000
  C   C648      1.0  0.30637  0.77981  0.02786  1.0000
  C   C649      1.0  0.32453  0.76316  0.02684  1.0000
  C   C650      1.0  0.33238  0.75512  0.01250  1.0000
  H   H1117     1.0  0.36438  0.87377  0.06997  1.0000
  H   H1118     1.0  0.28173  0.80097  0.01524  1.0000
  H   H1119     1.0  0.33269  0.75662  0.03715  1.0000
  H   H1120     1.0  0.34681  0.74273  0.01167  1.0000
  H   H1121     1.0  0.41912  0.75018  0.03324  1.0000
  C   C651      1.0  0.23348  0.88405  0.99629  1.0000
  H   H1122     1.0  0.34471  0.69351  0.05017  1.0000
  H   H1123     1.0  0.06415  0.71345  0.08136  1.0000
  H   H1124     1.0  0.24060  0.84284  0.99940  1.0000
  H   H1125     1.0  0.39408  0.77927  0.02066  1.0000
  C   C652      1.0  0.01751  0.68869  0.22669  1.0000
  H   H1126     1.0  0.26941  0.97164  0.21442  1.0000
  H   H1127     1.0  0.43484  0.80245  0.02024  1.0000
  H   H1128     1.0  0.41200  0.82587  0.00440  1.0000
  Fe  Fe86      1.0  0.01960  0.67594  0.18471  1.0000
  H   H1129     1.0  0.05329  0.72208  0.10824  1.0000
  H   H1130     1.0  0.08505  0.76797  0.09760  1.0000
  C   C653      1.0  0.41267  0.79166  0.02791  1.0000
  C   C654      1.0  0.23213  0.81963  0.12349  1.0000
  H   H1131     1.0  0.17269  0.75408  0.12668  1.0000
  H   H1132     1.0  0.20897  0.79098  0.10618  1.0000
  H   H1133     1.0  0.28069  0.76004  0.11383  1.0000
  H   H1134     1.0  0.22717  0.69016  0.05410  1.0000
  H   H1135     1.0  0.28738  0.79920  0.11646  1.0000
  H   H1136     1.0  0.10544  0.82423  0.99264  1.0000
  H   H1137     1.0  0.23959  0.73073  0.07303  1.0000
  H   H1138     1.0  0.32210  0.95665  0.05409  1.0000
  C   C655      1.0  0.02891  0.75045  0.12464  1.0000
  H   H1139     1.0  0.02499  0.72782  0.13062  1.0000
  C   C656      1.0  0.43906  0.86948  0.02527  1.0000
  H   H1140     1.0  0.01501  0.69288  0.11018  1.0000
  H   H1141     1.0  0.28338  0.98504  0.99479  1.0000
  H   H1142     1.0  0.24807  0.77710  0.14121  1.0000
  H   H1143     1.0  0.38043  0.80210  0.04195  1.0000
  H   H1144     1.0  0.26799  0.85628  0.10742  1.0000
  C   C657      1.0  0.47485  0.77973  0.00517  1.0000
  H   H1145     1.0  0.47052  0.84680  0.02454  1.0000
  H   H1146     1.0  0.41972  0.82260  0.04574  1.0000
  H   H1147     1.0  0.35933  0.96734  0.04289  1.0000
  H   H1148     1.0  0.05427  0.76333  0.12125  1.0000
  S   S163      1.0  0.99972  0.67661  0.20953  1.0000
  H   H1149     1.0  0.08855  0.81709  0.07213  1.0000
  H   H1150     1.0  0.10541  0.78965  0.07053  1.0000
  S   S164      1.0  0.37008  0.99369  0.17026  1.0000
  H   H1151     1.0  0.25666  0.76344  0.09380  1.0000
  H   H1152     1.0  0.39296  0.75586  0.04745  1.0000
  C   C658      1.0  0.22751  0.72184  0.08494  1.0000
  H   H1153     1.0  0.38631  0.87630  0.02773  1.0000
  H   H1154     1.0  0.43485  0.77864  0.04639  1.0000
  C   C659      1.0  0.24440  0.85047  0.11343  1.0000
  H   H1155     1.0  0.07123  0.68074  0.10309  1.0000
  C   C660      1.0  0.23637  0.85831  0.99127  1.0000
  H   H1156     1.0  0.38002  0.86997  0.00347  1.0000
  C   C661      1.0  0.22412  0.69891  0.04250  1.0000
  C   C662      1.0  0.36147  0.86915  0.05773  1.0000
  H   H1157     1.0  0.12947  0.70987  0.14347  1.0000
  Fe  Fe87      1.0  0.99454  0.66867  0.15262  1.0000
  H   H1158     1.0  0.24850  0.93044  0.21580  1.0000
  C   C663      1.0  0.24999  0.95128  0.22109  1.0000
  H   H1159     1.0  0.43938  0.89104  0.01960  1.0000
  H   H1160     1.0  0.11933  0.81868  0.08350  1.0000
  H   H1161     1.0  0.26951  0.70721  0.03202  1.0000
  C   C664      1.0  0.19169  0.75303  0.13309  1.0000
  H   H1162     1.0  0.33320  0.99533  0.07693  1.0000
  C   C665      1.0  0.39710  0.83528  0.01046  1.0000
  N   N36       1.0  0.22092  0.76219  0.12199  1.0000
  C   C666      1.0  0.15071  0.82133  0.00743  1.0000
  H   H1163     1.0  0.26137  0.70307  0.99139  1.0000
  H   H1164     1.0  0.19532  0.76945  0.14191  1.0000
  C   C667      1.0  0.40471  0.81552  0.03618  1.0000
  H   H1165     1.0  0.17625  0.70246  0.13469  1.0000
  N   N37       1.0  0.02017  0.73414  0.09664  1.0000
  H   H1166     1.0  0.19921  0.68720  0.04045  1.0000
  C   C668      1.0  0.03286  0.71141  0.10176  1.0000
  H   H1167     1.0  0.04997  0.75150  0.07491  1.0000
  C   C669      1.0  0.01915  0.76770  0.13645  1.0000
  H   H1168     1.0  0.24922  0.80116  0.10512  1.0000
  H   H1169     1.0  0.24623  0.86893  0.12081  1.0000
  S   S165      1.0  0.06700  0.68087  0.17466  1.0000
  C   C670      1.0  0.27615  0.67380  0.00593  1.0000
  S   S166      1.0  0.03955  0.67284  0.14043  1.0000
  H   H1170     1.0  0.24897  0.82161  0.13199  1.0000
  S   S167      1.0  0.44610  0.71618  0.00860  1.0000
  C   C671      1.0  0.26441  0.99281  0.99420  1.0000
  H   H1171     1.0  0.02278  0.79072  0.13112  1.0000
  H   H1172     1.0  0.35950  0.83738  0.03312  1.0000
  H   H1173     1.0  0.03329  0.77582  0.08119  1.0000
  C   C672      1.0  0.41498  0.76768  0.03954  1.0000
  H   H1174     1.0  0.03366  0.77096  0.14621  1.0000
  C   C673      1.0  0.14731  0.71222  0.15147  1.0000
  C   C674      1.0  0.21438  0.73811  0.11074  1.0000
  H   H1175     1.0  0.21931  0.71877  0.11556  1.0000
  H   H1176     1.0  0.02451  0.68487  0.08146  1.0000
  H   H1177     1.0  0.17487  0.82843  0.01056  1.0000
  H   H1178     1.0  0.06932  0.79594  0.09989  1.0000
  C   C675      1.0  0.46605  0.86390  0.01713  1.0000
  C   C676      1.0  0.38678  0.85996  0.05120  1.0000
  C   C677      1.0  0.04367  0.76034  0.08548  1.0000
  C   C678      1.0  0.27997  0.77575  0.12240  1.0000
  C   C679      1.0  0.17913  0.72067  0.14236  1.0000
  H   H1179     1.0  0.13966  0.68985  0.15867  1.0000
  H   H1180     1.0  0.20939  0.81594  0.12978  1.0000
  H   H1181     1.0  0.22092  0.76249  0.08770  1.0000
  H   H1182     1.0  0.22837  0.84986  0.10465  1.0000
  H   H1183     1.0  0.33792  0.85030  0.05747  1.0000
  H   H1184     1.0  0.13677  0.79685  0.01201  1.0000
  H   H1185     1.0  0.24188  0.73998  0.13675  1.0000
  H   H1186     1.0  0.29461  0.78566  0.98993  1.0000
  H   H1187     1.0  0.23808  0.70760  0.09052  1.0000
  H   H1188     1.0  0.36472  0.94040  0.09648  1.0000
  C   C680      1.0  0.23135  0.74894  0.09403  1.0000
  C   C681      1.0  0.38393  0.85431  0.03390  1.0000
  H   H1189     1.0  0.99975  0.71324  0.07649  1.0000
  C   C682      1.0  0.24690  0.76337  0.13132  1.0000
  H   H1190     1.0  0.34639  0.66873  0.03593  1.0000
  H   H1191     1.0  0.14071  0.83579  0.01301  1.0000
  C   C683      1.0  0.15146  0.82566  0.98983  1.0000
  H   H1192     1.0  0.42064  0.88080  0.99685  1.0000
  N   N38       1.0  0.40681  0.84360  0.02627  1.0000
  H   H1193     1.0  0.36293  0.89027  0.05103  1.0000
  H   H1194     1.0  0.46097  0.85587  0.00562  1.0000
  H   H1195     1.0  0.18905  0.72755  0.10908  1.0000
  H   H1196     1.0  0.35690  0.96443  0.06368  1.0000
  H   H1197     1.0  0.31610  0.69774  0.02852  1.0000
  C   C684      1.0  0.34761  0.97129  0.05348  1.0000
  C   C685      1.0  0.00938  0.74557  0.11066  1.0000
  C   C686      1.0  0.07419  0.78139  0.09171  1.0000
  H   H1198     1.0  0.22790  0.95381  0.22021  1.0000
  H   H1199     1.0  0.29858  0.75456  0.13950  1.0000
  H   H1200     1.0  0.99423  0.75436  0.14113  1.0000
  H   H1201     1.0  0.30517  0.79374  0.14207  1.0000
  H   H1202     1.0  0.05423  0.79852  0.98780  1.0000
  H   H1203     1.0  0.37311  0.81648  0.01178  1.0000
  H   H1204     1.0  0.36693  0.97171  0.11826  1.0000
  H   H1205     1.0  0.23058  0.72394  0.04236  1.0000
  H   H1206     1.0  0.44567  0.87480  0.03705  1.0000
  H   H1207     1.0  0.45839  0.77893  0.99708  1.0000
  H   H1208     1.0  0.32766  0.78617  0.12671  1.0000
  H   H1209     1.0  0.24178  0.70375  0.01872  1.0000
  H   H1210     1.0  0.00738  0.76731  0.10718  1.0000
  S   S168      1.0  0.31898  0.98571  0.13456  1.0000
  C   C687      1.0  0.39710  0.86140  0.99903  1.0000
  H   H1211     1.0  0.20239  0.70744  0.08413  1.0000
  H   H1212     1.0  0.40964  0.87885  0.05256  1.0000
  C   C688      1.0  0.47402  0.75241  0.01227  1.0000
  H   H1213     1.0  0.29030  0.69689  0.00920  1.0000
  H   H1214     1.0  0.14846  0.72996  0.15921  1.0000
  H   H1215     1.0  0.06490  0.70199  0.21692  1.0000
  C   C689      1.0  0.99216  0.71744  0.08816  1.0000
  C   C690      1.0  0.05219  0.67113  0.09563  1.0000
  H   H1216     1.0  0.19532  0.72022  0.15085  1.0000
  C   C691      1.0  0.04980  0.70015  0.22724  1.0000
  C   C692      1.0  0.25461  0.67807  0.99421  1.0000
  H   H1217     1.0  0.29025  0.68213  0.04634  1.0000
  H   H1218     1.0  0.10608  0.78913  0.98788  1.0000
  C   C693      1.0  0.11797  0.81456  0.98490  1.0000
  C   C694      1.0  0.30462  0.67740  0.03714  1.0000
  H   H1219     1.0  0.16348  0.81226  0.98492  1.0000
  H   H1220     1.0  0.29375  0.66761  0.99970  1.0000
  H   H1221     1.0  0.24305  0.97512  0.00112  1.0000
  C   C695      1.0  0.33061  0.67266  0.04472  1.0000
  Fe  Fe88      1.0  0.41255  0.71245  0.99087  1.0000
  H   H1222     1.0  0.98552  0.72860  0.11569  1.0000
  H   H1223     1.0  0.16563  0.85035  0.98586  1.0000
  H   H1224     1.0  0.22967  0.66790  0.99901  1.0000
  C   C696      1.0  0.22788  0.90384  0.98551  1.0000
  H   H1225     1.0  0.36387  0.83071  0.98492  1.0000
  C   C697      1.0  0.23655  0.69502  0.47027  1.0000
  S   S169      1.0  0.32028  0.96487  0.31219  1.0000
  S   S170      1.0  0.23516  0.90770  0.31349  1.0000
  Fe  Fe89      1.0  0.05341  0.78365  0.31275  1.0000
  S   S171      1.0  0.06814  0.74515  0.31290  1.0000
  S   S172      1.0  0.08641  0.83463  0.31337  1.0000
  Fe  Fe90      1.0  0.02470  0.71707  0.32957  1.0000
  Fe  Fe91      1.0  0.03800  0.72918  0.29356  1.0000
  S   S173      1.0  0.06020  0.71703  0.27234  1.0000
  S   S174      1.0  0.01146  0.75696  0.33054  1.0000
  S   S175      1.0  0.02529  0.76925  0.29246  1.0000
  C   C698      1.0  0.15666  0.94445  0.47949  1.0000
  S   S176      1.0  0.14025  0.79941  0.46009  1.0000
  Fe  Fe92      1.0  0.33902  0.68631  0.45680  1.0000
  S   S177      1.0  0.30766  0.67908  0.43787  1.0000
  S   S178      1.0  0.36266  0.73763  0.46320  1.0000
  H   H1226     1.0  0.16739  0.87188  0.27917  1.0000
  N   N39       1.0  0.10359  0.67082  0.31285  1.0000
  S   S179      1.0  0.27580  0.98840  0.33286  1.0000
  Fe  Fe93      1.0  0.44588  0.82902  0.36029  1.0000
  S   S180      1.0  0.45450  0.86247  0.37826  1.0000
  S   S181      1.0  0.39377  0.79956  0.35439  1.0000
  H   H1227     1.0  0.13741  0.72922  0.32662  1.0000
  H   H1228     1.0  0.24145  0.69089  0.44042  1.0000
  H   H1229     1.0  0.03823  0.81527  0.25704  1.0000
  H   H1230     1.0  0.13945  0.98988  0.46502  1.0000
  H   H1231     1.0  0.15390  0.69818  0.31012  1.0000
  H   H1232     1.0  0.30220  0.81276  0.47337  1.0000
  C   C699      1.0  0.27052  0.71996  0.47003  1.0000
  H   H1233     1.0  0.39837  0.94880  0.34774  1.0000
  S   S182      1.0  0.45107  0.88486  0.44256  1.0000
  H   H1234     1.0  0.32327  0.85570  0.36476  1.0000
  C   C700      1.0  0.46260  0.67460  0.40394  1.0000
  C   C701      1.0  0.32376  0.82693  0.46547  1.0000
  C   C702      1.0  0.38832  0.91392  0.29467  1.0000
  H   H1235     1.0  0.21262  0.93014  0.28563  1.0000
  S   S183      1.0  0.24392  0.70373  0.36765  1.0000
  C   C703      1.0  0.07778  0.66491  0.30255  1.0000
  C   C704      1.0  0.35216  0.77285  0.35910  1.0000
  C   C705      1.0  0.33371  0.76172  0.34696  1.0000
  C   C706      1.0  0.30147  0.74087  0.34978  1.0000
  C   C707      1.0  0.28584  0.73029  0.36488  1.0000
  C   C708      1.0  0.30415  0.74128  0.37713  1.0000
  C   C709      1.0  0.33673  0.76225  0.37429  1.0000
  H   H1236     1.0  0.34453  0.76916  0.33515  1.0000
  H   H1237     1.0  0.28846  0.73305  0.34005  1.0000
  H   H1238     1.0  0.29309  0.73347  0.38885  1.0000
  H   H1239     1.0  0.35011  0.77027  0.38386  1.0000
  C   C710      1.0  0.39361  0.71387  0.40581  1.0000
  C   C711      1.0  0.39486  0.74012  0.39727  1.0000
  C   C712      1.0  0.41783  0.76930  0.39925  1.0000
  C   C713      1.0  0.44026  0.77228  0.40942  1.0000
  C   C714      1.0  0.43893  0.74602  0.41797  1.0000
  C   C715      1.0  0.41580  0.71694  0.41611  1.0000
  H   H1240     1.0  0.37783  0.73796  0.38930  1.0000
  H   H1241     1.0  0.41808  0.78950  0.39288  1.0000
  H   H1242     1.0  0.45609  0.74811  0.42584  1.0000
  H   H1243     1.0  0.41559  0.69682  0.42245  1.0000
  C   C716      1.0  0.38807  0.77821  0.45665  1.0000
  C   C717      1.0  0.39320  0.80031  0.46720  1.0000
  C   C718      1.0  0.41195  0.83221  0.46277  1.0000
  C   C719      1.0  0.42632  0.84361  0.44753  1.0000
  C   C720      1.0  0.42105  0.82167  0.43687  1.0000
  C   C721      1.0  0.40270  0.78946  0.44141  1.0000
  H   H1244     1.0  0.43114  0.82963  0.42501  1.0000
  H   H1245     1.0  0.39926  0.77329  0.43298  1.0000
  C   C722      1.0  0.13755  0.76541  0.45182  1.0000
  C   C723      1.0  0.12378  0.73614  0.46016  1.0000
  C   C724      1.0  0.12221  0.71009  0.45301  1.0000
  C   C725      1.0  0.13435  0.71276  0.43745  1.0000
  C   C726      1.0  0.14828  0.74199  0.42913  1.0000
  C   C727      1.0  0.14981  0.76803  0.43627  1.0000
  H   H1246     1.0  0.11419  0.73356  0.47210  1.0000
  H   H1247     1.0  0.11133  0.68765  0.45960  1.0000
  H   H1248     1.0  0.15789  0.74459  0.41720  1.0000
  H   H1249     1.0  0.16052  0.79045  0.42965  1.0000
  H   H1250     1.0  0.14576  0.81904  0.27315  1.0000
  C   C728      1.0  0.32920  0.75477  0.42048  1.0000
  N   N40       1.0  0.21703  0.70246  0.45918  1.0000
  H   H1251     1.0  0.20701  0.73162  0.43241  1.0000
  H   H1252     1.0  0.19905  0.69382  0.42723  1.0000
  C   C729      1.0  0.04333  0.70676  0.25479  1.0000
  C   C730      1.0  0.09685  0.68457  0.32700  1.0000
  C   C731      1.0  0.18418  0.92033  0.45430  1.0000
  C   C732      1.0  0.01111  0.69530  0.25425  1.0000
  C   C733      1.0  0.19359  0.88791  0.31393  1.0000
  C   C734      1.0  0.17413  0.90320  0.31387  1.0000
  C   C735      1.0  0.14155  0.88652  0.31367  1.0000
  C   C736      1.0  0.12781  0.85434  0.31358  1.0000
  C   C737      1.0  0.14730  0.83906  0.31363  1.0000
  C   C738      1.0  0.17989  0.85574  0.31380  1.0000
  H   H1253     1.0  0.18411  0.92786  0.31401  1.0000
  H   H1254     1.0  0.12680  0.89865  0.31369  1.0000
  H   H1255     1.0  0.13724  0.81438  0.31357  1.0000
  H   H1256     1.0  0.19459  0.84357  0.31384  1.0000
  H   H1257     1.0  0.18858  0.72781  0.45830  1.0000
  H   H1258     1.0  0.27771  0.67047  0.39285  1.0000
  H   H1259     1.0  0.45392  0.72576  0.38471  1.0000
  H   H1260     1.0  0.40234  0.96112  0.39305  1.0000
  C   C739      1.0  0.31704  0.82331  0.44867  1.0000
  H   H1261     1.0  0.00205  0.77807  0.24163  1.0000
  H   H1262     1.0  0.43817  0.89629  0.40582  1.0000
  H   H1263     1.0  0.03496  0.73292  0.42763  1.0000
  H   H1264     1.0  0.34705  0.83649  0.35954  1.0000
  C   C740      1.0  0.04007  0.69155  0.43700  1.0000
  C   C741      1.0  0.05036  0.72667  0.43468  1.0000
  Fe  Fe94      1.0  0.48095  0.83765  0.38849  1.0000
  C   C742      1.0  0.38103  0.89620  0.31080  1.0000
  C   C743      1.0  0.06818  0.71501  0.39905  1.0000
  C   C744      1.0  0.10081  0.72882  0.39016  1.0000
  C   C745      1.0  0.04969  0.73952  0.45020  1.0000
  C   C746      1.0  0.47087  0.71917  0.37811  1.0000
  C   C747      1.0  0.13389  0.69161  0.30317  1.0000
  C   C748      1.0  0.20278  0.97943  0.27799  1.0000
  H   H1265     1.0  0.01149  0.70041  0.41168  1.0000
  H   H1266     1.0  0.33173  0.85130  0.46775  1.0000
  C   C749      1.0  0.32750  0.84177  0.35611  1.0000
  H   H1267     1.0  0.17249  0.75271  0.47929  1.0000
  H   H1268     1.0  0.47493  0.75411  0.45309  1.0000
  H   H1269     1.0  0.01047  0.82871  0.25040  1.0000
  H   H1270     1.0  0.05876  0.68848  0.44288  1.0000
  C   C750      1.0  0.99829  0.68633  0.24031  1.0000
  H   H1271     1.0  0.07481  0.73822  0.42903  1.0000
  S   S184      1.0  0.36392  0.67740  0.40388  1.0000
  C   C751      1.0  0.19887  0.89750  0.45373  1.0000
  C   C752      1.0  0.17686  0.97914  0.45482  1.0000
  H   H1272     1.0  0.39601  0.89807  0.42389  1.0000
  H   H1273     1.0  0.05117  0.70677  0.39043  1.0000
  H   H1274     1.0  0.06467  0.73370  0.40431  1.0000
  H   H1275     1.0  0.35003  0.84827  0.33316  1.0000
  C   C753      1.0  0.20774  0.73477  0.48036  1.0000
  C   C754      1.0  0.32546  0.66471  0.37141  1.0000
  C   C755      1.0  0.47706  0.73433  0.36115  1.0000
  H   H1276     1.0  0.47990  0.97309  0.31874  1.0000
  H   H1277     1.0  0.05953  0.76500  0.44831  1.0000
  H   H1278     1.0  0.18299  0.82359  0.26393  1.0000
  C   C756      1.0  0.34680  0.78871  0.42244  1.0000
  H   H1279     1.0  0.43428  0.93189  0.40260  1.0000
  H   H1280     1.0  0.41947  0.90313  0.38951  1.0000
  H   H1281     1.0  0.32741  0.95599  0.25657  1.0000
  H   H1282     1.0  0.32412  0.75152  0.40842  1.0000
  H   H1283     1.0  0.38253  0.79269  0.47904  1.0000
  H   H1284     1.0  0.17758  0.82542  0.28458  1.0000
  N   N41       1.0  0.35451  0.89316  0.33843  1.0000
  C   C757      1.0  0.21043  0.72953  0.46300  1.0000
  C   C758      1.0  0.28463  0.91583  0.26520  1.0000
  C   C759      1.0  0.21680  0.88446  0.27140  1.0000
  C   C760      1.0  0.29806  0.81170  0.35715  1.0000
  S   S185      1.0  0.03072  0.68913  0.35093  1.0000
  C   C761      1.0  0.23481  0.70982  0.44318  1.0000
  C   C762      1.0  0.21771  0.71574  0.42967  1.0000
  H   H1285     1.0  0.08753  0.71751  0.24154  1.0000
  C   C763      1.0  0.23988  0.72950  0.41472  1.0000
  H   H1286     1.0  0.99613  0.69253  0.26473  1.0000
  Fe  Fe95      1.0  0.27005  0.95832  0.31357  1.0000
  H   H1287     1.0  0.28150  0.90832  0.25344  1.0000
  H   H1288     1.0  0.25703  0.73080  0.44274  1.0000
  H   H1289     1.0  0.33315  0.92299  0.26365  1.0000
  H   H1290     1.0  0.13909  0.99534  0.43650  1.0000
  H   H1291     1.0  0.30774  0.89845  0.39836  1.0000
  C   C764      1.0  0.34667  0.84325  0.43732  1.0000
  H   H1292     1.0  0.22645  0.73149  0.40511  1.0000
  H   H1293     1.0  0.25788  0.75273  0.41602  1.0000
  H   H1294     1.0  0.25149  0.71455  0.41157  1.0000
  S   S186      1.0  0.99590  0.69834  0.31009  1.0000
  H   H1295     1.0  0.34944  0.78988  0.43489  1.0000
  H   H1296     1.0  0.38054  0.95905  0.42286  1.0000
  H   H1297     1.0  0.27380  0.86176  0.40176  1.0000
  H   H1298     1.0  0.27931  0.94836  0.23802  1.0000
  H   H1299     1.0  0.27720  0.81633  0.35600  1.0000
  H   H1300     1.0  0.18038  0.73593  0.28193  1.0000
  H   H1301     1.0  0.10520  0.71084  0.38451  1.0000
  H   H1302     1.0  0.37973  0.89285  0.35810  1.0000
  H   H1303     1.0  0.22902  0.75143  0.45704  1.0000
  H   H1304     1.0  0.27625  0.95700  0.26483  1.0000
  H   H1305     1.0  0.37711  0.90424  0.40762  1.0000
  C   C765      1.0  0.33634  0.85878  0.33945  1.0000
  H   H1306     1.0  0.36615  0.83770  0.44060  1.0000
  H   H1307     1.0  0.23184  0.90034  0.24282  1.0000
  S   S187      1.0  0.13134  0.67881  0.42913  1.0000
  C   C766      1.0  0.29725  0.87460  0.39514  1.0000
  H   H1308     1.0  0.40361  0.90036  0.31524  1.0000
  H   H1309     1.0  0.30792  0.83567  0.39396  1.0000
  H   H1310     1.0  0.41538  0.84820  0.47134  1.0000
  S   S188      1.0  0.47374  0.97572  0.42915  1.0000
  H   H1311     1.0  0.45804  0.69426  0.37724  1.0000
  H   H1312     1.0  0.45255  0.77612  0.45063  1.0000
  H   H1313     1.0  0.37444  0.85277  0.39896  1.0000
  H   H1314     1.0  0.02536  0.73066  0.45587  1.0000
  H   H1315     1.0  0.34135  0.87237  0.39139  1.0000
  C   C767      1.0  0.99357  0.77883  0.25374  1.0000
  H   H1316     1.0  0.45444  0.67025  0.42915  1.0000
  H   H1317     1.0  0.37119  0.93192  0.32064  1.0000
  H   H1318     1.0  0.29424  0.87570  0.38264  1.0000
  C   C768      1.0  0.31842  0.85855  0.39827  1.0000
  H   H1319     1.0  0.35513  0.95839  0.38121  1.0000
  H   H1320     1.0  0.18074  0.75287  0.29992  1.0000
  H   H1321     1.0  0.30706  0.74429  0.42832  1.0000
  H   H1322     1.0  0.21531  0.96944  0.25562  1.0000
  Fe  Fe96      1.0  0.32685  0.99676  0.33068  1.0000
  H   H1323     1.0  0.40252  0.90594  0.28699  1.0000
  H   H1324     1.0  0.43327  0.73933  0.36160  1.0000
  H   H1325     1.0  0.36640  0.91008  0.28952  1.0000
  H   H1326     1.0  0.34396  0.74273  0.42343  1.0000
  H   H1327     1.0  0.07570  0.68659  0.29907  1.0000
  C   C769      1.0  0.40486  0.97487  0.38228  1.0000
  H   H1328     1.0  0.18419  0.92931  0.44220  1.0000
  H   H1329     1.0  0.18711  0.92096  0.27094  1.0000
  C   C770      1.0  0.21207  0.93273  0.27287  1.0000
  C   C771      1.0  0.18137  0.86604  0.27022  1.0000
  H   H1330     1.0  0.31503  0.85273  0.33337  1.0000
  H   H1331     1.0  0.15414  0.67968  0.47595  1.0000
  H   H1332     1.0  0.08498  0.69494  0.41741  1.0000
  H   H1333     1.0  0.28835  0.87124  0.35073  1.0000
  H   H1334     1.0  0.22029  0.88196  0.28384  1.0000
  H   H1335     1.0  0.26315  0.93313  0.28237  1.0000
  H   H1336     1.0  0.47693  0.98731  0.29954  1.0000
  N   N42       1.0  0.03469  0.67502  0.42265  1.0000
  H   H1337     1.0  0.27820  0.89510  0.27358  1.0000
  H   H1338     1.0  0.29062  0.91725  0.36434  1.0000
  C   C772      1.0  0.06386  0.68787  0.41117  1.0000
  C   C773      1.0  0.33635  0.90778  0.34711  1.0000
  H   H1339     1.0  0.10453  0.69366  0.35809  1.0000
  H   H1340     1.0  0.30862  0.79854  0.44726  1.0000
  C   C774      1.0  0.17147  0.83142  0.27314  1.0000
  H   H1341     1.0  0.01900  0.68110  0.44563  1.0000
  N   N43       1.0  0.23106  0.91807  0.26505  1.0000
  H   H1342     1.0  0.39144  0.84825  0.41571  1.0000
  C   C775      1.0  0.23023  0.92049  0.24769  1.0000
  H   H1343     1.0  0.33838  0.90606  0.35974  1.0000
  H   H1344     1.0  0.20720  0.91932  0.24495  1.0000
  H   H1345     1.0  0.35436  0.68296  0.34921  1.0000
  C   C776      1.0  0.16785  0.74544  0.28972  1.0000
  C   C777      1.0  0.26383  0.93250  0.26960  1.0000
  H   H1346     1.0  0.32936  0.80661  0.40411  1.0000
  C   C778      1.0  0.31919  0.93629  0.26573  1.0000
  C   C779      1.0  0.30099  0.89505  0.34500  1.0000
  H   H1347     1.0  0.99826  0.76215  0.26133  1.0000
  H   H1348     1.0  0.22895  0.87219  0.26538  1.0000
  C   C780      1.0  0.32944  0.80786  0.41682  1.0000
  H   H1349     1.0  0.30450  0.79584  0.42171  1.0000
  C   C781      1.0  0.32164  0.85513  0.41582  1.0000
  C   C782      1.0  0.42271  0.90677  0.40182  1.0000
  H   H1350     1.0  0.32876  0.87812  0.42007  1.0000
  C   C783      1.0  0.37810  0.97329  0.37547  1.0000
  H   H1351     1.0  0.17725  0.96506  0.27847  1.0000
  C   C784      1.0  0.34884  0.69136  0.36007  1.0000
  H   H1352     1.0  0.29761  0.84117  0.42167  1.0000
  H   H1353     1.0  0.12213  0.71624  0.28434  1.0000
  C   C785      1.0  0.06258  0.70895  0.24123  1.0000
  H   H1354     1.0  0.13649  0.93374  0.47273  1.0000
  H   H1355     1.0  0.29385  0.93673  0.34536  1.0000
  C   C786      1.0  0.28553  0.91398  0.35220  1.0000
  H   H1356     1.0  0.30001  0.79785  0.34784  1.0000
  H   H1357     1.0  0.25869  0.97096  0.24248  1.0000
  H   H1358     1.0  0.09918  0.72557  0.34864  1.0000
  H   H1359     1.0  0.25983  0.90217  0.35202  1.0000
  S   S189      1.0  0.47240  0.80463  0.37087  1.0000
  H   H1360     1.0  0.45491  0.96290  0.34925  1.0000
  H   H1361     1.0  0.21229  0.78171  0.47556  1.0000
  N   N44       1.0  0.18568  0.96601  0.46892  1.0000
  H   H1362     1.0  0.06396  0.73319  0.45806  1.0000
  H   H1363     1.0  0.29724  0.89487  0.33259  1.0000
  H   H1364     1.0  0.00612  0.81276  0.27035  1.0000
  H   H1365     1.0  0.14291  0.69799  0.33604  1.0000
  H   H1366     1.0  0.22505  0.68992  0.48231  1.0000
  N   N45       1.0  0.34321  0.84088  0.42030  1.0000
  H   H1367     1.0  0.18550  0.87878  0.44680  1.0000
  H   H1368     1.0  0.29465  0.79817  0.36853  1.0000
  C   C787      1.0  0.22120  0.96696  0.26758  1.0000
  H   H1369     1.0  0.10279  0.74705  0.38105  1.0000
  H   H1370     1.0  0.12266  0.73193  0.30244  1.0000
  C   C788      1.0  0.37517  0.85740  0.41130  1.0000
  H   H1371     1.0  0.29789  0.83028  0.44683  1.0000
  C   C789      1.0  0.43748  0.93852  0.35144  1.0000
  H   H1372     1.0  0.19816  0.88695  0.46560  1.0000
  H   H1373     1.0  0.15954  0.90747  0.45933  1.0000
  H   H1374     1.0  0.33802  0.90004  0.31661  1.0000
  H   H1375     1.0  0.34676  0.93298  0.34357  1.0000
  C   C790      1.0  0.47309  0.77553  0.45577  1.0000
  H   H1376     1.0  0.36869  0.87139  0.30944  1.0000
  H   H1377     1.0  0.33931  0.70831  0.35731  1.0000
  H   H1378     1.0  0.24637  0.98139  0.26793  1.0000
  H   H1379     1.0  0.44034  0.67657  0.40261  1.0000
  H   H1380     1.0  0.16716  0.76586  0.28332  1.0000
  C   C791      1.0  0.36048  0.90632  0.32166  1.0000
  C   C792      1.0  0.13451  0.72151  0.29487  1.0000
  H   H1381     1.0  0.13658  0.73125  0.35469  1.0000
  H   H1382     1.0  0.37020  0.79715  0.41573  1.0000
  H   H1383     1.0  0.06455  0.66980  0.40405  1.0000
  C   C793      1.0  0.25631  0.94930  0.23797  1.0000
  H   H1384     1.0  0.11880  0.73909  0.39809  1.0000
  S   S190      1.0  0.14750  0.67888  0.38134  1.0000
  H   H1385     1.0  0.35382  0.86741  0.43989  1.0000
  H   H1386     1.0  0.41717  0.94206  0.33068  1.0000
  C   C794      1.0  0.01318  0.81090  0.25815  1.0000
  C   C795      1.0  0.38463  0.89994  0.34539  1.0000
  C   C796      1.0  0.11572  0.71487  0.34987  1.0000
  C   C797      1.0  0.40884  0.93401  0.34310  1.0000
  H   H1387     1.0  0.32320  0.94503  0.27721  1.0000
  H   H1388     1.0  0.40180  0.93894  0.29528  1.0000
  H   H1389     1.0  0.17521  0.87108  0.25864  1.0000
  S   S191      1.0  0.47091  0.80837  0.41101  1.0000
  H   H1390     1.0  0.28549  0.71835  0.46000  1.0000
  H   H1391     1.0  0.43091  0.93293  0.36413  1.0000
  H   H1392     1.0  0.39625  0.88578  0.34087  1.0000
  C   C798      1.0  0.12549  0.70725  0.33424  1.0000
  C   C799      1.0  0.39136  0.89267  0.41189  1.0000
  H   H1393     1.0  0.48261  0.87006  0.46893  1.0000
  H   H1394     1.0  0.08268  0.69738  0.32440  1.0000
  H   H1395     1.0  0.44877  0.92391  0.34727  1.0000
  S   S192      1.0  0.28103  0.99731  0.29494  1.0000
  C   C800      1.0  0.38388  0.98336  0.42173  1.0000
  H   H1396     1.0  0.37079  0.70312  0.36539  1.0000
  C   C801      1.0  0.20272  0.94738  0.46356  1.0000
  H   H1397     1.0  0.34202  0.81907  0.46808  1.0000
  C   C802      1.0  0.38073  0.99073  0.36131  1.0000
  H   H1398     1.0  0.08166  0.66607  0.33626  1.0000
  H   H1399     1.0  0.00612  0.66596  0.40387  1.0000
  C   C803      1.0  0.44633  0.72907  0.35464  1.0000
  C   C804      1.0  0.00767  0.67638  0.41497  1.0000
  H   H1400     1.0  0.22348  0.90911  0.44833  1.0000
  S   S193      1.0  0.34578  0.98773  0.35343  1.0000
  H   H1401     1.0  0.47457  0.94903  0.30314  1.0000
  H   H1402     1.0  0.37539  0.98812  0.41074  1.0000
  Fe  Fe97      1.0  0.19173  0.67034  0.37875  1.0000
  H   H1403     1.0  0.22450  0.96191  0.45588  1.0000
  H   H1404     1.0  0.15964  0.96030  0.44912  1.0000
  H   H1405     1.0  0.36982  0.98663  0.43163  1.0000
  C   C805      1.0  0.43483  0.99445  0.37520  1.0000
  H   H1406     1.0  0.47932  0.83360  0.44932  1.0000
  H   H1407     1.0  0.27165  0.74348  0.46888  1.0000
  H   H1408     1.0  0.21021  0.93806  0.47373  1.0000
  H   H1409     1.0  0.46926  0.77497  0.46853  1.0000
  H   H1410     1.0  0.13940  0.67905  0.29398  1.0000
  H   H1411     1.0  0.43147  0.70412  0.35470  1.0000
  H   H1412     1.0  0.28321  0.66663  0.36491  1.0000
  C   C806      1.0  0.18709  0.67400  0.45893  1.0000
  Fe  Fe98      1.0  0.98469  0.73973  0.31012  1.0000
  H   H1413     1.0  0.23842  0.67340  0.46771  1.0000
  H   H1414     1.0  0.32285  0.67422  0.38233  1.0000
  C   C807      1.0  0.19647  0.75985  0.48262  1.0000
  H   H1415     1.0  0.19739  0.99059  0.44589  1.0000
  H   H1416     1.0  0.45126  0.74017  0.34255  1.0000
  H   H1417     1.0  0.17324  0.67762  0.44997  1.0000
  C   C808      1.0  0.20737  0.99084  0.47765  1.0000
  H   H1418     1.0  0.20964  0.97982  0.28993  1.0000
  H   H1419     1.0  0.48314  0.71925  0.41131  1.0000
  S   S194      1.0  0.12366  0.85823  0.48398  1.0000
  Fe  Fe99      1.0  0.12564  0.81198  0.48365  1.0000
  Fe  Fe100     1.0  0.11130  0.79930  0.51885  1.0000
  S   S195      1.0  0.10789  0.84368  0.52135  1.0000
  S   S196      1.0  0.11201  0.76680  0.53899  1.0000
  C   C809      1.0  0.19949  0.75145  0.65611  1.0000
  Fe  Fe101     1.0  0.15142  0.86564  0.50442  1.0000
  H   H1420     1.0  0.29973  0.91516  0.64973  1.0000
  Fe  Fe102     1.0  0.08016  0.83410  0.50090  1.0000
  H   H1421     1.0  0.33751  0.96066  0.62927  1.0000
  S   S197      1.0  0.15647  0.82144  0.50299  1.0000
  S   S198      1.0  0.08034  0.78728  0.49941  1.0000
  Fe  Fe103     1.0  0.10543  0.70048  0.64996  1.0000
  S   S199      1.0  0.05966  0.69272  0.64105  1.0000
  Fe  Fe104     1.0  0.11366  0.76095  0.66198  1.0000
  S   S200      1.0  0.06809  0.75782  0.65450  1.0000
  S   S201      1.0  0.15063  0.80136  0.67158  1.0000
  Fe  Fe105     1.0  0.04858  0.70789  0.66367  1.0000
  H   H1422     1.0  0.44061  0.90239  0.71664  1.0000
  Fe  Fe106     1.0  0.08248  0.74319  0.63227  1.0000
  S   S202      1.0  0.07289  0.76644  0.61076  1.0000
  S   S203      1.0  0.09268  0.71239  0.67309  1.0000
  S   S204      1.0  0.12942  0.74967  0.63924  1.0000
  H   H1423     1.0  0.17886  0.69918  0.67602  1.0000
  N   N46       1.0  0.17672  0.71290  0.69913  1.0000
  H   H1424     1.0  0.21744  0.96906  0.52429  1.0000
  C   C810      1.0  0.15502  0.80183  0.69150  1.0000
  C   C811      1.0  0.13203  0.78060  0.70263  1.0000
  C   C812      1.0  0.13609  0.78193  0.71842  1.0000
  C   C813      1.0  0.16294  0.80466  0.72321  1.0000
  C   C814      1.0  0.18611  0.82568  0.71209  1.0000
  C   C815      1.0  0.18209  0.82430  0.69628  1.0000
  H   H1425     1.0  0.11100  0.76342  0.69904  1.0000
  H   H1426     1.0  0.30842  0.95088  0.68537  1.0000
  H   H1427     1.0  0.20686  0.84325  0.71568  1.0000
  H   H1428     1.0  0.19991  0.84083  0.68770  1.0000
  C   C816      1.0  0.00699  0.71855  0.71685  1.0000
  C   C817      1.0  0.01488  0.71144  0.70224  1.0000
  H   H1429     1.0  0.13082  0.69313  0.72548  1.0000
  H   H1430     1.0  0.03740  0.72559  0.69580  1.0000
  H   H1431     1.0  0.13206  0.69377  0.69009  1.0000
  H   H1432     1.0  0.01430  0.85540  0.55244  1.0000
  H   H1433     1.0  0.99211  0.77590  0.70538  1.0000
  H   H1434     1.0  0.16720  0.66509  0.69871  1.0000
  C   C818      1.0  0.23361  0.96680  0.51559  1.0000
  C   C819      1.0  0.10085  0.76701  0.55888  1.0000
  C   C820      1.0  0.10908  0.75011  0.57010  1.0000
  C   C821      1.0  0.10077  0.74966  0.58602  1.0000
  C   C822      1.0  0.08388  0.76595  0.59089  1.0000
  C   C823      1.0  0.07571  0.78291  0.57967  1.0000
  C   C824      1.0  0.08420  0.78353  0.56375  1.0000
  H   H1435     1.0  0.12190  0.73721  0.56645  1.0000
  H   H1436     1.0  0.10722  0.73655  0.59452  1.0000
  H   H1437     1.0  0.06268  0.79561  0.58332  1.0000
  H   H1438     1.0  0.07758  0.79650  0.55526  1.0000
  C   C825      1.0  0.27537  0.96185  0.49297  1.0000
  C   C826      1.0  0.00272  0.84238  0.50100  1.0000
  H   H1439     1.0  0.25380  0.88976  0.69650  1.0000
  C   C827      1.0  0.22404  0.94002  0.50796  1.0000
  C   C828      1.0  0.24533  0.93751  0.49678  1.0000
  H   H1440     1.0  0.14360  0.79838  0.60609  1.0000
  H   H1441     1.0  0.30625  0.90862  0.62193  1.0000
  H   H1442     1.0  0.22356  0.90316  0.69816  1.0000
  H   H1443     1.0  0.09587  0.92742  0.49384  1.0000
  H   H1444     1.0  0.19757  0.76868  0.67790  1.0000
  H   H1445     1.0  0.19595  0.76404  0.49499  1.0000
  N   N47       1.0  0.17914  0.85421  0.56281  1.0000
  C   C829      1.0  0.15533  0.86100  0.55464  1.0000
  C   C830      1.0  0.18730  0.83184  0.55426  1.0000
  C   C831      1.0  0.16374  0.83830  0.57876  1.0000
  C   C832      1.0  0.20814  0.88286  0.56447  1.0000
  C   C833      1.0  0.21846  0.91003  0.55143  1.0000
  C   C834      1.0  0.13998  0.87890  0.56360  1.0000
  C   C835      1.0  0.18261  0.82539  0.58852  1.0000
  C   C836      1.0  0.20293  0.84282  0.53741  1.0000
  C   C837      1.0  0.20694  0.81679  0.52984  1.0000
  C   C838      1.0  0.25088  0.93478  0.55313  1.0000
  C   C839      1.0  0.12362  0.89270  0.55307  1.0000
  C   C840      1.0  0.16806  0.81609  0.60538  1.0000
  H   H1446     1.0  0.13607  0.83920  0.55222  1.0000
  H   H1447     1.0  0.16544  0.87380  0.54305  1.0000
  H   H1448     1.0  0.20395  0.82549  0.56030  1.0000
  H   H1449     1.0  0.16593  0.81005  0.55418  1.0000
  H   H1450     1.0  0.14086  0.81876  0.57790  1.0000
  H   H1451     1.0  0.15834  0.85420  0.58584  1.0000
  H   H1452     1.0  0.20522  0.89258  0.57540  1.0000
  H   H1453     1.0  0.22827  0.87693  0.56567  1.0000
  H   H1454     1.0  0.20202  0.92102  0.55191  1.0000
  H   H1455     1.0  0.21918  0.90273  0.53972  1.0000
  H   H1456     1.0  0.12203  0.86306  0.57292  1.0000
  H   H1457     1.0  0.15749  0.89773  0.56907  1.0000
  H   H1458     1.0  0.20712  0.84259  0.58834  1.0000
  H   H1459     1.0  0.18253  0.80439  0.58395  1.0000
  H   H1460     1.0  0.18896  0.85088  0.53020  1.0000
  H   H1461     1.0  0.22667  0.86153  0.53727  1.0000
  H   H1462     1.0  0.22191  0.80865  0.53629  1.0000
  H   H1463     1.0  0.18386  0.79719  0.52953  1.0000
  H   H1464     1.0  0.21817  0.82515  0.51776  1.0000
  H   H1465     1.0  0.25117  0.94372  0.56456  1.0000
  H   H1466     1.0  0.26867  0.92544  0.55189  1.0000
  H   H1467     1.0  0.25734  0.95423  0.54394  1.0000
  H   H1468     1.0  0.10375  0.87419  0.54866  1.0000
  H   H1469     1.0  0.11429  0.90648  0.55973  1.0000
  H   H1470     1.0  0.14018  0.90798  0.54315  1.0000
  H   H1471     1.0  0.25541  0.94884  0.67963  1.0000
  H   H1472     1.0  0.16060  0.74171  0.67300  1.0000
  H   H1473     1.0  0.18153  0.80625  0.61199  1.0000
  C   C841      1.0  0.08895  0.68724  0.71560  1.0000
  H   H1474     1.0  0.11825  0.76542  0.72697  1.0000
  H   H1475     1.0  0.12090  0.84686  0.71923  1.0000
  C   C842      1.0  0.26090  0.92859  0.67969  1.0000
  H   H1476     1.0  0.27323  0.91804  0.62039  1.0000
  S   S205      1.0  0.13060  0.66955  0.65186  1.0000
  H   H1477     1.0  0.40335  0.97161  0.66837  1.0000
  H   H1478     1.0  0.24737  0.91348  0.67130  1.0000
  H   H1479     1.0  0.22026  0.74864  0.70407  1.0000
  C   C843      1.0  0.14249  0.70630  0.70002  1.0000
  H   H1480     1.0  0.21523  0.72643  0.68089  1.0000
  H   H1481     1.0  0.30876  0.93852  0.60754  1.0000
  C   C844      1.0  0.30386  0.98497  0.65955  1.0000
  C   C845      1.0  0.19469  0.74067  0.70721  1.0000
  C   C846      1.0  0.28474  0.71567  0.48468  1.0000
  H   H1482     1.0  0.34889  0.92516  0.65332  1.0000
  H   H1483     1.0  0.14255  0.97851  0.48949  1.0000
  H   H1484     1.0  0.16285  0.96352  0.50185  1.0000
  C   C847      1.0  0.33366  0.94172  0.72158  1.0000
  C   C848      1.0  0.12082  0.68614  0.71459  1.0000
  C   C849      1.0  0.18805  0.73737  0.72506  1.0000
  H   H1485     1.0  0.07385  0.67212  0.72592  1.0000
  H   H1486     1.0  0.11677  0.91286  0.50624  1.0000
  C   C850      1.0  0.00431  0.83381  0.54688  1.0000
  H   H1487     1.0  0.27249  0.93105  0.64814  1.0000
  H   H1488     1.0  0.28046  0.97887  0.65552  1.0000
  S   S206      1.0  0.00141  0.67814  0.67714  1.0000
  H   H1489     1.0  0.34992  0.92934  0.67376  1.0000
  H   H1490     1.0  0.22482  0.75713  0.65533  1.0000
  S   S207      1.0  0.04411  0.85464  0.49958  1.0000
  H   H1491     1.0  0.26074  0.92513  0.70481  1.0000
  H   H1492     1.0  0.19651  0.77081  0.64990  1.0000
  C   C851      1.0  0.18559  0.74663  0.67299  1.0000
  C   C852      1.0  0.21421  0.68767  0.70510  1.0000
  C   C853      1.0  0.18972  0.72002  0.68221  1.0000
  C   C854      1.0  0.34624  0.96753  0.65992  1.0000
  C   C855      1.0  0.18026  0.68462  0.70535  1.0000
  H   H1493     1.0  0.09154  0.71100  0.71669  1.0000
  C   C856      1.0  0.35767  0.94178  0.66193  1.0000
  H   H1494     1.0  0.18981  0.76042  0.70304  1.0000
  C   C857      1.0  0.29912  0.92760  0.61955  1.0000
  C   C858      1.0  0.09625  0.84384  0.71982  1.0000
  C   C859      1.0  0.36141  0.95478  0.71137  1.0000
  C   C860      1.0  0.11446  0.93389  0.50172  1.0000
  H   H1495     1.0  0.29213  0.94639  0.72985  1.0000
  H   H1496     1.0  0.35524  0.98276  0.66915  1.0000
  C   C861      1.0  0.39334  0.95515  0.65978  1.0000
  S   S208      1.0  0.18485  0.91139  0.51242  1.0000
  H   H1497     1.0  0.40098  0.93638  0.66149  1.0000
  C   C862      1.0  0.31348  0.95617  0.72200  1.0000
  H   H1498     1.0  0.00698  0.88884  0.49815  1.0000
  H   H1499     1.0  0.40268  0.96716  0.64792  1.0000
  C   C863      1.0  0.28482  0.98888  0.50039  1.0000
  H   H1500     1.0  0.02354  0.73822  0.72160  1.0000
  H   H1501     1.0  0.23080  0.74231  0.48482  1.0000
  C   C864      1.0  0.14556  0.95761  0.49328  1.0000
  H   H1502     1.0  0.30221  0.99231  0.67133  1.0000
  C   C865      1.0  0.99330  0.68649  0.69586  1.0000
  C   C866      1.0  0.99086  0.86479  0.49991  1.0000
  H   H1503     1.0  0.29949  0.91653  0.67650  1.0000
  H   H1504     1.0  0.00385  0.81446  0.55476  1.0000
  C   C867      1.0  0.29795  0.93742  0.64775  1.0000
  H   H1505     1.0  0.01979  0.83646  0.53612  1.0000
  H   H1506     1.0  0.23857  0.91700  0.49093  1.0000
  H   H1507     1.0  0.16823  0.83628  0.61088  1.0000
  H   H1508     1.0  0.09619  0.86628  0.71598  1.0000
  H   H1509     1.0  0.27084  0.71727  0.49514  1.0000
  C   C868      1.0  0.26377  0.99103  0.51187  1.0000
  H   H1510     1.0  0.22857  0.70708  0.71136  1.0000
  C   C869      1.0  0.29649  0.93827  0.67579  1.0000
  H   H1511     1.0  0.08389  0.82708  0.71174  1.0000
  H   H1512     1.0  0.10723  0.94358  0.51166  1.0000
  H   H1513     1.0  0.37718  0.94378  0.71101  1.0000
  H   H1514     1.0  0.13983  0.72818  0.69874  1.0000
  C   C870      1.0  0.36882  0.98193  0.70155  1.0000
  H   H1515     1.0  0.30492  0.99409  0.71242  1.0000
  C   C871      1.0  0.24916  0.91058  0.69577  1.0000
  H   H1516     1.0  0.18735  0.73051  0.65031  1.0000
  H   H1517     1.0  0.16020  0.92477  0.48502  1.0000
  N   N48       1.0  0.31140  0.95729  0.66039  1.0000
  H   H1518     1.0  0.16941  0.67679  0.71748  1.0000
  H   H1519     1.0  0.35874  0.98191  0.64895  1.0000
  H   H1520     1.0  0.30463  0.97019  0.62761  1.0000
  H   H1521     1.0  0.07713  0.67912  0.70518  1.0000
  C   C872      1.0  0.31171  0.95156  0.63091  1.0000
  H   H1522     1.0  0.99008  0.79384  0.50413  1.0000
  H   H1523     1.0  0.29148  0.95979  0.48415  1.0000
  H   H1524     1.0  0.21538  0.78619  0.72647  1.0000
  H   H1525     1.0  0.16556  0.73865  0.72828  1.0000
  H   H1526     1.0  0.22539  0.69120  0.69306  1.0000
  H   H1527     1.0  0.21269  0.98013  0.48809  1.0000
  H   H1528     1.0  0.42764  0.93125  0.72195  1.0000
  C   C873      1.0  0.32085  0.98327  0.71216  1.0000
  H   H1529     1.0  0.39016  0.99173  0.69369  1.0000
  S   S209      1.0  0.32508  0.90727  0.73348  1.0000
  C   C874      1.0  0.44256  0.91941  0.72495  1.0000
  H   H1530     1.0  0.28589  0.69305  0.48564  1.0000
  H   H1531     1.0  0.46720  0.93684  0.72383  1.0000
  H   H1532     1.0  0.23611  0.76260  0.73002  1.0000
  H   H1533     1.0  0.30885  0.73397  0.48419  1.0000
  C   C875      1.0  0.21318  0.76371  0.73187  1.0000
  H   H1534     1.0  0.98896  0.78775  0.68575  1.0000
  H   H1535     1.0  0.19143  0.71375  0.48774  1.0000
  H   H1536     1.0  0.18738  0.71575  0.73066  1.0000
  C   C876      1.0  0.34844  0.99617  0.70186  1.0000
  H   H1537     1.0  0.06665  0.78524  0.73370  1.0000
  S   S210      1.0  0.00893  0.78061  0.90690  1.0000
  Fe  Fe107     1.0  0.17724  0.91025  0.90678  1.0000
  S   S211      1.0  0.18568  0.86795  0.90813  1.0000
  S   S212      1.0  0.12809  0.90744  0.90750  1.0000
  Fe  Fe108     1.0  0.22106  0.89168  0.92425  1.0000
  S   S213      1.0  0.22355  0.86284  0.94561  1.0000
  Fe  Fe109     1.0  0.22312  0.89245  0.88838  1.0000
  S   S214      1.0  0.22539  0.86414  0.86882  1.0000
  S   S215      1.0  0.21054  0.93302  0.92411  1.0000
  S   S216      1.0  0.21281  0.93378  0.88603  1.0000
  S   S217      1.0  0.41255  0.74993  0.97402  1.0000
  C   C877      1.0  0.23068  0.90574  0.84379  1.0000
  C   C878      1.0  0.23132  0.91411  0.82789  1.0000
  H   H1538     1.0  0.23378  0.92237  0.85198  1.0000
  H   H1539     1.0  0.23488  0.93723  0.82393  1.0000
  C   C879      1.0  0.22814  0.87227  0.96490  1.0000
  C   C880      1.0  0.22535  0.89811  0.96989  1.0000
  H   H1540     1.0  0.22087  0.91341  0.96177  1.0000
  C   C881      1.0  0.04149  0.81602  0.90759  1.0000
  C   C882      1.0  0.03845  0.84362  0.90803  1.0000
  C   C883      1.0  0.06513  0.87141  0.90824  1.0000
  C   C884      1.0  0.09499  0.87183  0.90801  1.0000
  C   C885      1.0  0.09786  0.84412  0.90778  1.0000
  C   C886      1.0  0.07128  0.81640  0.90751  1.0000
  H   H1541     1.0  0.01560  0.84360  0.90813  1.0000
  H   H1542     1.0  0.06263  0.89271  0.90845  1.0000
  H   H1543     1.0  0.12055  0.84399  0.90758  1.0000
  H   H1544     1.0  0.07385  0.79516  0.90717  1.0000
  S   S218      1.0  0.25965  0.91207  0.90455  1.0000
  Fe  Fe110     1.0  0.40464  0.71603  0.95646  1.0000
  S   S219      1.0  0.35251  0.69552  0.96112  1.0000
  S   S220      1.0  0.43226  0.72862  0.93267  1.0000
  H   H1545     1.0  0.24193  0.66866  0.97107  1.0000
  H   H1546     1.0  0.35450  0.91869  0.78690  1.0000
  Fe  Fe111     1.0  0.37852  0.71683  0.84913  1.0000
  S   S221      1.0  0.41965  0.76081  0.83962  1.0000
  S   S222      1.0  0.35664  0.70298  0.87408  1.0000
  Fe  Fe112     1.0  0.36255  0.69778  0.81683  1.0000
  S   S223      1.0  0.40222  0.74030  0.80477  1.0000
  H   H1547     1.0  0.21640  0.79966  0.88558  1.0000
  Fe  Fe113     1.0  0.42990  0.73190  0.82286  1.0000
  Fe  Fe114     1.0  0.38843  0.76541  0.82235  1.0000
  S   S224      1.0  0.38470  0.80973  0.81560  1.0000
  H   H1548     1.0  0.36747  0.71468  0.75603  1.0000
  S   S225      1.0  0.34651  0.72381  0.83309  1.0000
  Fe  Fe115     1.0  0.23731  0.87690  0.77875  1.0000
  S   S226      1.0  0.28360  0.87441  0.77520  1.0000
  S   S227      1.0  0.22790  0.90399  0.79724  1.0000
  Fe  Fe116     1.0  0.21075  0.83644  0.75295  1.0000
  Fe  Fe117     1.0  0.25501  0.82454  0.77330  1.0000
  S   S228      1.0  0.26230  0.78409  0.78344  1.0000
  Fe  Fe118     1.0  0.28005  0.88165  0.74972  1.0000
  S   S229      1.0  0.20897  0.82635  0.77869  1.0000
  S   S230      1.0  0.23543  0.88788  0.75323  1.0000
  C   C887      1.0  0.35066  0.80275  0.80674  1.0000
  C   C888      1.0  0.33331  0.77386  0.80208  1.0000
  C   C889      1.0  0.30605  0.76832  0.79508  1.0000
  C   C890      1.0  0.29605  0.79166  0.79264  1.0000
  C   C891      1.0  0.31323  0.82053  0.79739  1.0000
  C   C892      1.0  0.34059  0.82611  0.80441  1.0000
  H   H1549     1.0  0.34098  0.75574  0.80372  1.0000
  H   H1550     1.0  0.29281  0.74592  0.79144  1.0000
  H   H1551     1.0  0.30531  0.83844  0.79578  1.0000
  H   H1552     1.0  0.35382  0.84844  0.80811  1.0000
  H   H1553     1.0  0.06396  0.73940  0.74008  1.0000
  H   H1554     1.0  0.14933  0.79962  0.91987  1.0000
  H   H1555     1.0  0.02033  0.76816  0.75018  1.0000
  H   H1556     1.0  0.05118  0.67322  0.84983  1.0000
  H   H1557     1.0  0.32342  0.84754  0.85638  1.0000
  C   C893      1.0  0.41162  0.72310  0.91622  1.0000
  C   C894      1.0  0.37965  0.71556  0.91766  1.0000
  C   C895      1.0  0.36331  0.70997  0.90458  1.0000
  C   C896      1.0  0.37882  0.71223  0.88989  1.0000
  C   C897      1.0  0.41096  0.72040  0.88833  1.0000
  C   C898      1.0  0.42729  0.72572  0.90149  1.0000
  H   H1558     1.0  0.36750  0.71425  0.92883  1.0000
  S   S231      1.0  0.25500  0.83111  0.74762  1.0000
  H   H1559     1.0  0.42311  0.72215  0.87704  1.0000
  H   H1560     1.0  0.45207  0.73168  0.90028  1.0000
  C   C899      1.0  0.22635  0.87595  0.84900  1.0000
  C   C900      1.0  0.22806  0.89296  0.81706  1.0000
  C   C901      1.0  0.22388  0.86324  0.82227  1.0000
  C   C902      1.0  0.22270  0.85473  0.83818  1.0000
  H   H1561     1.0  0.22116  0.84669  0.81407  1.0000
  H   H1562     1.0  0.21895  0.83154  0.84211  1.0000
  H   H1563     1.0  0.05205  0.69711  0.77018  1.0000
  H   H1564     1.0  0.23567  0.83233  0.97197  1.0000
  N   N49       1.0  0.30010  0.79990  0.85193  1.0000
  C   C903      1.0  0.27966  0.78261  0.84013  1.0000
  C   C904      1.0  0.31603  0.83396  0.84639  1.0000
  C   C905      1.0  0.32514  0.78841  0.85327  1.0000
  C   C906      1.0  0.28215  0.79417  0.86774  1.0000
  C   C907      1.0  0.25430  0.80301  0.86893  1.0000
  C   C908      1.0  0.26330  0.74712  0.84358  1.0000
  H   H1565     1.0  0.12578  0.80687  0.77078  1.0000
  C   C909      1.0  0.29741  0.84765  0.83687  1.0000
  C   C910      1.0  0.01158  0.71916  0.85699  1.0000
  C   C911      1.0  0.23573  0.79229  0.88497  1.0000
  C   C912      1.0  0.24141  0.73292  0.83142  1.0000
  H   H1566     1.0  0.01007  0.73840  0.77596  1.0000
  H   H1567     1.0  0.29383  0.78789  0.82866  1.0000
  H   H1568     1.0  0.26104  0.79033  0.83830  1.0000
  Fe  Fe119     1.0  0.36039  0.72653  0.97996  1.0000
  H   H1569     1.0  0.29987  0.89157  0.82748  1.0000
  H   H1570     1.0  0.33678  0.78925  0.84155  1.0000
  H   H1571     1.0  0.31482  0.76387  0.85821  1.0000
  H   H1572     1.0  0.27380  0.76973  0.87255  1.0000
  C   C913      1.0  0.15543  0.92375  0.83376  1.0000
  H   H1573     1.0  0.23788  0.79276  0.86034  1.0000
  H   H1574     1.0  0.26315  0.82837  0.86729  1.0000
  H   H1575     1.0  0.28066  0.73720  0.84323  1.0000
  H   H1576     1.0  0.24914  0.73998  0.85505  1.0000
  C   C914      1.0  0.01234  0.76235  0.77526  1.0000
  C   C915      1.0  0.36595  0.88252  0.76595  1.0000
  H   H1577     1.0  0.29558  0.83961  0.82520  1.0000
  H   H1578     1.0  0.27347  0.84071  0.84240  1.0000
  N   N50       1.0  0.38348  0.86497  0.75971  1.0000
  H   H1579     1.0  0.28213  0.67748  0.97324  1.0000
  H   H1580     1.0  0.42918  0.84319  0.75567  1.0000
  H   H1581     1.0  0.22554  0.76686  0.88730  1.0000
  H   H1582     1.0  0.40742  0.67716  0.77841  1.0000
  C   C916      1.0  0.31341  0.88273  0.83467  1.0000
  H   H1583     1.0  0.25460  0.73900  0.81968  1.0000
  H   H1584     1.0  0.23038  0.70750  0.83394  1.0000
  H   H1585     1.0  0.22268  0.74110  0.83150  1.0000
  H   H1586     1.0  0.40996  0.69886  0.74957  1.0000
  H   H1587     1.0  0.04896  0.68613  0.75082  1.0000
  H   H1588     1.0  0.27477  0.93533  0.94355  1.0000
  H   H1589     1.0  0.13809  0.77167  0.93660  1.0000
  C   C917      1.0  0.42530  0.69975  0.77300  1.0000
  C   C918      1.0  0.40634  0.86460  0.77085  1.0000
  H   H1590     1.0  0.09830  0.90190  0.87612  1.0000
  H   H1591     1.0  0.47846  0.67366  0.81196  1.0000
  H   H1592     1.0  0.31577  0.94413  0.94167  1.0000
  H   H1593     1.0  0.11540  0.81719  0.86719  1.0000
  H   H1594     1.0  0.01008  0.80646  0.84103  1.0000
  H   H1595     1.0  0.40392  0.81799  0.77204  1.0000
  H   H1596     1.0  0.09077  0.86512  0.95532  1.0000
  H   H1597     1.0  0.33851  0.70398  0.90584  1.0000
  H   H1598     1.0  0.31451  0.83297  0.75818  1.0000
  C   C919      1.0  0.06114  0.70518  0.75780  1.0000
  H   H1599     1.0  0.42854  0.71530  0.78223  1.0000
  C   C920      1.0  0.37694  0.70524  0.76529  1.0000
  C   C921      1.0  0.05858  0.81292  0.97658  1.0000
  C   C922      1.0  0.25780  0.66517  0.97896  1.0000
  H   H1600     1.0  0.14900  0.91927  0.87331  1.0000
  H   H1601     1.0  0.04235  0.88051  0.85711  1.0000
  C   C923      1.0  0.36532  0.93102  0.77524  1.0000
  C   C924      1.0  0.38547  0.91693  0.76749  1.0000
  C   C925      1.0  0.13899  0.83237  0.87007  1.0000
  N   N51       1.0  0.06606  0.78838  0.75836  1.0000
  H   H1602     1.0  0.07876  0.81396  0.95331  1.0000
  H   H1603     1.0  0.16532  0.97464  0.84889  1.0000
  H   H1604     1.0  0.16622  0.87951  0.87313  1.0000
  H   H1605     1.0  0.10405  0.80344  0.73992  1.0000
  H   H1606     1.0  0.10992  0.80534  0.93732  1.0000
  H   H1607     1.0  0.35302  0.87117  0.77747  1.0000
  H   H1608     1.0  0.44180  0.84659  0.78992  1.0000
  C   C926      1.0  0.14336  0.86573  0.86903  1.0000
  C   C927      1.0  0.37669  0.79425  0.86253  1.0000
  H   H1609     1.0  0.07435  0.83051  0.76862  1.0000
  H   H1610     1.0  0.40494  0.92040  0.77456  1.0000
  H   H1611     1.0  0.08132  0.86475  0.86895  1.0000
  H   H1612     1.0  0.12498  0.86686  0.87713  1.0000
  H   H1613     1.0  0.05873  0.91593  0.86597  1.0000
  H   H1614     1.0  0.14139  0.82484  0.88205  1.0000
  C   C928      1.0  0.39869  0.87828  0.74339  1.0000
  H   H1615     1.0  0.04037  0.87964  0.87788  1.0000
  H   H1616     1.0  0.15774  0.91476  0.94747  1.0000
  H   H1617     1.0  0.02836  0.80255  0.75858  1.0000
  C   C929      1.0  0.05506  0.73291  0.75253  1.0000
  H   H1618     1.0  0.06050  0.70259  0.86279  1.0000
  H   H1619     1.0  0.15627  0.90752  0.79524  1.0000
  C   C930      1.0  0.05507  0.89152  0.86682  1.0000
  S   S232      1.0  0.16599  0.80652  0.74321  1.0000
  H   H1620     1.0  0.37998  0.95549  0.77654  1.0000
  H   H1621     1.0  0.33796  0.83944  0.83867  1.0000
  H   H1622     1.0  0.02326  0.77276  0.78547  1.0000
  H   H1623     1.0  0.20673  0.76215  0.74453  1.0000
  H   H1624     1.0  0.11876  0.86369  0.94089  1.0000
  C   C931      1.0  0.41056  0.71095  0.75999  1.0000
  H   H1625     1.0  0.06216  0.71250  0.84219  1.0000
  H   H1626     1.0  0.45849  0.83092  0.77557  1.0000
  C   C932      1.0  0.35101  0.80558  0.86360  1.0000
  C   C933      1.0  0.08206  0.80732  0.96526  1.0000
  N   N52       1.0  0.45588  0.69832  0.76818  1.0000
  H   H1627     1.0  0.12287  0.91599  0.94120  1.0000
  H   H1628     1.0  0.12152  0.83751  0.79190  1.0000
  C   C934      1.0  0.01499  0.68909  0.85427  1.0000
  C   C935      1.0  0.38770  0.84983  0.98344  1.0000
  H   H1629     1.0  0.33747  0.89099  0.82872  1.0000
  C   C936      1.0  0.36010  0.83209  0.75934  1.0000
  C   C937      1.0  0.07142  0.76003  0.76214  1.0000
  C   C938      1.0  0.12936  0.85774  0.96500  1.0000
  H   H1630     1.0  0.06434  0.75145  0.77464  1.0000
  H   H1631     1.0  0.13084  0.95804  0.86278  1.0000
  N   N53       1.0  0.11590  0.82306  0.96811  1.0000
  H   H1632     1.0  0.29233  0.79111  0.74221  1.0000
  H   H1633     1.0  0.02172  0.73453  0.84594  1.0000
  C   C939      1.0  0.11598  0.87153  0.95230  1.0000
  H   H1634     1.0  0.46804  0.87144  0.77349  1.0000
  H   H1635     1.0  0.43228  0.67805  0.80163  1.0000
  H   H1636     1.0  0.36681  0.76904  0.86581  1.0000
  H   H1637     1.0  0.12809  0.91562  0.96146  1.0000
  H   H1638     1.0  0.17494  0.80549  0.93480  1.0000
  C   C940      1.0  0.11767  0.82505  0.76826  1.0000
  H   H1639     1.0  0.42539  0.88778  0.77103  1.0000
  H   H1640     1.0  0.18239  0.93436  0.85953  1.0000
  C   C941      1.0  0.15539  0.96126  0.86038  1.0000
  C   C942      1.0  0.00051  0.77551  0.86219  1.0000
  C   C943      1.0  0.15725  0.92978  0.86118  1.0000
  C   C944      1.0  0.03166  0.78098  0.75984  1.0000
  H   H1641     1.0  0.18135  0.93316  0.83341  1.0000
  S   S233      1.0  0.32990  0.75203  0.98129  1.0000
  H   H1642     1.0  0.02471  0.77740  0.86095  1.0000
  H   H1643     1.0  0.25142  0.97409  0.97295  1.0000
  C   C945      1.0  0.13225  0.90662  0.95054  1.0000
  H   H1644     1.0  0.39476  0.92987  0.75584  1.0000
  H   H1645     1.0  0.12836  0.83710  0.75657  1.0000
  H   H1646     1.0  0.15518  0.86748  0.96193  1.0000
  H   H1647     1.0  0.00475  0.68008  0.84362  1.0000
  H   H1648     1.0  0.09389  0.88639  0.84241  1.0000
  H   H1649     1.0  0.12082  0.89198  0.82002  1.0000
  H   H1650     1.0  0.15028  0.94385  0.83074  1.0000
  H   H1651     1.0  0.40442  0.84159  0.97809  1.0000
  C   C946      1.0  0.16086  0.92270  0.80465  1.0000
  H   H1652     1.0  0.12459  0.86006  0.84680  1.0000
  H   H1653     1.0  0.48230  0.70941  0.78796  1.0000
  C   C947      1.0  0.33117  0.82746  0.75078  1.0000
  H   H1654     1.0  0.48225  0.76666  0.95949  1.0000
  H   H1655     1.0  0.16567  0.88066  0.84608  1.0000
  H   H1656     1.0  0.39455  0.85822  0.78295  1.0000
  H   H1657     1.0  0.15532  0.88539  0.82121  1.0000
  H   H1658     1.0  0.15073  0.93941  0.80235  1.0000
  Fe  Fe120     1.0  0.24691  0.95231  0.90337  1.0000
  H   H1659     1.0  0.34797  0.88216  0.75839  1.0000
  H   H1660     1.0  0.02749  0.73068  0.86567  1.0000
  H   H1661     1.0  0.15705  0.83005  0.86206  1.0000
  C   C948      1.0  0.15008  0.79660  0.93256  1.0000
  N   N54       1.0  0.14001  0.90831  0.84979  1.0000
  H   H1662     1.0  0.47904  0.74730  0.76980  1.0000
  H   H1663     1.0  0.21887  0.99117  0.95539  1.0000
  C   C949      1.0  0.42130  0.84192  0.76811  1.0000
  H   H1664     1.0  0.09287  0.85067  0.74377  1.0000
  H   H1665     1.0  0.02946  0.72537  0.75370  1.0000
  H   H1666     1.0  0.07326  0.80032  0.78171  1.0000
  H   H1667     1.0  0.31428  0.89201  0.84604  1.0000
  H   H1668     1.0  0.18659  0.93539  0.80446  1.0000
  H   H1669     1.0  0.45042  0.68767  0.74451  1.0000
  H   H1670     1.0  0.25092  0.80272  0.89406  1.0000
  H   H1671     1.0  0.22775  0.99709  0.93474  1.0000
  C   C950      1.0  0.08641  0.88943  0.86659  1.0000
  H   H1672     1.0  0.10412  0.92429  0.84677  1.0000
  H   H1673     1.0  0.16461  0.96871  0.88431  1.0000
  H   H1674     1.0  0.09680  0.76570  0.76021  1.0000
  H   H1675     1.0  0.42406  0.73603  0.75667  1.0000
  C   C951      1.0  0.13457  0.81039  0.95840  1.0000
  H   H1676     1.0  0.15973  0.82170  0.96014  1.0000
  H   H1677     1.0  0.34120  0.80140  0.87594  1.0000
  C   C952      1.0  0.13393  0.81412  0.94068  1.0000
  C   C953      1.0  0.23356  0.85242  0.97569  1.0000
  S   S234      1.0  0.40890  0.68027  0.97287  1.0000
  H   H1678     1.0  0.29780  0.80752  0.87606  1.0000
  H   H1679     1.0  0.35126  0.82039  0.77130  1.0000
  C   C954      1.0  0.44913  0.84825  0.77735  1.0000
  C   C955      1.0  0.02715  0.80420  0.97019  1.0000
  H   H1680     1.0  0.36227  0.83071  0.86011  1.0000
  H   H1681     1.0  0.02993  0.81889  0.95926  1.0000
  C   C956      1.0  0.10613  0.90274  0.85066  1.0000
  C   C957      1.0  0.29841  0.95324  0.93911  1.0000
  C   C958      1.0  0.04935  0.69483  0.85214  1.0000
  H   H1682     1.0  0.38875  0.79982  0.85056  1.0000
  H   H1683     1.0  0.19896  0.98591  0.87023  1.0000
  C   C959      1.0  0.14644  0.90338  0.82025  1.0000
  H   H1684     1.0  0.39418  0.80574  0.87050  1.0000
  C   C960      1.0  0.14316  0.87832  0.85217  1.0000
  S   S235      1.0  0.39112  0.68707  0.83373  1.0000
  H   H1685     1.0  0.07438  0.78196  0.96597  1.0000
  H   H1686     1.0  0.14685  0.83867  0.93623  1.0000
  C   C961      1.0  0.30549  0.98273  0.94673  1.0000
  H   H1687     1.0  0.43241  0.66808  0.92274  1.0000
  H   H1688     1.0  0.12385  0.86784  0.77760  1.0000
  H   H1689     1.0  0.12671  0.78547  0.96221  1.0000
  H   H1690     1.0  0.08656  0.71115  0.75617  1.0000
  H   H1691     1.0  0.05592  0.83079  0.73644  1.0000
  C   C962      1.0  0.08145  0.81120  0.76959  1.0000
  H   H1692     1.0  0.34664  0.93009  0.76800  1.0000
  H   H1693     1.0  0.15639  0.85789  0.77863  1.0000
  C   C963      1.0  0.45296  0.67713  0.75579  1.0000
  H   H1694     1.0  0.37156  0.81875  0.75377  1.0000
  H   H1695     1.0  0.30527  0.97718  0.95933  1.0000
  H   H1696     1.0  0.01701  0.77971  0.96794  1.0000
  H   H1697     1.0  0.30722  0.77830  0.75833  1.0000
  H   H1698     1.0  0.37578  0.71649  0.77586  1.0000
  C   C964      1.0  0.13045  0.84847  0.77985  1.0000
  H   H1699     1.0  0.38762  0.86874  0.97543  1.0000
  H   H1700     1.0  0.29979  0.95793  0.92635  1.0000
  C   C965      1.0  0.43275  0.90362  0.74153  1.0000
  C   C966      1.0  0.25801  0.99666  0.97743  1.0000
  H   H1701     1.0  0.47308  0.79029  0.80454  1.0000
  H   H1702     1.0  0.01056  0.80752  0.97874  1.0000
  C   C967      1.0  0.46854  0.68893  0.78212  1.0000
  C   C968      1.0  0.17379  0.98078  0.87244  1.0000
  S   S236      1.0  0.47810  0.73487  0.81631  1.0000
  H   H1703     1.0  0.43600  0.92159  0.74933  1.0000
  H   H1704     1.0  0.44915  0.89338  0.74420  1.0000
  H   H1705     1.0  0.38409  0.88760  0.73726  1.0000
  H   H1706     1.0  0.25794  0.97651  0.94797  1.0000
  C   C969      1.0  0.07978  0.80133  0.74189  1.0000
  H   H1707     1.0  0.39940  0.86000  0.73642  1.0000
  C   C970      1.0  0.47890  0.73042  0.76159  1.0000
  H   H1708     1.0  0.47177  0.73758  0.75068  1.0000
  C   C971      1.0  0.08010  0.83274  0.73636  1.0000
  H   H1709     1.0  0.98890  0.73153  0.88453  1.0000
  S   S237      1.0  0.32600  0.66502  0.80345  1.0000
  C   C972      1.0  0.00078  0.80417  0.85335  1.0000
  H   H1710     1.0  0.12616  0.86796  0.97571  1.0000
  H   H1711     1.0  0.99372  0.77600  0.87457  1.0000
  C   C973      1.0  0.28101  0.99542  0.94370  1.0000
  H   H1712     1.0  0.36192  0.68020  0.76777  1.0000
  H   H1713     1.0  0.01590  0.82479  0.85863  1.0000
  H   H1714     1.0  0.06773  0.83730  0.97893  1.0000
  H   H1715     1.0  0.00311  0.67074  0.86394  1.0000
  C   C974      1.0  0.44450  0.66621  0.79530  1.0000
  H   H1716     1.0  0.47482  0.67402  0.75364  1.0000
  H   H1717     1.0  0.99770  0.68583  0.88703  1.0000
  C   C975      1.0  0.31395  0.79411  0.74744  1.0000
  H   H1718     1.0  0.32886  0.78789  0.73923  1.0000
  H   H1719     1.0  0.33778  0.84243  0.73963  1.0000
  Fe  Fe121     1.0  0.85480  0.28808  0.03645  1.0000
  S   S238      1.0  0.82330  0.24007  0.03225  1.0000
  H   H1720     1.0  0.75588  0.15999  0.16512  1.0000
  Fe  Fe122     1.0  0.89045  0.26700  0.05884  1.0000
  S   S239      1.0  0.86224  0.21707  0.05600  1.0000
  Fe  Fe123     1.0  0.64422  0.00285  0.13954  1.0000
  Fe  Fe124     1.0  0.86718  0.23278  0.03050  1.0000
  S   S240      1.0  0.87886  0.20760  0.01163  1.0000
  Fe  Fe125     1.0  0.82087  0.22849  0.05801  1.0000
  S   S241      1.0  0.77416  0.20125  0.07272  1.0000
  S   S242      1.0  0.89902  0.28156  0.03319  1.0000
  S   S243      1.0  0.84883  0.27766  0.06229  1.0000
  Fe  Fe126     1.0  0.66766  0.02567  0.17067  1.0000
  Fe  Fe127     1.0  0.69981  0.06485  0.13973  1.0000
  S   S244      1.0  0.65522  0.05050  0.12876  1.0000
  S   S245      1.0  0.74758  0.09465  0.12671  1.0000
  C   C976      1.0  0.79207  0.19378  0.14826  1.0000
  H   H1721     1.0  0.49402  0.22830  0.98883  1.0000
  S   S246      1.0  0.68056  0.07501  0.16199  1.0000
  H   H1722     1.0  0.56431  0.01512  0.15232  1.0000
  C   C977      1.0  0.49808  0.07669  0.11820  1.0000
  H   H1723     1.0  0.54233  0.05470  0.20356  1.0000
  H   H1724     1.0  0.83649  0.18116  0.10788  1.0000
  H   H1725     1.0  0.81691  0.12147  0.01752  1.0000
  C   C978      1.0  0.49644  0.02313  0.15988  1.0000
  C   C979      1.0  0.56183  0.05805  0.15537  1.0000
  C   C980      1.0  0.86305  0.22574  0.11643  1.0000
  C   C981      1.0  0.84954  0.25115  0.13723  1.0000
  C   C982      1.0  0.54176  0.07220  0.15845  1.0000
  H   H1726     1.0  0.89100  0.18893  0.10441  1.0000
  H   H1727     1.0  0.55158  0.09658  0.15944  1.0000
  C   C983      1.0  0.56754  0.30141  0.02315  1.0000
  C   C984      1.0  0.59671  0.30363  0.01697  1.0000
  H   H1728     1.0  0.66355  0.07722  0.05551  1.0000
  S   S247      1.0  0.69031  0.01652  0.14906  1.0000
  H   H1729     1.0  0.80294  0.20783  0.15757  1.0000
  H   H1730     1.0  0.66335  0.11002  0.07516  1.0000
  H   H1731     1.0  0.60345  0.28523  0.01992  1.0000
  H   H1732     1.0  0.79000  0.27526  0.10642  1.0000
  H   H1733     1.0  0.76033  0.14596  0.14692  1.0000
  H   H1734     1.0  0.48442  0.27896  0.99313  1.0000
  C   C985      1.0  0.61669  0.01764  0.09516  1.0000
  C   C986      1.0  0.63636  0.10363  0.19092  1.0000
  H   H1735     1.0  0.55842  0.04072  0.22568  1.0000
  C   C987      1.0  0.50915  0.05489  0.16052  1.0000
  C   C988      1.0  0.49697  0.10998  0.09618  1.0000
  H   H1736     1.0  0.49184  0.26724  0.09899  1.0000
  C   C989      1.0  0.95690  0.31982  0.11342  1.0000
  H   H1737     1.0  0.83251  0.18603  0.14029  1.0000
  C   C990      1.0  0.76671  0.17087  0.08732  1.0000
  C   C991      1.0  0.78757  0.15751  0.08898  1.0000
  C   C992      1.0  0.78114  0.13384  0.10097  1.0000
  C   C993      1.0  0.75362  0.12301  0.11125  1.0000
  C   C994      1.0  0.73233  0.13582  0.10936  1.0000
  C   C995      1.0  0.73898  0.15978  0.09750  1.0000
  H   H1738     1.0  0.80875  0.16552  0.08107  1.0000
  H   H1739     1.0  0.79764  0.12391  0.10230  1.0000
  H   H1740     1.0  0.71112  0.12775  0.11725  1.0000
  H   H1741     1.0  0.72265  0.16993  0.09625  1.0000
  C   C996      1.0  0.80671  0.27252  0.09771  1.0000
  H   H1742     1.0  0.68145  0.02328  0.09111  1.0000
  N   N55       1.0  0.51541  0.10826  0.10937  1.0000
  N   N56       1.0  0.56581  0.02447  0.20374  1.0000
  H   H1743     1.0  0.80254  0.21618  0.10961  1.0000
  S   S248      1.0  0.93060  0.28090  0.07382  1.0000
  H   H1744     1.0  0.79143  0.28377  0.03121  1.0000
  H   H1745     1.0  0.70899  0.15776  0.06666  1.0000
  C   C997      1.0  0.79159  0.30080  0.02240  1.0000
  C   C998      1.0  0.68445  0.05774  0.23041  1.0000
  Fe  Fe128     1.0  0.63476  0.05659  0.15164  1.0000
  H   H1746     1.0  0.73542  0.02592  0.09003  1.0000
  H   H1747     1.0  0.89391  0.26499  0.16861  1.0000
  H   H1748     1.0  0.81856  0.29433  0.08993  1.0000
  H   H1749     1.0  0.77527  0.20188  0.14370  1.0000
  C   C999      1.0  0.67985  0.04789  0.21551  1.0000
  C   C1000     1.0  0.55913  0.32538  0.01929  1.0000
  H   H1750     1.0  0.67581  0.06181  0.20643  1.0000
  H   H1751     1.0  0.61504  0.05761  0.22363  1.0000
  H   H1752     1.0  0.68628  0.05901  0.09706  1.0000
  C   C1001     1.0  0.77322  0.16070  0.15563  1.0000
  H   H1753     1.0  0.63707  0.02191  0.05907  1.0000
  C   C1002     1.0  0.51853  0.12674  0.13703  1.0000
  C   C1003     1.0  0.76324  0.32060  0.00594  1.0000
  Fe  Fe129     1.0  0.49162  0.26027  0.04137  1.0000
  S   S249      1.0  0.60255  0.08061  0.15272  1.0000
  H   H1754     1.0  0.79305  0.10188  0.99394  1.0000
  H   H1755     1.0  0.57601  0.12605  0.12207  1.0000
  C   C1004     1.0  0.88060  0.22101  0.99203  1.0000
  H   H1756     1.0  0.49684  0.09356  0.08779  1.0000
  H   H1757     1.0  0.78877  0.15119  0.16050  1.0000
  C   C1005     1.0  0.95489  0.30388  0.10029  1.0000
  H   H1758     1.0  0.90122  0.22332  0.09139  1.0000
  C   C1006     1.0  0.91901  0.26629  0.22937  1.0000
  H   H1759     1.0  0.73677  0.05350  0.10329  1.0000
  H   H1760     1.0  0.54731  0.17424  0.14068  1.0000
  H   H1761     1.0  0.87958  0.24915  0.11105  1.0000
  C   C1007     1.0  0.54913  0.02630  0.15473  1.0000
  C   C1008     1.0  0.54785  0.11384  0.10263  1.0000
  C   C1009     1.0  0.56904  0.10812  0.11401  1.0000
  H   H1762     1.0  0.48739  0.04164  0.21213  1.0000
  H   H1763     1.0  0.69700  0.13712  0.05011  1.0000
  C   C1010     1.0  0.59913  0.10989  0.10538  1.0000
  H   H1764     1.0  0.85678  0.22229  0.15615  1.0000
  H   H1765     1.0  0.54665  0.09986  0.09285  1.0000
  H   H1766     1.0  0.56091  0.13803  0.09732  1.0000
  C   C1011     1.0  0.87909  0.26949  0.16038  1.0000
  H   H1767     1.0  0.72836  0.05754  0.06874  1.0000
  H   H1768     1.0  0.53256  0.14918  0.08074  1.0000
  H   H1769     1.0  0.63126  0.01155  0.10291  1.0000
  S   S250      1.0  0.54159  0.26772  0.03492  1.0000
  H   H1770     1.0  0.80418  0.17889  0.12719  1.0000
  H   H1771     1.0  0.59379  0.09176  0.09741  1.0000
  H   H1772     1.0  0.61248  0.13281  0.09868  1.0000
  H   H1773     1.0  0.61398  0.10624  0.11387  1.0000
  C   C1012     1.0  0.68570  0.10826  0.07218  1.0000
  C   C1013     1.0  0.85398  0.20447  0.10335  1.0000
  H   H1774     1.0  0.84389  0.28518  0.11187  1.0000
  C   C1014     1.0  0.88217  0.20069  0.09588  1.0000
  H   H1775     1.0  0.52466  0.14975  0.15787  1.0000
  C   C1015     1.0  0.60219  0.08200  0.19609  1.0000
  H   H1776     1.0  0.84433  0.21395  0.09418  1.0000
  H   H1777     1.0  0.92354  0.28000  0.20471  1.0000
  H   H1778     1.0  0.73322  0.08766  0.08057  1.0000
  H   H1779     1.0  0.87530  0.18658  0.08609  1.0000
  H   H1780     1.0  0.85496  0.13982  0.00667  1.0000
  C   C1016     1.0  0.81712  0.19559  0.13520  1.0000
  H   H1781     1.0  0.76725  0.06381  0.08750  1.0000
  C   C1017     1.0  0.86953  0.24492  0.14918  1.0000
  C   C1018     1.0  0.51657  0.00889  0.15716  1.0000
  H   H1782     1.0  0.64316  0.06655  0.09224  1.0000
  H   H1783     1.0  0.83420  0.09832  0.00899  1.0000
  C   C1019     1.0  0.56707  0.02434  0.22106  1.0000
  H   H1784     1.0  0.89285  0.29265  0.15396  1.0000
  H   H1785     1.0  0.53742  0.11971  0.13899  1.0000
  H   H1786     1.0  0.89113  0.28273  0.21566  1.0000
  H   H1787     1.0  0.76933  0.00429  0.19156  1.0000
  H   H1788     1.0  0.69638  0.01164  0.06231  1.0000
  H   H1789     1.0  0.62125  0.05192  0.07655  1.0000
  C   C1020     1.0  0.78957  0.24441  0.98950  1.0000
  H   H1790     1.0  0.51664  0.05199  0.10281  1.0000
  H   H1791     1.0  0.54707  0.23434  0.00857  1.0000
  H   H1792     1.0  0.79127  0.24813  0.00190  1.0000
  C   C1021     1.0  0.87293  0.24537  0.98793  1.0000
  H   H1793     1.0  0.59644  0.08542  0.20817  1.0000
  C   C1022     1.0  0.51268  0.24208  0.99571  1.0000
  H   H1794     1.0  0.79358  0.25391  0.09070  1.0000
  H   H1795     1.0  0.89338  0.31149  0.08601  1.0000
  H   H1796     1.0  0.53971  0.03538  0.18677  1.0000
  H   H1797     1.0  0.69677  0.10849  0.08297  1.0000
  C   C1023     1.0  0.76346  0.29821  0.01703  1.0000
  C   C1024     1.0  0.72356  0.06230  0.08062  1.0000
  C   C1025     1.0  0.74179  0.05062  0.09102  1.0000
  C   C1026     1.0  0.68544  0.00211  0.22448  1.0000
  H   H1798     1.0  0.51860  0.30996  0.99752  1.0000
  C   C1027     1.0  0.52730  0.22135  0.00203  1.0000
  H   H1799     1.0  0.55321  0.28540  0.99411  1.0000
  C   C1028     1.0  0.59545  0.04793  0.19454  1.0000
  H   H1800     1.0  0.81291  0.14315  0.99209  1.0000
  H   H1801     1.0  0.50192  0.24852  0.00581  1.0000
  H   H1802     1.0  0.90432  0.24199  0.22805  1.0000
  H   H1803     1.0  0.50558  0.16296  0.14387  1.0000
  H   H1804     1.0  0.86615  0.25664  0.99688  1.0000
  C   C1029     1.0  0.91083  0.31337  0.09369  1.0000
  H   H1805     1.0  0.83062  0.25538  0.14351  1.0000
  C   C1030     1.0  0.68010  0.01984  0.21250  1.0000
  C   C1031     1.0  0.52442  0.15528  0.14531  1.0000
  H   H1806     1.0  0.73062  0.13774  0.05903  1.0000
  C   C1032     1.0  0.50851  0.14181  0.08649  1.0000
  H   H1807     1.0  0.85818  0.26935  0.16710  1.0000
  H   H1808     1.0  0.79651  0.23741  0.12427  1.0000
  H   H1809     1.0  0.50940  0.07407  0.12854  1.0000
  H   H1810     1.0  0.89136  0.24559  0.14322  1.0000
  N   N57       1.0  0.83624  0.22691  0.12640  1.0000
  C   C1033     1.0  0.63682  0.04786  0.08453  1.0000
  C   C1034     1.0  0.53763  0.27135  0.98595  1.0000
  H   H1811     1.0  0.55073  0.00141  0.22706  1.0000
  H   H1812     1.0  0.94659  0.25528  0.99479  1.0000
  C   C1035     1.0  0.83161  0.12017  0.00730  1.0000
  H   H1813     1.0  0.55752  0.08516  0.12076  1.0000
  C   C1036     1.0  0.68818  0.04756  0.08662  1.0000
  H   H1814     1.0  0.64251  0.10195  0.17860  1.0000
  H   H1815     1.0  0.87705  0.21766  0.12370  1.0000
  H   H1816     1.0  0.59468  0.04500  0.18199  1.0000
  C   C1037     1.0  0.67947  0.07843  0.06450  1.0000
  C   C1038     1.0  0.51667  0.13295  0.11954  1.0000
  H   H1817     1.0  0.86532  0.27359  0.13060  1.0000
  H   H1818     1.0  0.61615  0.04427  0.19742  1.0000
  H   H1819     1.0  0.74173  0.27908  0.02171  1.0000
  C   C1039     1.0  0.81511  0.23507  0.11669  1.0000
  S   S251      1.0  0.72742  0.31769  0.00017  1.0000
  H   H1820     1.0  0.49535  0.13713  0.11916  1.0000
  C   C1040     1.0  0.70684  0.13685  0.06127  1.0000
  H   H1821     1.0  0.65202  0.09803  0.19815  1.0000
  C   C1041     1.0  0.83098  0.26527  0.10562  1.0000
  C   C1042     1.0  0.91249  0.32883  0.10696  1.0000
  N   N58       1.0  0.66588  0.04912  0.07542  1.0000
  H   H1822     1.0  0.70167  0.08161  0.05789  1.0000
  C   C1043     1.0  0.93184  0.30054  0.09038  1.0000
  H   H1823     1.0  0.69619  0.04032  0.04780  1.0000
  C   C1044     1.0  0.68142  0.01879  0.05528  1.0000
  H   H1824     1.0  0.50475  0.00044  0.21843  1.0000
  H   H1825     1.0  0.64013  0.12770  0.19208  1.0000
  C   C1045     1.0  0.59040  0.02061  0.10520  1.0000
  C   C1046     1.0  0.91580  0.28621  0.21578  1.0000
  H   H1826     1.0  0.53643  0.15535  0.11503  1.0000
  H   H1827     1.0  0.49384  0.06597  0.16290  1.0000
  H   H1828     1.0  0.58768  0.08900  0.18863  1.0000
  H   H1829     1.0  0.84746  0.26336  0.09652  1.0000
  H   H1830     1.0  0.59982  0.03984  0.11243  1.0000
  C   C1047     1.0  0.96974  0.27000  0.98828  1.0000
  C   C1048     1.0  0.59956  0.03293  0.22697  1.0000
  H   H1831     1.0  0.48636  0.28565  0.11552  1.0000
  C   C1049     1.0  0.65578  0.02192  0.06612  1.0000
  H   H1832     1.0  0.75319  0.99991  0.22627  1.0000
  C   C1050     1.0  0.49408  0.04918  0.10887  1.0000
  H   H1833     1.0  0.78813  0.99938  0.21780  1.0000
  C   C1051     1.0  0.53933  0.03229  0.19956  1.0000
  C   C1052     1.0  0.50584  0.00862  0.20609  1.0000
  H   H1834     1.0  0.49607  0.10820  0.14257  1.0000
  H   H1835     1.0  0.53592  0.21189  0.99242  1.0000
  C   C1053     1.0  0.81631  0.12167  0.99261  1.0000
  H   H1836     1.0  0.94375  0.26965  0.22833  1.0000
  H   H1837     1.0  0.97347  0.29434  0.98826  1.0000
  S   S252      1.0  0.67300  0.00513  0.19427  1.0000
  H   H1838     1.0  0.97469  0.32219  0.12099  1.0000
  H   H1839     1.0  0.48841  0.12453  0.06545  1.0000
  H   H1840     1.0  0.57729  0.99905  0.11306  1.0000
  H   H1841     1.0  0.50839  0.15975  0.09379  1.0000
  H   H1842     1.0  0.61173  0.01969  0.22218  1.0000
  H   H1843     1.0  0.97128  0.29403  0.09782  1.0000
  H   H1844     1.0  0.57394  0.02450  0.09784  1.0000
  C   C1054     1.0  0.81961  0.32591  0.01673  1.0000
  H   H1845     1.0  0.50952  0.20196  0.01000  1.0000
  S   S253      1.0  0.62054  0.00811  0.16180  1.0000
  S   S254      1.0  0.85483  0.33088  0.02402  1.0000
  H   H1846     1.0  0.49843  0.01893  0.12735  1.0000
  H   H1847     1.0  0.93075  0.31092  0.21648  1.0000
  H   H1848     1.0  0.68371  0.07922  0.23269  1.0000
  H   H1849     1.0  0.53703  0.32420  0.02417  1.0000
  H   H1850     1.0  0.73330  0.00189  0.20131  1.0000
  H   H1851     1.0  0.64541  0.99997  0.07391  1.0000
  H   H1852     1.0  0.65427  0.00140  0.03610  1.0000
  H   H1853     1.0  0.60530  0.99826  0.08825  1.0000
  H   H1854     1.0  0.76478  0.22984  0.98812  1.0000
  C   C1055     1.0  0.50542  0.29962  0.98777  1.0000
  H   H1855     1.0  0.80415  0.23226  0.98617  1.0000
  H   H1856     1.0  0.49525  0.16375  0.06748  1.0000
  C   C1056     1.0  0.61702  0.32932  0.00675  1.0000
  H   H1857     1.0  0.63933  0.33068  0.00195  1.0000
  C   C1057     1.0  0.48740  0.14051  0.07384  1.0000
  H   H1858     1.0  0.63367  0.06841  0.30525  1.0000
  S   S255      1.0  0.96093  0.30253  0.31138  1.0000
  S   S256      1.0  0.94122  0.21115  0.31212  1.0000
  Fe  Fe130     1.0  0.76664  0.07438  0.30316  1.0000
  S   S257      1.0  0.71491  0.06194  0.30326  1.0000
  S   S258      1.0  0.79626  0.12504  0.30700  1.0000
  Fe  Fe131     1.0  0.70609  0.01644  0.31618  1.0000
  H   H1859     1.0  0.58609  0.02545  0.30165  1.0000
  Fe  Fe132     1.0  0.71761  0.04092  0.28115  1.0000
  H   H1860     1.0  0.64153  0.12393  0.46871  1.0000
  S   S259      1.0  0.75738  0.02984  0.31767  1.0000
  S   S260      1.0  0.76946  0.05559  0.28041  1.0000
  H   H1861     1.0  0.74740  0.21014  0.37403  1.0000
  C   C1058     1.0  0.51149  0.08541  0.40342  1.0000
  H   H1862     1.0  0.62962  0.26198  0.36368  1.0000
  Fe  Fe133     1.0  0.64757  0.24998  0.45154  1.0000
  S   S261      1.0  0.62023  0.19543  0.45666  1.0000
  S   S262      1.0  0.62282  0.27687  0.44083  1.0000
  S   S263      1.0  0.69409  0.27947  0.43694  1.0000
  Fe  Fe134     1.0  0.62014  0.14223  0.37458  1.0000
  S   S264      1.0  0.61155  0.13611  0.40046  1.0000
  S   S265      1.0  0.59535  0.09835  0.36108  1.0000
  Fe  Fe135     1.0  0.66073  0.21661  0.37526  1.0000
  S   S266      1.0  0.65241  0.21109  0.40129  1.0000
  S   S267      1.0  0.69148  0.26664  0.36198  1.0000
  Fe  Fe136     1.0  0.66243  0.16910  0.40059  1.0000
  S   S268      1.0  0.70181  0.16021  0.41101  1.0000
  Fe  Fe137     1.0  0.60218  0.17848  0.39896  1.0000
  S   S269      1.0  0.55828  0.18504  0.40777  1.0000
  S   S270      1.0  0.67170  0.17477  0.37444  1.0000
  S   S271      1.0  0.60999  0.18470  0.37286  1.0000
  Fe  Fe138     1.0  0.97426  0.26288  0.31070  1.0000
  S   S272      1.0  0.54220  0.04895  0.44828  1.0000
  S   S273      1.0  0.54008  0.01627  0.40785  1.0000
  C   C1059     1.0  0.57414  0.05627  0.36129  1.0000
  C   C1060     1.0  0.55518  0.04405  0.34947  1.0000
  H   H1863     1.0  0.55293  0.05977  0.34070  1.0000
  C   C1061     1.0  0.60194  0.15428  0.45397  1.0000
  C   C1062     1.0  0.60679  0.14194  0.44028  1.0000
  C   C1063     1.0  0.58944  0.10994  0.43847  1.0000
  C   C1064     1.0  0.56663  0.08952  0.45013  1.0000
  C   C1065     1.0  0.56346  0.10153  0.46409  1.0000
  C   C1066     1.0  0.58082  0.13304  0.46598  1.0000
  H   H1864     1.0  0.62350  0.15724  0.43096  1.0000
  H   H1865     1.0  0.59322  0.10082  0.42799  1.0000
  H   H1866     1.0  0.54681  0.08645  0.47352  1.0000
  H   H1867     1.0  0.49354  0.07475  0.43548  1.0000
  C   C1067     1.0  0.57574  0.03456  0.37250  1.0000
  H   H1868     1.0  0.63367  0.01670  0.31242  1.0000
  C   C1068     1.0  0.71449  0.30860  0.35982  1.0000
  H   H1869     1.0  0.50640  0.19233  0.47246  1.0000
  S   S274      1.0  0.90627  0.20383  0.48126  1.0000
  H   H1870     1.0  0.76900  0.23604  0.45754  1.0000
  H   H1871     1.0  0.76236  0.21270  0.47500  1.0000
  H   H1872     1.0  0.72225  0.31141  0.33502  1.0000
  C   C1069     1.0  0.73703  0.15173  0.45865  1.0000
  C   C1070     1.0  0.71167  0.15959  0.45753  1.0000
  C   C1071     1.0  0.70024  0.16198  0.44319  1.0000
  C   C1072     1.0  0.71445  0.15708  0.42962  1.0000
  C   C1073     1.0  0.74009  0.14966  0.43070  1.0000
  C   C1074     1.0  0.75099  0.14652  0.44510  1.0000
  H   H1873     1.0  0.70053  0.16361  0.46789  1.0000
  H   H1874     1.0  0.68058  0.16782  0.44264  1.0000
  H   H1875     1.0  0.75136  0.14589  0.42032  1.0000
  H   H1876     1.0  0.77010  0.13994  0.44571  1.0000
  H   H1877     1.0  0.82724  0.15908  0.25302  1.0000
  H   H1878     1.0  0.57518  0.20491  0.34081  1.0000
  C   C1075     1.0  0.52790  0.08310  0.38813  1.0000
  H   H1879     1.0  0.98357  0.23117  0.26509  1.0000
  C   C1076     1.0  0.53458  0.14551  0.43505  1.0000
  C   C1077     1.0  0.53252  0.16854  0.42528  1.0000
  C   C1078     1.0  0.50855  0.17783  0.42919  1.0000
  H   H1880     1.0  0.85133  0.28669  0.45984  1.0000
  S   S275      1.0  0.66154  0.28168  0.47083  1.0000
  H   H1881     1.0  0.55195  0.13739  0.43192  1.0000
  H   H1882     1.0  0.50631  0.19539  0.42166  1.0000
  C   C1079     1.0  0.59437  0.22717  0.34262  1.0000
  C   C1080     1.0  0.57966  0.29727  0.36844  1.0000
  H   H1883     1.0  0.74015  0.05242  0.42121  1.0000
  H   H1884     1.0  0.69050  0.01622  0.36228  1.0000
  H   H1885     1.0  0.83344  0.02210  0.26445  1.0000
  H   H1886     1.0  0.65181  0.30654  0.37845  1.0000
  Fe  Fe139     1.0  0.63676  0.30846  0.45939  1.0000
  C   C1081     1.0  0.91594  0.27598  0.27280  1.0000
  C   C1082     1.0  0.90091  0.18801  0.31016  1.0000
  C   C1083     1.0  0.89078  0.15614  0.30962  1.0000
  C   C1084     1.0  0.85918  0.13666  0.30833  1.0000
  C   C1085     1.0  0.83698  0.14869  0.30769  1.0000
  C   C1086     1.0  0.84712  0.18063  0.30811  1.0000
  C   C1087     1.0  0.87879  0.20016  0.30926  1.0000
  H   H1887     1.0  0.90753  0.14635  0.31031  1.0000
  H   H1888     1.0  0.85196  0.11224  0.30810  1.0000
  H   H1889     1.0  0.83026  0.19030  0.30768  1.0000
  H   H1890     1.0  0.88599  0.22450  0.30975  1.0000
  H   H1891     1.0  0.59005  0.04263  0.38168  1.0000
  H   H1892     1.0  0.73622  0.08811  0.42012  1.0000
  C   C1088     1.0  0.69016  0.04011  0.24235  1.0000
  H   H1893     1.0  0.83366  0.31463  0.40334  1.0000
  N   N59       1.0  0.73690  0.13508  0.34858  1.0000
  C   C1089     1.0  0.75836  0.12026  0.35242  1.0000
  C   C1090     1.0  0.70430  0.11444  0.35592  1.0000
  C   C1091     1.0  0.73824  0.13982  0.33116  1.0000
  C   C1092     1.0  0.74685  0.16592  0.35468  1.0000
  C   C1093     1.0  0.74897  0.16587  0.37238  1.0000
  C   C1094     1.0  0.79384  0.14099  0.34841  1.0000
  C   C1095     1.0  0.71245  0.14783  0.32485  1.0000
  C   C1096     1.0  0.68975  0.08211  0.35033  1.0000
  C   C1097     1.0  0.65466  0.06627  0.35536  1.0000
  C   C1098     1.0  0.76261  0.19857  0.37692  1.0000
  H   H1894     1.0  0.61390  0.01454  0.33108  1.0000
  C   C1099     1.0  0.71711  0.15297  0.30716  1.0000
  H   H1895     1.0  0.75292  0.09950  0.34618  1.0000
  H   H1896     1.0  0.75419  0.11140  0.36491  1.0000
  H   H1897     1.0  0.70380  0.11024  0.36867  1.0000
  H   H1898     1.0  0.68835  0.12588  0.35446  1.0000
  H   H1899     1.0  0.73762  0.11926  0.32581  1.0000
  H   H1900     1.0  0.76104  0.15858  0.32613  1.0000
  H   H1901     1.0  0.76975  0.18260  0.34851  1.0000
  H   H1902     1.0  0.73018  0.17598  0.35216  1.0000
  H   H1903     1.0  0.76386  0.15475  0.37629  1.0000
  H   H1904     1.0  0.72543  0.15352  0.37892  1.0000
  H   H1905     1.0  0.79922  0.15253  0.33645  1.0000
  H   H1906     1.0  0.80201  0.15907  0.35636  1.0000
  H   H1907     1.0  0.71280  0.16904  0.32920  1.0000
  H   H1908     1.0  0.68890  0.12891  0.32826  1.0000
  H   H1909     1.0  0.69331  0.08289  0.33761  1.0000
  H   H1910     1.0  0.70067  0.06778  0.35540  1.0000
  H   H1911     1.0  0.64299  0.07988  0.35030  1.0000
  H   H1912     1.0  0.64441  0.04328  0.35122  1.0000
  H   H1913     1.0  0.64978  0.06341  0.36815  1.0000
  H   H1914     1.0  0.56914  0.01518  0.32119  1.0000
  N   N60       1.0  0.60404  0.28640  0.37278  1.0000
  H   H1915     1.0  0.76924  0.27920  0.47560  1.0000
  C   C1100     1.0  0.66575  0.00230  0.36511  1.0000
  H   H1916     1.0  0.62012  0.03400  0.24848  1.0000
  H   H1917     1.0  0.56631  0.20624  0.47109  1.0000
  H   H1918     1.0  0.74005  0.17234  0.30299  1.0000
  H   H1919     1.0  0.71606  0.13189  0.30226  1.0000
  H   H1920     1.0  0.69837  0.15852  0.30288  1.0000
  H   H1921     1.0  0.70978  0.21964  0.47424  1.0000
  C   C1101     1.0  0.83013  0.03479  0.25411  1.0000
  C   C1102     1.0  0.82121  0.22836  0.46527  1.0000
  C   C1103     1.0  0.52511  0.21513  0.47372  1.0000
  C   C1104     1.0  0.82639  0.28214  0.46273  1.0000
  C   C1105     1.0  0.81403  0.29015  0.44779  1.0000
  H   H1922     1.0  0.71125  0.25627  0.47857  1.0000
  H   H1923     1.0  0.52847  0.06034  0.38801  1.0000
  C   C1106     1.0  0.81835  0.22214  0.44815  1.0000
  C   C1107     1.0  0.83101  0.19865  0.44432  1.0000
  C   C1108     1.0  0.64894  0.08220  0.46789  1.0000
  H   H1924     1.0  0.58210  0.00271  0.24863  1.0000
  Fe  Fe140     1.0  0.75649  0.01013  0.29478  1.0000
  H   H1925     1.0  0.79019  0.26435  0.34815  1.0000
  H   H1926     1.0  0.85737  0.31275  0.43230  1.0000
  H   H1927     1.0  0.60904  0.02095  0.45946  1.0000
  C   C1109     1.0  0.77388  0.23710  0.46977  1.0000
  C   C1110     1.0  0.79826  0.01661  0.24865  1.0000
  H   H1928     1.0  0.93018  0.22963  0.24815  1.0000
  C   C1111     1.0  0.86567  0.20389  0.25355  1.0000
  H   H1929     1.0  0.79368  0.29525  0.45091  1.0000
  H   H1930     1.0  0.80620  0.27131  0.44034  1.0000
  H   H1931     1.0  0.88293  0.19415  0.25172  1.0000
  N   N61       1.0  0.80852  0.25019  0.47110  1.0000
  H   H1932     1.0  0.74201  0.07187  0.43834  1.0000
  H   H1933     1.0  0.80955  0.20572  0.47249  1.0000
  H   H1934     1.0  0.79372  0.21285  0.44561  1.0000
  H   H1935     1.0  0.83257  0.24345  0.44038  1.0000
  C   C1112     1.0  0.53838  0.01175  0.34897  1.0000
  H   H1936     1.0  0.82735  0.19318  0.43225  1.0000
  H   H1937     1.0  0.85642  0.20790  0.44547  1.0000
  C   C1113     1.0  0.96373  0.25386  0.47942  1.0000
  H   H1938     1.0  0.60983  0.08944  0.47847  1.0000
  C   C1114     1.0  0.54878  0.32337  0.45548  1.0000
  H   H1939     1.0  0.52768  0.31024  0.36843  1.0000
  H   H1940     1.0  0.75529  0.27570  0.37861  1.0000
  H   H1941     1.0  0.54930  0.30292  0.45141  1.0000
  H   H1942     1.0  0.64126  0.06020  0.47537  1.0000
  H   H1943     1.0  0.78021  0.01426  0.25813  1.0000
  H   H1944     1.0  0.74959  0.25896  0.43284  1.0000
  H   H1945     1.0  0.69234  0.09102  0.43614  1.0000
  H   H1946     1.0  0.82700  0.29986  0.47046  1.0000
  C   C1115     1.0  0.53494  0.23340  0.45769  1.0000
  H   H1947     1.0  0.83839  0.16734  0.27208  1.0000
  C   C1116     1.0  0.83913  0.31853  0.43807  1.0000
  H   H1948     1.0  0.75037  0.29141  0.40314  1.0000
  H   H1949     1.0  0.54424  0.24723  0.41134  1.0000
  C   C1117     1.0  0.55353  0.21285  0.48039  1.0000
  Fe  Fe141     1.0  0.67001  0.30808  0.42849  1.0000
  C   C1118     1.0  0.81307  0.12235  0.34982  1.0000
  H   H1950     1.0  0.66474  0.01366  0.38874  1.0000
  H   H1951     1.0  0.95346  0.19652  0.25947  1.0000
  S   S276      1.0  0.69392  0.05257  0.26119  1.0000
  C   C1119     1.0  0.52273  0.28623  0.36635  1.0000
  C   C1120     1.0  0.63395  0.07613  0.40073  1.0000
  C   C1121     1.0  0.51365  0.13232  0.44863  1.0000
  C   C1122     1.0  0.61139  0.26941  0.36030  1.0000
  C   C1123     1.0  0.73058  0.06639  0.42756  1.0000
  Fe  Fe142     1.0  0.52393  0.00716  0.43314  1.0000
  N   N62       1.0  0.90877  0.25586  0.25970  1.0000
  H   H1952     1.0  0.51561  0.22761  0.48125  1.0000
  H   H1953     1.0  0.81877  0.17707  0.45225  1.0000
  H   H1954     1.0  0.60752  0.04604  0.42966  1.0000
  C   C1124     1.0  0.68151  0.06652  0.44110  1.0000
  H   H1955     1.0  0.87413  0.21981  0.27610  1.0000
  H   H1956     1.0  0.82507  0.28201  0.39330  1.0000
  H   H1957     1.0  0.76390  0.19772  0.38961  1.0000
  H   H1958     1.0  0.61507  0.22310  0.34508  1.0000
  H   H1959     1.0  0.69465  0.99832  0.24833  1.0000
  H   H1960     1.0  0.52347  0.00365  0.33994  1.0000
  H   H1961     1.0  0.52526  0.08342  0.41287  1.0000
  Fe  Fe143     1.0  0.70731  0.31211  0.45536  1.0000
  H   H1962     1.0  0.60061  0.24296  0.33176  1.0000
  H   H1963     1.0  0.80923  0.11087  0.36178  1.0000
  H   H1964     1.0  0.96173  0.19873  0.27932  1.0000
  H   H1965     1.0  0.51214  0.10872  0.40259  1.0000
  H   H1966     1.0  0.62798  0.00868  0.28792  1.0000
  C   C1125     1.0  0.78942  0.30264  0.35991  1.0000
  C   C1126     1.0  0.63140  0.02382  0.45289  1.0000
  H   H1967     1.0  0.88796  0.27792  0.24456  1.0000
  C   C1127     1.0  0.59456  0.26613  0.38799  1.0000
  H   H1968     1.0  0.72620  0.25250  0.45965  1.0000
  C   C1128     1.0  0.63560  0.10197  0.47600  1.0000
  H   H1969     1.0  0.92712  0.32682  0.43053  1.0000
  C   C1129     1.0  0.54492  0.27575  0.37426  1.0000
  C   C1130     1.0  0.59066  0.28217  0.40237  1.0000
  C   C1131     1.0  0.69521  0.04849  0.43134  1.0000
  C   C1132     1.0  0.58375  0.24089  0.35598  1.0000
  H   H1970     1.0  0.49823  0.27114  0.37112  1.0000
  C   C1133     1.0  0.56742  0.25965  0.41540  1.0000
  H   H1971     1.0  0.61229  0.25713  0.39024  1.0000
  H   H1972     1.0  0.57284  0.24506  0.38759  1.0000
  H   H1973     1.0  0.85854  0.23951  0.26405  1.0000
  H   H1974     1.0  0.88472  0.30357  0.38701  1.0000
  H   H1975     1.0  0.84918  0.03917  0.24476  1.0000
  H   H1976     1.0  0.95676  0.26339  0.25476  1.0000
  H   H1977     1.0  0.55354  0.25672  0.45829  1.0000
  H   H1978     1.0  0.69051  0.06665  0.45254  1.0000
  H   H1979     1.0  0.54019  0.27605  0.38688  1.0000
  H   H1980     1.0  0.53860  0.25155  0.37227  1.0000
  H   H1981     1.0  0.61360  0.29342  0.40690  1.0000
  H   H1982     1.0  0.58276  0.30033  0.39944  1.0000
  H   H1983     1.0  0.71241  0.31557  0.38389  1.0000
  H   H1984     1.0  0.57352  0.22291  0.36601  1.0000
  H   H1985     1.0  0.56546  0.24724  0.35186  1.0000
  H   H1986     1.0  0.87106  0.28000  0.27627  1.0000
  H   H1987     1.0  0.81615  0.01985  0.46796  1.0000
  C   C1134     1.0  0.58443  0.01062  0.31239  1.0000
  C   C1135     1.0  0.64818  0.08197  0.41597  1.0000
  H   H1988     1.0  0.57609  0.24277  0.41975  1.0000
  C   C1136     1.0  0.48964  0.14125  0.45254  1.0000
  H   H1989     1.0  0.89774  0.29583  0.29979  1.0000
  H   H1990     1.0  0.61617  0.06631  0.32480  1.0000
  H   H1991     1.0  0.69085  0.02639  0.43805  1.0000
  H   H1992     1.0  0.85080  0.31200  0.36889  1.0000
  H   H1993     1.0  0.75235  0.26537  0.35054  1.0000
  C   C1137     1.0  0.90362  0.31219  0.28917  1.0000
  C   C1138     1.0  0.63099  0.05845  0.31744  1.0000
  H   H1994     1.0  0.94105  0.29254  0.27127  1.0000
  H   H1995     1.0  0.78652  0.21205  0.37091  1.0000
  H   H1996     1.0  0.84655  0.23689  0.46642  1.0000
  H   H1997     1.0  0.63537  0.03420  0.42151  1.0000
  C   C1139     1.0  0.82663  0.30576  0.39213  1.0000
  C   C1140     1.0  0.77327  0.29034  0.40423  1.0000
  H   H1998     1.0  0.94341  0.23894  0.28185  1.0000
  H   H1999     1.0  0.67363  0.08916  0.41328  1.0000
  C   C1141     1.0  0.93590  0.22454  0.27226  1.0000
  C   C1142     1.0  0.76648  0.25635  0.40919  1.0000
  H   H2000     1.0  0.53478  0.15404  0.48062  1.0000
  H   H2001     1.0  0.78257  0.29214  0.33628  1.0000
  H   H2002     1.0  0.52519  0.28477  0.35369  1.0000
  C   C1143     1.0  0.77792  0.27961  0.34804  1.0000
  C   C1144     1.0  0.74283  0.24339  0.42363  1.0000
  C   C1145     1.0  0.89645  0.29495  0.27485  1.0000
  C   C1146     1.0  0.72686  0.32438  0.34491  1.0000
  H   H2003     1.0  0.78776  0.26633  0.37665  1.0000
  H   H2004     1.0  0.92865  0.29961  0.24529  1.0000
  N   N63       1.0  0.79527  0.30526  0.38956  1.0000
  H   H2005     1.0  0.78256  0.30292  0.41426  1.0000
  H   H2006     1.0  0.56466  0.27232  0.42515  1.0000
  H   H2007     1.0  0.83162  0.05723  0.25735  1.0000
  H   H2008     1.0  0.86113  0.21220  0.24223  1.0000
  H   H2009     1.0  0.64598  0.09677  0.39216  1.0000
  C   C1147     1.0  0.72134  0.32675  0.37226  1.0000
  H   H2010     1.0  0.50396  0.31496  0.44751  1.0000
  H   H2011     1.0  0.78806  0.25441  0.41205  1.0000
  H   H2012     1.0  0.75671  0.24150  0.39997  1.0000
  H   H2013     1.0  0.77777  0.31831  0.35868  1.0000
  H   H2014     1.0  0.64661  0.02272  0.46184  1.0000
  S   S277      1.0  0.82751  0.12896  0.47870  1.0000
  H   H2015     1.0  0.54399  0.22151  0.44951  1.0000
  H   H2016     1.0  0.51583  0.08664  0.37824  1.0000
  N   N64       1.0  0.64645  0.05464  0.44306  1.0000
  H   H2017     1.0  0.58412  0.31972  0.37288  1.0000
  H   H2018     1.0  0.81644  0.18551  0.26286  1.0000
  C   C1148     1.0  0.83508  0.17744  0.26086  1.0000
  H   H2019     1.0  0.67476  0.09440  0.46711  1.0000
  H   H2020     1.0  0.63645  0.05640  0.39592  1.0000
  H   H2021     1.0  0.71919  0.23979  0.42074  1.0000
  H   H2022     1.0  0.74179  0.22090  0.42819  1.0000
  H   H2023     1.0  0.64439  0.10131  0.42036  1.0000
  H   H2024     1.0  0.61243  0.06950  0.45264  1.0000
  H   H2025     1.0  0.64844  0.10025  0.44481  1.0000
  H   H2026     1.0  0.60878  0.07112  0.40259  1.0000
  C   C1149     1.0  0.63819  0.07711  0.45149  1.0000
  C   C1150     1.0  0.63317  0.05263  0.42771  1.0000
  H   H2027     1.0  0.51456  0.23553  0.45316  1.0000
  S   S278      1.0  0.75005  0.14883  0.47722  1.0000
  H   H2028     1.0  0.91229  0.26198  0.28409  1.0000
  H   H2029     1.0  0.56904  0.23682  0.48214  1.0000
  H   H2030     1.0  0.68514  0.04386  0.42021  1.0000
  C   C1151     1.0  0.93346  0.24386  0.25790  1.0000
  H   H2031     1.0  0.62153  0.28473  0.34930  1.0000
  H   H2032     1.0  0.57720  0.14098  0.47686  1.0000
  H   H2033     1.0  0.83830  0.13786  0.34699  1.0000
  H   H2034     1.0  0.91324  0.20468  0.27619  1.0000
  H   H2035     1.0  0.55225  0.10108  0.38650  1.0000
  C   C1152     1.0  0.61673  0.02338  0.31866  1.0000
  H   H2036     1.0  0.51580  0.11463  0.45604  1.0000
  C   C1153     1.0  0.87647  0.23028  0.26400  1.0000
  H   H2037     1.0  0.65450  0.06707  0.32140  1.0000
  H   H2038     1.0  0.80672  0.10477  0.34152  1.0000
  H   H2039     1.0  0.96802  0.24689  0.46827  1.0000
  H   H2040     1.0  0.53135  0.00991  0.30531  1.0000
  C   C1154     1.0  0.75603  0.25387  0.47774  1.0000
  C   C1155     1.0  0.78139  0.28609  0.37664  1.0000
  H   H2041     1.0  0.81471  0.31661  0.35681  1.0000
  C   C1156     1.0  0.96020  0.21203  0.26872  1.0000
  H   H2042     1.0  0.58585  0.04147  0.24999  1.0000
  C   C1157     1.0  0.55875  0.00210  0.37201  1.0000
  C   C1158     1.0  0.91036  0.27573  0.24510  1.0000
  C   C1159     1.0  0.85409  0.32412  0.37942  1.0000
  C   C1160     1.0  0.72386  0.24492  0.47217  1.0000
  C   C1161     1.0  0.59656  0.02737  0.24461  1.0000
  C   C1162     1.0  0.69082  0.01229  0.23924  1.0000
  H   H2043     1.0  0.58163  0.30212  0.35563  1.0000
  C   C1163     1.0  0.65108  0.00057  0.38018  1.0000
  H   H2044     1.0  0.79603  0.03051  0.23852  1.0000
  C   C1164     1.0  0.48710  0.16418  0.44270  1.0000
  C   C1165     1.0  0.63402  0.31403  0.37435  1.0000
  H   H2045     1.0  0.82840  0.32720  0.42913  1.0000
  C   C1166     1.0  0.88514  0.32672  0.38465  1.0000
  H   H2046     1.0  0.90178  0.31235  0.26472  1.0000
  H   H2047     1.0  0.80820  0.01052  0.44859  1.0000
  H   H2048     1.0  0.48802  0.06264  0.46440  1.0000
  H   H2049     1.0  0.63013  0.32758  0.38344  1.0000
  C   C1167     1.0  0.52293  0.33046  0.45316  1.0000
  H   H2050     1.0  0.66418  0.32826  0.35229  1.0000
  H   H2051     1.0  0.92868  0.32845  0.28818  1.0000
  H   H2052     1.0  0.88952  0.32562  0.29026  1.0000
  C   C1168     1.0  0.80229  0.00135  0.46102  1.0000
  Fe  Fe144     1.0  0.85925  0.16570  0.49258  1.0000
  S   S279      1.0  0.82119  0.17868  0.50119  1.0000
  H   H2053     1.0  0.87471  0.13892  0.54516  1.0000
  Fe  Fe145     1.0  0.81680  0.09590  0.50052  1.0000
  S   S280      1.0  0.77633  0.10593  0.50966  1.0000
  H   H2054     1.0  0.84177  0.11851  0.71327  1.0000
  Fe  Fe146     1.0  0.81138  0.14306  0.52136  1.0000
  S   S281      1.0  0.80888  0.15808  0.54551  1.0000
  S   S282      1.0  0.85135  0.13170  0.51347  1.0000
  H   H2055     1.0  0.58688  0.16152  0.63944  1.0000
  Fe  Fe147     1.0  0.74782  0.12495  0.65864  1.0000
  S   S283      1.0  0.70640  0.09619  0.67587  1.0000
  S   S284      1.0  0.79296  0.16138  0.66528  1.0000
  Fe  Fe148     1.0  0.71590  0.09529  0.63078  1.0000
  S   S285      1.0  0.67192  0.06458  0.64622  1.0000
  S   S286      1.0  0.71270  0.08630  0.60539  1.0000
  Fe  Fe149     1.0  0.67828  0.10590  0.65828  1.0000
  S   S287      1.0  0.64080  0.12110  0.66631  1.0000
  Fe  Fe150     1.0  0.70343  0.05712  0.66247  1.0000
  C   C1169     1.0  0.51021  0.08562  0.60660  1.0000
  S   S288      1.0  0.71997  0.13757  0.64182  1.0000
  S   S289      1.0  0.74703  0.08494  0.64627  1.0000
  H   H2056     1.0  0.49868  0.09599  0.49048  1.0000
  H   H2057     1.0  0.78425  0.00909  0.57283  1.0000
  H   H2058     1.0  0.75833  0.15404  0.72059  1.0000
  H   H2059     1.0  0.82057  0.10873  0.55774  1.0000
  H   H2060     1.0  0.83067  0.06685  0.71635  1.0000
  H   H2061     1.0  0.67574  0.27442  0.70522  1.0000
  S   S290      1.0  0.49927  0.04877  0.65438  1.0000
  C   C1170     1.0  0.79720  0.17176  0.68433  1.0000
  C   C1171     1.0  0.77325  0.15675  0.69639  1.0000
  C   C1172     1.0  0.77721  0.16546  0.71141  1.0000
  C   C1173     1.0  0.80513  0.18916  0.71460  1.0000
  C   C1174     1.0  0.82907  0.20444  0.70255  1.0000
  C   C1175     1.0  0.82509  0.19571  0.68746  1.0000
  H   H2062     1.0  0.75161  0.13853  0.69412  1.0000
  H   H2063     1.0  0.48741  0.19259  0.50032  1.0000
  H   H2064     1.0  0.85075  0.22265  0.70487  1.0000
  H   H2065     1.0  0.84373  0.20748  0.67817  1.0000
  C   C1176     1.0  0.81964  0.01577  0.50324  1.0000
  H   H2066     1.0  0.95587  0.25799  0.56440  1.0000
  H   H2067     1.0  0.61262  0.14707  0.61793  1.0000
  C   C1177     1.0  0.60137  0.10017  0.66337  1.0000
  C   C1178     1.0  0.57928  0.11102  0.66827  1.0000
  C   C1179     1.0  0.54780  0.09534  0.66573  1.0000
  C   C1180     1.0  0.53823  0.06863  0.65830  1.0000
  C   C1181     1.0  0.56022  0.05759  0.65355  1.0000
  C   C1182     1.0  0.59172  0.07337  0.65601  1.0000
  H   H2068     1.0  0.58660  0.13179  0.67395  1.0000
  H   H2069     1.0  0.53096  0.10394  0.66949  1.0000
  H   H2070     1.0  0.55294  0.03703  0.64771  1.0000
  H   H2071     1.0  0.60862  0.06513  0.65196  1.0000
  H   H2072     1.0  0.79458  0.08257  0.66955  1.0000
  S   S291      1.0  0.69088  0.00775  0.67194  1.0000
  C   C1183     1.0  0.78194  0.13754  0.56201  1.0000
  C   C1184     1.0  0.78857  0.14768  0.57664  1.0000
  C   C1185     1.0  0.76784  0.13213  0.59007  1.0000
  C   C1186     1.0  0.74011  0.10634  0.58897  1.0000
  C   C1187     1.0  0.73358  0.09608  0.57434  1.0000
  C   C1188     1.0  0.75437  0.11155  0.56093  1.0000
  H   H2073     1.0  0.80985  0.16774  0.57761  1.0000
  H   H2074     1.0  0.77319  0.14028  0.60123  1.0000
  H   H2075     1.0  0.71213  0.07621  0.57338  1.0000
  H   H2076     1.0  0.74885  0.10373  0.54974  1.0000
  C   C1189     1.0  0.95350  0.27185  0.50819  1.0000
  C   C1190     1.0  0.93009  0.24571  0.50304  1.0000
  H   H2077     1.0  0.65569  0.13113  0.61173  1.0000
  H   H2078     1.0  0.85832  0.07070  0.55921  1.0000
  H   H2079     1.0  0.90824  0.23269  0.51028  1.0000
  N   N65       1.0  0.54704  0.19141  0.49503  1.0000
  H   H2080     1.0  0.79109  0.04787  0.60247  1.0000
  H   H2081     1.0  0.64695  0.09093  0.61490  1.0000
  C   C1191     1.0  0.57798  0.19196  0.49865  1.0000
  C   C1192     1.0  0.53344  0.20187  0.50850  1.0000
  H   H2082     1.0  0.71177  0.19582  0.67158  1.0000
  C   C1193     1.0  0.48866  0.05161  0.60659  1.0000
  C   C1194     1.0  0.60326  0.22336  0.50195  1.0000
  H   H2083     1.0  0.79821  0.22839  0.49472  1.0000
  C   C1195     1.0  0.83921  0.10290  0.56160  1.0000
  H   H2084     1.0  0.49622  0.23122  0.51915  1.0000
  H   H2085     1.0  0.69935  0.24110  0.71530  1.0000
  C   C1196     1.0  0.98249  0.32181  0.56615  1.0000
  H   H2086     1.0  0.49352  0.27692  0.49654  1.0000
  C   C1197     1.0  0.76901  0.03739  0.59710  1.0000
  H   H2087     1.0  0.54938  0.14556  0.59665  1.0000
  C   C1198     1.0  0.63939  0.10884  0.61826  1.0000
  C   C1199     1.0  0.72239  0.19579  0.69553  1.0000
  H   H2088     1.0  0.57474  0.17595  0.50912  1.0000
  H   H2089     1.0  0.54009  0.19474  0.51960  1.0000
  H   H2090     1.0  0.54375  0.22744  0.50747  1.0000
  H   H2091     1.0  0.56387  0.19468  0.64945  1.0000
  C   C1200     1.0  0.64467  0.07944  0.70670  1.0000
  H   H2092     1.0  0.54419  0.12895  0.50346  1.0000
  H   H2093     1.0  0.49973  0.04044  0.59901  1.0000
  H   H2094     1.0  0.59477  0.23229  0.51182  1.0000
  H   H2095     1.0  0.79521  0.00153  0.54726  1.0000
  H   H2096     1.0  0.84113  0.28369  0.51276  1.0000
  C   C1201     1.0  0.84821  0.26539  0.50957  1.0000
  H   H2097     1.0  0.59924  0.05535  0.70011  1.0000
  H   H2098     1.0  0.93522  0.25882  0.54798  1.0000
  H   H2099     1.0  0.94564  0.32389  0.67976  1.0000
  C   C1202     1.0  0.79992  0.08492  0.69399  1.0000
  Fe  Fe151     1.0  0.78896  0.14064  0.48859  1.0000
  C   C1203     1.0  0.56835  0.16407  0.63322  1.0000
  H   H2100     1.0  0.61013  0.24056  0.49172  1.0000
  H   H2101     1.0  0.81041  0.06822  0.69410  1.0000
  H   H2102     1.0  0.75866  0.06026  0.71063  1.0000
  H   H2103     1.0  0.70607  0.03841  0.69997  1.0000
  H   H2104     1.0  0.82227  0.01141  0.71609  1.0000
  C   C1204     1.0  0.81271  0.25136  0.48813  1.0000
  H   H2105     1.0  0.76086  0.01394  0.53407  1.0000
  H   H2106     1.0  0.70198  0.20004  0.69943  1.0000
  H   H2107     1.0  0.82465  0.03138  0.53433  1.0000
  H   H2108     1.0  0.64559  0.10738  0.48713  1.0000
  H   H2109     1.0  0.50857  0.01357  0.68716  1.0000
  C   C1205     1.0  0.74745  0.26956  0.70413  1.0000
  H   H2110     1.0  0.58646  0.00632  0.64725  1.0000
  H   H2111     1.0  0.95713  0.31500  0.54571  1.0000
  H   H2112     1.0  0.81893  0.10848  0.69138  1.0000
  H   H2113     1.0  0.55989  0.30610  0.50939  1.0000
  H   H2114     1.0  0.80129  0.28145  0.71383  1.0000
  C   C1206     1.0  0.81679  0.02319  0.54685  1.0000
  C   C1207     1.0  0.75649  0.02549  0.54399  1.0000
  C   C1208     1.0  0.70397  0.00337  0.71758  1.0000
  H   H2115     1.0  0.64619  0.02604  0.69920  1.0000
  C   C1209     1.0  0.54871  0.17323  0.64478  1.0000
  C   C1210     1.0  0.58618  0.13563  0.58556  1.0000
  H   H2116     1.0  0.87244  0.27160  0.51238  1.0000
  H   H2117     1.0  0.59006  0.11817  0.63318  1.0000
  H   H2118     1.0  0.60467  0.02520  0.67152  1.0000
  H   H2119     1.0  0.85599  0.24478  0.48985  1.0000
  H   H2120     1.0  0.58715  0.16751  0.60159  1.0000
  C   C1211     1.0  0.60595  0.10038  0.61452  1.0000
  H   H2121     1.0  0.76126  0.05520  0.68215  1.0000
  H   H2122     1.0  0.86206  0.30658  0.68000  1.0000
  H   H2123     1.0  0.76885  0.09545  0.67992  1.0000
  C   C1212     1.0  0.75351  0.22543  0.69338  1.0000
  C   C1213     1.0  0.78026  0.08198  0.70956  1.0000
  C   C1214     1.0  0.58718  0.15553  0.57089  1.0000
  H   H2124     1.0  0.55237  0.07933  0.60462  1.0000
  H   H2125     1.0  0.56543  0.03210  0.68517  1.0000
  H   H2126     1.0  0.70895  0.01355  0.53895  1.0000
  C   C1215     1.0  0.70181  0.01463  0.70257  1.0000
  H   H2127     1.0  0.88967  0.12742  0.56182  1.0000
  C   C1216     1.0  0.78684  0.02688  0.72366  1.0000
  H   H2128     1.0  0.74836  0.00843  0.55441  1.0000
  N   N66       1.0  0.76030  0.24588  0.70635  1.0000
  H   H2129     1.0  0.49732  0.09538  0.61390  1.0000
  H   H2130     1.0  0.63533  0.07432  0.71914  1.0000
  C   C1217     1.0  0.63293  0.22045  0.50584  1.0000
  H   H2131     1.0  0.96274  0.32512  0.57208  1.0000
  H   H2132     1.0  0.51430  0.09675  0.59456  1.0000
  C   C1218     1.0  0.59349  0.12342  0.62036  1.0000
  H   H2133     1.0  0.60584  0.09919  0.60192  1.0000
  N   N67       1.0  0.56380  0.12254  0.61457  1.0000
  H   H2134     1.0  0.80409  0.26748  0.49304  1.0000
  H   H2135     1.0  0.75227  0.24730  0.49045  1.0000
  C   C1219     1.0  0.60956  0.00574  0.67593  1.0000
  H   H2136     1.0  0.84956  0.08362  0.54129  1.0000
  H   H2137     1.0  0.75696  0.28335  0.69267  1.0000
  H   H2138     1.0  0.57962  0.18331  0.62386  1.0000
  H   H2139     1.0  0.80614  0.29552  0.68491  1.0000
  H   H2140     1.0  0.72377  0.17877  0.70437  1.0000
  H   H2141     1.0  0.62797  0.20409  0.51638  1.0000
  H   H2142     1.0  0.78052  0.07090  0.55140  1.0000
  C   C1220     1.0  0.52625  0.15919  0.49186  1.0000
  H   H2143     1.0  0.81710  0.03905  0.57875  1.0000
  C   C1221     1.0  0.84899  0.29598  0.69157  1.0000
  N   N68       1.0  0.79688  0.08415  0.72383  1.0000
  H   H2144     1.0  0.60044  0.18029  0.57218  1.0000
  H   H2145     1.0  0.81185  0.26162  0.68173  1.0000
  H   H2146     1.0  0.77207  0.10044  0.70835  1.0000
  H   H2147     1.0  0.53734  0.15494  0.65462  1.0000
  C   C1222     1.0  0.57093  0.14373  0.59983  1.0000
  C   C1223     1.0  0.54770  0.13378  0.62668  1.0000
  C   C1224     1.0  0.70150  0.28367  0.70515  1.0000
  H   H2148     1.0  0.71262  0.30062  0.69475  1.0000
  C   C1225     1.0  0.62174  0.02366  0.70140  1.0000
  H   H2149     1.0  0.75186  0.03698  0.57507  1.0000
  H   H2150     1.0  0.70986  0.01858  0.72655  1.0000
  H   H2151     1.0  0.78380  0.07194  0.57777  1.0000
  H   H2152     1.0  0.57320  0.11132  0.58350  1.0000
  H   H2153     1.0  0.92335  0.31092  0.70745  1.0000
  H   H2154     1.0  0.88635  0.00701  0.49337  1.0000
  H   H2155     1.0  0.52837  0.13781  0.62200  1.0000
  C   C1226     1.0  0.55113  0.00708  0.68752  1.0000
  H   H2156     1.0  0.53661  0.11589  0.63676  1.0000
  C   C1227     1.0  0.98228  0.28914  0.49906  1.0000
  H   H2157     1.0  0.64269  0.21239  0.49600  1.0000
  H   H2158     1.0  0.94927  0.27866  0.51937  1.0000
  C   C1228     1.0  0.71607  0.18084  0.68049  1.0000
  H   H2159     1.0  0.86620  0.04715  0.49371  1.0000
  H   H2160     1.0  0.53625  0.07534  0.62394  1.0000
  H   H2161     1.0  0.88491  0.15743  0.72548  1.0000
  H   H2162     1.0  0.92584  0.31410  0.50196  1.0000
  H   H2163     1.0  0.72387  0.04501  0.55056  1.0000
  C   C1229     1.0  0.74795  0.22663  0.72184  1.0000
  H   H2164     1.0  0.75472  0.23888  0.68222  1.0000
  H   H2165     1.0  0.79810  0.06536  0.53421  1.0000
  C   C1230     1.0  0.78700  0.05390  0.54604  1.0000
  C   C1231     1.0  0.54162  0.08994  0.61267  1.0000
  C   C1232     1.0  0.81007  0.06055  0.72511  1.0000
  H   H2166     1.0  0.51895  0.13898  0.51617  1.0000
  H   H2167     1.0  0.81538  0.13378  0.71928  1.0000
  H   H2168     1.0  0.49418  0.08438  0.51098  1.0000
  H   H2169     1.0  0.59895  0.14981  0.56090  1.0000
  C   C1233     1.0  0.52277  0.13305  0.50435  1.0000
  C   C1234     1.0  0.77979  0.07911  0.68064  1.0000
  H   H2170     1.0  0.53035  0.17737  0.63910  1.0000
  H   H2171     1.0  0.85834  0.17396  0.73131  1.0000
  C   C1235     1.0  0.79537  0.26298  0.70603  1.0000
  H   H2172     1.0  0.63068  0.06377  0.68483  1.0000
  H   H2173     1.0  0.61069  0.14024  0.58717  1.0000
  H   H2174     1.0  0.86258  0.28428  0.48574  1.0000
  H   H2175     1.0  0.63529  0.01441  0.67329  1.0000
  H   H2176     1.0  0.64700  0.10270  0.70249  1.0000
  C   C1236     1.0  0.77486  0.04667  0.57963  1.0000
  C   C1237     1.0  0.80257  0.00504  0.72535  1.0000
  H   H2177     1.0  0.83267  0.24336  0.51662  1.0000
  C   C1238     1.0  0.62252  0.05572  0.69726  1.0000
  C   C1239     1.0  0.72996  0.03438  0.54068  1.0000
  H   H2178     1.0  0.64100  0.11054  0.63083  1.0000
  C   C1240     1.0  0.96926  0.30368  0.55236  1.0000
  H   H2179     1.0  0.75228  0.04573  0.60235  1.0000
  H   H2180     1.0  0.59103  0.07694  0.62036  1.0000
  H   H2181     1.0  0.92548  0.27157  0.56573  1.0000
  C   C1241     1.0  0.79738  0.03459  0.57163  1.0000
  C   C1242     1.0  0.84024  0.07554  0.55371  1.0000
  C   C1243     1.0  0.50841  0.31883  0.51897  1.0000
  H   H2182     1.0  0.70802  0.29543  0.71573  1.0000
  H   H2183     1.0  0.86832  0.15074  0.56370  1.0000
  H   H2184     1.0  0.70353  0.24596  0.69433  1.0000
  C   C1244     1.0  0.86997  0.13165  0.55780  1.0000
  H   H2185     1.0  0.73608  0.17633  0.67592  1.0000
  C   C1245     1.0  0.84674  0.26189  0.49231  1.0000
  H   H2186     1.0  0.85312  0.31453  0.69920  1.0000
  C   C1246     1.0  0.49734  0.18975  0.51107  1.0000
  H   H2187     1.0  0.83538  0.09737  0.57437  1.0000
  H   H2188     1.0  0.77187  0.21683  0.69159  1.0000
  H   H2189     1.0  0.61531  0.01853  0.71414  1.0000
  H   H2190     1.0  0.85835  0.28000  0.69643  1.0000
  H   H2191     1.0  0.75567  0.28656  0.71269  1.0000
  C   C1247     1.0  0.71155  0.25737  0.70484  1.0000
  C   C1248     1.0  0.93504  0.23643  0.48859  1.0000
  H   H2192     1.0  0.73674  0.05069  0.53002  1.0000
  C   C1249     1.0  0.85084  0.02351  0.49785  1.0000
  C   C1250     1.0  0.81414  0.27872  0.69002  1.0000
  H   H2193     1.0  0.77768  0.02461  0.71223  1.0000
  H   H2194     1.0  0.65079  0.24324  0.50798  1.0000
  H   H2195     1.0  0.69504  0.15859  0.68267  1.0000
  H   H2196     1.0  0.80536  0.24728  0.71059  1.0000
  S   S292      1.0  0.80344  0.04346  0.50352  1.0000
  H   H2197     1.0  0.86531  0.03280  0.55078  1.0000
  H   H2198     1.0  0.50249  0.15688  0.49024  1.0000
  H   H2199     1.0  0.50739  0.29573  0.52253  1.0000
  N   N69       1.0  0.80994  0.04692  0.55489  1.0000
  H   H2200     1.0  0.66820  0.07958  0.70551  1.0000
  H   H2201     1.0  0.75768  0.20929  0.72288  1.0000
  H   H2202     1.0  0.56313  0.15118  0.56838  1.0000
  H   H2203     1.0  0.72233  0.21297  0.72286  1.0000
  C   C1251     1.0  0.82340  0.11580  0.72273  1.0000
  H   H2204     1.0  0.75883  0.01200  0.59969  1.0000
  H   H2205     1.0  0.58826  0.18392  0.48899  1.0000
  C   C1252     1.0  0.84156  0.01382  0.55342  1.0000
  C   C1253     1.0  0.49553  0.10282  0.50218  1.0000
  C   C1254     1.0  0.94499  0.27107  0.55803  1.0000
  H   H2206     1.0  0.76675  0.01866  0.73280  1.0000
  H   H2207     1.0  0.49590  0.20331  0.53438  1.0000
  H   H2208     1.0  0.52100  0.01239  0.70614  1.0000
  H   H2209     1.0  0.74488  0.10083  0.73002  1.0000
  H   H2210     1.0  0.52835  0.32557  0.49431  1.0000
  H   H2211     1.0  0.83640  0.00755  0.56613  1.0000
  H   H2212     1.0  0.62281  0.00237  0.64421  1.0000
  S   S293      1.0  0.80886  0.19780  0.73393  1.0000
  C   C1255     1.0  0.86221  0.00059  0.49765  1.0000
  H   H2213     1.0  0.53411  0.32495  0.70461  1.0000
  C   C1256     1.0  0.56435  0.33071  0.50885  1.0000
  H   H2214     1.0  0.48643  0.16488  0.51534  1.0000
  C   C1257     1.0  0.51898  0.00215  0.69501  1.0000
  C   C1258     1.0  0.48728  0.20636  0.52315  1.0000
  Fe  Fe152     1.0  0.87111  0.17289  0.90351  1.0000
  S   S294      1.0  0.85587  0.21126  0.90407  1.0000
  S   S295      1.0  0.83026  0.12585  0.90659  1.0000
  S   S296      1.0  0.92926  0.25858  0.90134  1.0000
  Fe  Fe153     1.0  0.89178  0.23034  0.92051  1.0000
  S   S297      1.0  0.88183  0.25297  0.94100  1.0000
  Fe  Fe154     1.0  0.89439  0.23584  0.88475  1.0000
  S   S298      1.0  0.88945  0.26594  0.86475  1.0000
  S   S299      1.0  0.90467  0.19053  0.92126  1.0000
  S   S300      1.0  0.90715  0.19614  0.88294  1.0000
  H   H2215     1.0  0.75300  0.09662  0.76466  1.0000
  C   C1259     1.0  0.64949  0.30023  0.79998  1.0000
  H   H2216     1.0  0.97403  0.17256  0.85287  1.0000
  H   H2217     1.0  0.89532  0.09051  0.93591  1.0000
  H   H2218     1.0  0.75520  0.02385  0.80632  1.0000
  Fe  Fe155     1.0  0.84014  0.24200  0.74345  1.0000
  H   H2219     1.0  0.82466  0.25815  0.93442  1.0000
  Fe  Fe156     1.0  0.86778  0.26074  0.77409  1.0000
  N   N70       1.0  0.77417  0.04121  0.85861  1.0000
  S   S301      1.0  0.87964  0.23663  0.79451  1.0000
  Fe  Fe157     1.0  0.82922  0.29162  0.75967  1.0000
  H   H2220     1.0  0.49740  0.28875  0.95793  1.0000
  Fe  Fe158     1.0  0.89425  0.30546  0.74443  1.0000
  S   S302      1.0  0.81897  0.24269  0.76729  1.0000
  S   S303      1.0  0.88865  0.25699  0.75062  1.0000
  H   H2221     1.0  0.79871  0.09325  0.93665  1.0000
  N   N71       1.0  0.53578  0.31011  0.86283  1.0000
  C   C1260     1.0  0.96613  0.30024  0.93853  1.0000
  C   C1261     1.0  0.82572  0.27629  0.91120  1.0000
  C   C1262     1.0  0.81562  0.14920  0.96158  1.0000
  H   H2222     1.0  0.96041  0.30471  0.95040  1.0000
  H   H2223     1.0  0.81804  0.26263  0.95925  1.0000
  S   S304      1.0  0.83629  0.99857  0.89750  1.0000
  H   H2224     1.0  0.84220  0.08025  0.94604  1.0000
  H   H2225     1.0  0.85181  0.02333  0.86398  1.0000
  C   C1263     1.0  0.58371  0.31816  0.96388  1.0000
  H   H2226     1.0  0.54910  0.30813  0.81347  1.0000
  H   H2227     1.0  0.48630  0.28964  0.85954  1.0000
  H   H2228     1.0  0.84980  0.10798  0.74107  1.0000
  H   H2229     1.0  0.77757  0.25248  0.96057  1.0000
  H   H2230     1.0  0.97971  0.24819  0.86275  1.0000
  H   H2231     1.0  0.80575  0.20020  0.93415  1.0000
  C   C1264     1.0  0.96639  0.19022  0.85652  1.0000
  C   C1265     1.0  0.75415  0.04101  0.87302  1.0000
  C   C1266     1.0  0.88603  0.25701  0.84536  1.0000
  C   C1267     1.0  0.88674  0.23003  0.84077  1.0000
  C   C1268     1.0  0.88460  0.22415  0.82518  1.0000
  C   C1269     1.0  0.88138  0.24493  0.81404  1.0000
  C   C1270     1.0  0.88066  0.27189  0.81864  1.0000
  C   C1271     1.0  0.88311  0.27792  0.83421  1.0000
  H   H2232     1.0  0.88880  0.21366  0.84923  1.0000
  H   H2233     1.0  0.88522  0.20326  0.82172  1.0000
  H   H2234     1.0  0.87832  0.28812  0.81019  1.0000
  H   H2235     1.0  0.88251  0.29884  0.83765  1.0000
  C   C1272     1.0  0.88229  0.24055  0.96050  1.0000
  C   C1273     1.0  0.87396  0.25518  0.97224  1.0000
  C   C1274     1.0  0.89059  0.21658  0.96456  1.0000
  H   H2236     1.0  0.86825  0.27420  0.96922  1.0000
  H   H2237     1.0  0.89762  0.20555  0.95561  1.0000
  C   C1275     1.0  0.83475  0.03388  0.90043  1.0000
  C   C1276     1.0  0.80689  0.03495  0.90609  1.0000
  C   C1277     1.0  0.80605  0.06335  0.90793  1.0000
  C   C1278     1.0  0.83304  0.09093  0.90425  1.0000
  C   C1279     1.0  0.86097  0.08997  0.89860  1.0000
  C   C1280     1.0  0.86180  0.06148  0.89673  1.0000
  H   H2238     1.0  0.78431  0.06393  0.91216  1.0000
  H   H2239     1.0  0.88186  0.11111  0.89561  1.0000
  H   H2240     1.0  0.88343  0.06083  0.89232  1.0000
  H   H2241     1.0  0.63614  0.31352  0.80344  1.0000
  H   H2242     1.0  0.68798  0.25177  0.74537  1.0000
  H   H2243     1.0  0.71957  0.07160  0.75572  1.0000
  H   H2244     1.0  0.69324  0.24331  0.76517  1.0000
  H   H2245     1.0  0.84052  0.09968  0.98013  1.0000
  C   C1281     1.0  0.86130  0.10119  0.94929  1.0000
  H   H2246     1.0  0.52559  0.30840  0.78903  1.0000
  H   H2247     1.0  0.97650  0.21395  0.83383  1.0000
  H   H2248     1.0  0.65816  0.26237  0.81120  1.0000
  H   H2249     1.0  0.77725  0.17554  0.94974  1.0000
  C   C1282     1.0  0.88990  0.20698  0.98028  1.0000
  H   H2250     1.0  0.82980  0.04288  0.84354  1.0000
  C   C1283     1.0  0.82837  0.28057  0.92834  1.0000
  H   H2251     1.0  0.55375  0.29934  0.84167  1.0000
  C   C1284     1.0  0.77948  0.31854  0.77840  1.0000
  H   H2252     1.0  0.82956  0.29818  0.90440  1.0000
  H   H2253     1.0  0.93788  0.32148  0.92909  1.0000
  H   H2254     1.0  0.74147  0.27217  0.96667  1.0000
  H   H2255     1.0  0.97206  0.19436  0.86853  1.0000
  C   C1285     1.0  0.80031  0.27146  0.96223  1.0000
  H   H2256     1.0  0.88384  0.11711  0.92560  1.0000
  H   H2257     1.0  0.76922  0.10353  0.94552  1.0000
  C   C1286     1.0  0.86701  0.15651  0.73473  1.0000
  H   H2258     1.0  0.90994  0.12978  0.94033  1.0000
  H   H2259     1.0  0.94827  0.32676  0.86429  1.0000
  C   C1287     1.0  0.98311  0.21977  0.84551  1.0000
  C   C1288     1.0  0.50556  0.27365  0.96472  1.0000
  C   C1289     1.0  0.80265  0.18799  0.94588  1.0000
  C   C1290     1.0  0.83883  0.12532  0.85818  1.0000
  H   H2260     1.0  0.60884  0.24195  0.79242  1.0000
  C   C1291     1.0  0.72427  0.01084  0.87810  1.0000
  H   H2261     1.0  0.74617  0.05970  0.87156  1.0000
  H   H2262     1.0  0.76940  0.06058  0.82576  1.0000
  N   N72       1.0  0.82459  0.12242  0.96262  1.0000
  C   C1292     1.0  0.80100  0.27541  0.97970  1.0000
  C   C1293     1.0  0.78130  0.08825  0.94681  1.0000
  C   C1294     1.0  0.71081  0.01024  0.89467  1.0000
  H   H2263     1.0  0.55661  0.24138  0.84324  1.0000
  H   H2264     1.0  0.80644  0.14920  0.93686  1.0000
  H   H2265     1.0  0.80253  0.07270  0.96473  1.0000
  H   H2266     1.0  0.73258  0.03299  0.84732  1.0000
  C   C1295     1.0  0.97055  0.26150  0.97172  1.0000
  H   H2267     1.0  0.74526  0.05324  0.93597  1.0000
  H   H2268     1.0  0.78181  0.08721  0.85007  1.0000
  H   H2269     1.0  0.78074  0.27182  0.93428  1.0000
  C   C1296     1.0  0.88932  0.11030  0.93704  1.0000
  C   C1297     1.0  0.64290  0.31500  0.77349  1.0000
  H   H2270     1.0  0.53212  0.24699  0.95807  1.0000
  C   C1298     1.0  0.79654  0.09243  0.96207  1.0000
  C   C1299     1.0  0.66560  0.27745  0.77873  1.0000
  H   H2271     1.0  0.70450  0.02987  0.89568  1.0000
  H   H2272     1.0  0.55272  0.26405  0.97855  1.0000
  H   H2273     1.0  0.66386  0.25753  0.78663  1.0000
  H   H2274     1.0  0.79009  0.03697  0.82690  1.0000
  H   H2275     1.0  0.55172  0.22319  0.80213  1.0000
  H   H2276     1.0  0.54619  0.29009  0.88349  1.0000
  C   C1300     1.0  0.60973  0.26274  0.78557  1.0000
  H   H2277     1.0  0.58050  0.28791  0.78438  1.0000
  H   H2278     1.0  0.95180  0.25697  0.82597  1.0000
  C   C1301     1.0  0.72617  0.30528  0.95741  1.0000
  H   H2279     1.0  0.85385  0.12593  0.84764  1.0000
  C   C1302     1.0  0.66282  0.26655  0.76234  1.0000
  H   H2280     1.0  0.50998  0.25221  0.90462  1.0000
  H   H2281     1.0  0.68974  0.29530  0.77910  1.0000
  H   H2282     1.0  0.70586  0.00872  0.87048  1.0000
  H   H2283     1.0  0.53176  0.25005  0.83072  1.0000
  H   H2284     1.0  0.77768  0.08938  0.97129  1.0000
  C   C1303     1.0  0.81802  0.09218  0.86489  1.0000
  H   H2285     1.0  0.84267  0.17900  0.94059  1.0000
  C   C1304     1.0  0.85063  0.12750  0.95012  1.0000
  H   H2286     1.0  0.81382  0.20533  0.95390  1.0000
  C   C1305     1.0  0.75292  0.02701  0.84643  1.0000
  N   N73       1.0  0.80635  0.29982  0.95153  1.0000
  H   H2287     1.0  0.84420  0.13120  0.93845  1.0000
  H   H2288     1.0  0.74665  0.23536  0.76139  1.0000
  H   H2289     1.0  0.67440  0.31687  0.79929  1.0000
  H   H2290     1.0  0.95285  0.27719  0.86941  1.0000
  C   C1306     1.0  0.79163  0.31409  0.79201  1.0000
  H   H2291     1.0  0.85417  0.13740  0.86691  1.0000
  C   C1307     1.0  0.96624  0.18923  0.94510  1.0000
  C   C1308     1.0  0.49265  0.32208  0.98079  1.0000
  C   C1309     1.0  0.64407  0.27537  0.81360  1.0000
  C   C1310     1.0  0.49686  0.23969  0.94300  1.0000
  C   C1311     1.0  0.69098  0.26062  0.75686  1.0000
  C   C1312     1.0  0.81461  0.02025  0.84998  1.0000
  S   S305      1.0  0.79226  0.31012  0.76057  1.0000
  H   H2292     1.0  0.60399  0.25557  0.77390  1.0000
  H   H2293     1.0  0.53395  0.31958  0.88681  1.0000
  C   C1313     1.0  0.80367  0.29110  0.93517  1.0000
  C   C1314     1.0  0.50943  0.31976  0.83909  1.0000
  H   H2294     1.0  0.80875  0.30466  0.79177  1.0000
  H   H2295     1.0  0.49936  0.25274  0.85378  1.0000
  H   H2296     1.0  0.96018  0.24089  0.94521  1.0000
  H   H2297     1.0  0.78601  0.01391  0.90913  1.0000
  H   H2298     1.0  0.54595  0.23310  0.78250  1.0000
  H   H2299     1.0  0.95173  0.26491  0.96632  1.0000
  H   H2300     1.0  0.80102  0.00434  0.84186  1.0000
  H   H2301     1.0  0.77547  0.99850  0.86729  1.0000
  C   C1315     1.0  0.97291  0.28998  0.79769  1.0000
  H   H2302     1.0  0.85095  0.00415  0.84688  1.0000
  C   C1316     1.0  0.78242  0.31228  0.95516  1.0000
  C   C1317     1.0  0.81775  0.16551  0.94523  1.0000
  H   H2303     1.0  0.75213  0.20557  0.75198  1.0000
  H   H2304     1.0  0.79159  0.14205  0.96746  1.0000
  H   H2305     1.0  0.54543  0.32983  0.95889  1.0000
  H   H2306     1.0  0.74287  0.00142  0.84857  1.0000
  H   H2307     1.0  0.64160  0.24470  0.76252  1.0000
  H   H2308     1.0  0.85260  0.29739  0.92927  1.0000
  H   H2309     1.0  0.72901  0.11202  0.75544  1.0000
  C   C1318     1.0  0.54660  0.28979  0.85404  1.0000
  N   N74       1.0  0.64189  0.28879  0.78442  1.0000
  C   C1319     1.0  0.79583  0.07436  0.85318  1.0000
  H   H2310     1.0  0.52325  0.24362  0.86639  1.0000
  H   H2311     1.0  0.70140  0.28816  0.95955  1.0000
  H   H2312     1.0  0.96447  0.32416  0.88209  1.0000
  C   C1320     1.0  0.52953  0.29962  0.88005  1.0000
  H   H2313     1.0  0.71283  0.28219  0.75575  1.0000
  C   C1321     1.0  0.53267  0.23960  0.84235  1.0000
  Fe  Fe159     1.0  0.93974  0.21742  0.90074  1.0000
  H   H2314     1.0  0.78040  0.25636  0.73693  1.0000
  H   H2315     1.0  0.76796  0.03903  0.94708  1.0000
  C   C1322     1.0  0.52336  0.25562  0.85501  1.0000
  H   H2316     1.0  0.80461  0.09325  0.87564  1.0000
  Fe  Fe160     1.0  0.50217  0.30963  0.75787  1.0000
  C   C1323     1.0  0.52100  0.26073  0.95263  1.0000
  C   C1324     1.0  0.78174  0.32205  0.80596  1.0000
  H   H2317     1.0  0.53247  0.24793  0.79845  1.0000
  C   C1325     1.0  0.50730  0.31177  0.85684  1.0000
  C   C1326     1.0  0.56231  0.32521  0.80390  1.0000
  H   H2318     1.0  0.81086  0.07654  0.84240  1.0000
  H   H2319     1.0  0.82445  0.13779  0.85528  1.0000
  H   H2320     1.0  0.79145  0.31883  0.81644  1.0000
  H   H2321     1.0  0.94819  0.23671  0.85149  1.0000
  H   H2322     1.0  0.83362  0.08122  0.86794  1.0000
  C   C1327     1.0  0.74542  0.01559  0.81860  1.0000
  H   H2323     1.0  0.56804  0.28959  0.85828  1.0000
  S   S306      1.0  0.84760  0.29016  0.73538  1.0000
  C   C1328     1.0  0.97773  0.27010  0.82471  1.0000
  H   H2324     1.0  0.73862  0.04870  0.95681  1.0000
  C   C1329     1.0  0.97412  0.24554  0.85064  1.0000
  H   H2325     1.0  0.87140  0.14906  0.95143  1.0000
  H   H2326     1.0  0.63925  0.30242  0.83183  1.0000
  H   H2327     1.0  0.78441  0.07628  0.74870  1.0000
  H   H2328     1.0  0.66139  0.28365  0.75363  1.0000
  H   H2329     1.0  0.83114  0.16795  0.96795  1.0000
  H   H2330     1.0  0.58015  0.29804  0.95756  1.0000
  H   H2331     1.0  0.84381  0.26904  0.90662  1.0000
  H   H2332     1.0  0.74217  0.27611  0.94595  1.0000
  H   H2333     1.0  0.61910  0.25894  0.81590  1.0000
  H   H2334     1.0  0.86848  0.09540  0.96043  1.0000
  H   H2335     1.0  0.71568  0.20928  0.75157  1.0000
  C   C1330     1.0  0.58264  0.27001  0.79228  1.0000
  H   H2336     1.0  0.80503  0.03129  0.87295  1.0000
  H   H2337     1.0  0.76812  0.04601  0.88303  1.0000
  C   C1331     1.0  0.65352  0.28997  0.82851  1.0000
  S   S307      1.0  0.87644  0.31021  0.76842  1.0000
  C   C1332     1.0  0.74762  0.28893  0.95619  1.0000
  H   H2338     1.0  0.63155  0.30649  0.76296  1.0000
  H   H2339     1.0  0.64969  0.27185  0.83806  1.0000
  C   C1333     1.0  0.55137  0.24171  0.79392  1.0000
  H   H2340     1.0  0.58638  0.27818  0.80387  1.0000
  H   H2341     1.0  0.51607  0.21492  0.84362  1.0000
  H   H2342     1.0  0.94071  0.18110  0.85629  1.0000
  H   H2343     1.0  0.82532  0.28924  0.98210  1.0000
  H   H2344     1.0  0.62871  0.32591  0.77896  1.0000
  H   H2345     1.0  0.81128  0.00544  0.73686  1.0000
  C   C1334     1.0  0.75971  0.10181  0.73942  1.0000
  C   C1335     1.0  0.75679  0.05526  0.94675  1.0000
  H   H2346     1.0  0.94706  0.27732  0.79954  1.0000
  C   C1336     1.0  0.49601  0.27581  0.88652  1.0000
  C   C1337     1.0  0.74139  0.22213  0.75120  1.0000
  H   H2347     1.0  0.80240  0.25829  0.90961  1.0000
  H   H2348     1.0  0.53869  0.27991  0.94453  1.0000
  C   C1338     1.0  0.76685  0.03691  0.82919  1.0000
  N   N75       1.0  0.52556  0.29086  0.97663  1.0000
  H   H2349     1.0  0.75357  0.05551  0.73805  1.0000
  H   H2350     1.0  0.59556  0.31633  0.97420  1.0000
  H   H2351     1.0  0.85545  0.31342  0.95387  1.0000
  H   H2352     1.0  0.95525  0.29523  0.84310  1.0000
  H   H2353     1.0  0.86035  0.14039  0.97799  1.0000
  C   C1339     1.0  0.49457  0.26422  0.90345  1.0000
  H   H2354     1.0  0.67866  0.30620  0.82703  1.0000
  C   C1340     1.0  0.73905  0.09495  0.75477  1.0000
  H   H2355     1.0  0.72797  0.01137  0.90292  1.0000
  H   H2356     1.0  0.94467  0.18649  0.95226  1.0000
  C   C1341     1.0  0.77380  0.07815  0.73792  1.0000
  H   H2357     1.0  0.97275  0.17059  0.94922  1.0000
  C   C1342     1.0  0.79188  0.02257  0.86297  1.0000
  H   H2358     1.0  0.50868  0.23262  0.93360  1.0000
  H   H2359     1.0  0.82378  0.12462  0.74728  1.0000
  C   C1343     1.0  0.75719  0.33067  0.77884  1.0000
  C   C1344     1.0  0.83620  0.00727  0.85650  1.0000
  C   C1345     1.0  0.55255  0.32011  0.96908  1.0000
  H   H2360     1.0  0.48759  0.25557  0.87999  1.0000
  H   H2361     1.0  0.72927  0.32008  0.94649  1.0000
  H   H2362     1.0  0.96477  0.23659  0.97247  1.0000
  H   H2363     1.0  0.87819  0.16248  0.74553  1.0000
  H   H2364     1.0  0.81926  0.06025  0.73647  1.0000
  H   H2365     1.0  0.96162  0.18689  0.93283  1.0000
  H   H2366     1.0  0.50135  0.32863  0.86286  1.0000
  H   H2367     1.0  0.89682  0.18880  0.98342  1.0000
  C   C1346     1.0  0.75496  0.24421  0.73636  1.0000
  H   H2368     1.0  0.73138  0.31975  0.96709  1.0000
  H   H2369     1.0  0.94895  0.27743  0.93619  1.0000
  C   C1347     1.0  0.96236  0.32407  0.92737  1.0000
  H   H2370     1.0  0.74483  0.26120  0.73639  1.0000
  H   H2371     1.0  0.96748  0.32068  0.91517  1.0000
  C   C1348     1.0  0.97849  0.29887  0.84682  1.0000
  C   C1349     1.0  0.83915  0.32432  0.95199  1.0000
  C   C1350     1.0  0.83695  0.12097  0.97804  1.0000
  C   C1351     1.0  0.96884  0.32594  0.86929  1.0000
  H   H2372     1.0  0.72173  0.01508  0.82024  1.0000
  H   H2373     1.0  0.50170  0.28358  0.91069  1.0000
  H   H2374     1.0  0.80486  0.31078  0.92716  1.0000
  H   H2375     1.0  0.98285  0.27531  0.79229  1.0000
  C   C1352     1.0  0.84005  0.12442  0.73751  1.0000
  C   C1353     1.0  0.54906  0.32515  0.79000  1.0000
  H   H2376     1.0  0.97892  0.31094  0.78956  1.0000
  H   H2377     1.0  0.50947  0.30029  0.83303  1.0000
  C   C1354     1.0  0.97384  0.29817  0.86464  1.0000
  H   H2378     1.0  0.77811  0.12554  0.73895  1.0000
  H   H2379     1.0  0.78476  0.32190  0.96644  1.0000
  H   H2380     1.0  0.97586  0.31431  0.81753  1.0000
  H   H2381     1.0  0.78599  0.28661  0.98369  1.0000
  S   S308      1.0  0.48883  0.29814  0.73405  1.0000
  H   H2382     1.0  0.73214  0.64592  0.16523  1.0000
  C   C1355     1.0  0.56530  0.56652  0.10517  1.0000
  S   S309      1.0  0.68580  0.60620  0.11936  1.0000
  Fe  Fe161     1.0  0.60514  0.62809  0.14961  1.0000
  S   S310      1.0  0.55224  0.60053  0.15200  1.0000
  S   S311      1.0  0.64045  0.61220  0.15745  1.0000
  Fe  Fe162     1.0  0.88154  0.62084  0.06275  1.0000
  Fe  Fe163     1.0  0.72522  0.35887  0.98703  1.0000
  S   S312      1.0  0.91889  0.61489  0.07589  1.0000
  Fe  Fe164     1.0  0.82236  0.58578  0.04747  1.0000
  S   S313      1.0  0.81979  0.62894  0.03742  1.0000
  S   S314      1.0  0.78457  0.53862  0.04511  1.0000
  H   H2383     1.0  0.74852  0.56359  0.10869  1.0000
  H   H2384     1.0  0.89157  0.51703  0.12346  1.0000
  C   C1356     1.0  0.81947  0.34798  0.00541  1.0000
  C   C1357     1.0  0.79615  0.59443  0.11215  1.0000
  S   S315      1.0  0.87330  0.60208  0.03971  1.0000
  S   S316      1.0  0.83042  0.60071  0.07133  1.0000
  H   H2385     1.0  0.84441  0.45646  0.03723  1.0000
  H   H2386     1.0  0.64576  0.55998  0.06636  1.0000
  H   H2387     1.0  0.81130  0.37683  0.03147  1.0000
  H   H2388     1.0  0.76260  0.40387  0.04785  1.0000
  C   C1358     1.0  0.50104  0.54583  0.15117  1.0000
  S   S317      1.0  0.71504  0.39410  0.99899  1.0000
  C   C1359     1.0  0.92857  0.62982  0.09369  1.0000
  H   H2389     1.0  0.62314  0.65613  0.21814  1.0000
  H   H2390     1.0  0.63023  0.52779  0.10811  1.0000
  H   H2391     1.0  0.96602  0.47268  0.11036  1.0000
  H   H2392     1.0  0.89041  0.53732  0.13992  1.0000
  C   C1360     1.0  0.95352  0.62735  0.10052  1.0000
  H   H2393     1.0  0.50851  0.51842  0.22820  1.0000
  N   N76       1.0  0.95314  0.54156  0.13336  1.0000
  H   H2394     1.0  0.54423  0.59802  0.10019  1.0000
  H   H2395     1.0  0.96666  0.61661  0.09471  1.0000
  C   C1361     1.0  0.78639  0.52018  0.02849  1.0000
  C   C1362     1.0  0.81375  0.53054  0.01827  1.0000
  C   C1363     1.0  0.81450  0.51539  0.00513  1.0000
  C   C1364     1.0  0.78783  0.49022  0.00195  1.0000
  C   C1365     1.0  0.76062  0.47948  0.01230  1.0000
  C   C1366     1.0  0.75999  0.49435  0.02558  1.0000
  H   H2396     1.0  0.83439  0.55006  0.02056  1.0000
  H   H2397     1.0  0.81169  0.61912  0.15357  1.0000
  H   H2398     1.0  0.73993  0.46003  0.00998  1.0000
  H   H2399     1.0  0.73878  0.48610  0.03350  1.0000
  C   C1367     1.0  0.71989  0.62535  0.10625  1.0000
  C   C1368     1.0  0.72813  0.60889  0.09547  1.0000
  C   C1369     1.0  0.75596  0.62322  0.08534  1.0000
  C   C1370     1.0  0.84803  0.43773  0.98909  1.0000
  H   H2400     1.0  0.71314  0.58487  0.09506  1.0000
  C   C1371     1.0  0.49875  0.49506  0.15801  1.0000
  H   H2401     1.0  0.77481  0.61106  0.01143  1.0000
  H   H2402     1.0  0.75925  0.35558  0.03531  1.0000
  C   C1372     1.0  0.53194  0.55990  0.15486  1.0000
  C   C1373     1.0  0.54586  0.54137  0.16056  1.0000
  C   C1374     1.0  0.52918  0.50912  0.16225  1.0000
  H   H2403     1.0  0.87703  0.59436  0.14818  1.0000
  H   H2404     1.0  0.93576  0.35590  0.03116  1.0000
  H   H2405     1.0  0.52670  0.53310  0.20865  1.0000
  H   H2406     1.0  0.56943  0.55190  0.16366  1.0000
  H   H2407     1.0  0.54010  0.49493  0.16665  1.0000
  Fe  Fe165     1.0  0.83171  0.64511  0.06075  1.0000
  H   H2408     1.0  0.81367  0.49268  0.06630  1.0000
  H   H2409     1.0  0.91717  0.51396  0.15196  1.0000
  H   H2410     1.0  0.75073  0.37199  0.01814  1.0000
  Fe  Fe166     1.0  0.66748  0.63340  0.13412  1.0000
  C   C1375     1.0  0.52857  0.48393  0.11869  1.0000
  C   C1376     1.0  0.54981  0.58699  0.11042  1.0000
  H   H2411     1.0  0.51461  0.44160  0.10762  1.0000
  H   H2412     1.0  0.74396  0.62522  0.14232  1.0000
  H   H2413     1.0  0.55394  0.54226  0.12827  1.0000
  H   H2414     1.0  0.54868  0.54921  0.09863  1.0000
  H   H2415     1.0  0.53029  0.47240  0.12982  1.0000
  H   H2416     1.0  0.84518  0.65253  0.14656  1.0000
  H   H2417     1.0  0.56566  0.60537  0.11680  1.0000
  H   H2418     1.0  0.82427  0.62061  0.99508  1.0000
  C   C1377     1.0  0.50568  0.45899  0.11011  1.0000
  H   H2419     1.0  0.76637  0.61346  0.12137  1.0000
  H   H2420     1.0  0.80000  0.60903  0.10108  1.0000
  H   H2421     1.0  0.89208  0.58131  0.12224  1.0000
  H   H2422     1.0  0.91434  0.34491  0.05030  1.0000
  C   C1378     1.0  0.96100  0.38241  0.04908  1.0000
  H   H2423     1.0  0.76762  0.54645  0.12091  1.0000
  H   H2424     1.0  0.49287  0.47814  0.21020  1.0000
  C   C1379     1.0  0.61474  0.54110  0.08779  1.0000
  C   C1380     1.0  0.82575  0.48767  0.05618  1.0000
  H   H2425     1.0  0.61455  0.55687  0.14181  1.0000
  H   H2426     1.0  0.65634  0.58431  0.08176  1.0000
  C   C1381     1.0  0.56108  0.50071  0.10898  1.0000
  H   H2427     1.0  0.85910  0.61851  0.12768  1.0000
  H   H2428     1.0  0.78202  0.45762  0.04903  1.0000
  H   H2429     1.0  0.57247  0.36922  0.00591  1.0000
  H   H2430     1.0  0.82167  0.40671  0.06190  1.0000
  C   C1382     1.0  0.57415  0.55148  0.11914  1.0000
  H   H2431     1.0  0.55678  0.50824  0.09743  1.0000
  C   C1383     1.0  0.94839  0.51266  0.12603  1.0000
  H   H2432     1.0  0.76228  0.61028  0.07716  1.0000
  H   H2433     1.0  0.95456  0.39124  0.05957  1.0000
  S   S318      1.0  0.93592  0.35114  0.13360  1.0000
  C   C1384     1.0  0.94154  0.55927  0.15957  1.0000
  C   C1385     1.0  0.59065  0.51409  0.13114  1.0000
  C   C1386     1.0  0.61599  0.54071  0.10555  1.0000
  H   H2434     1.0  0.50172  0.46918  0.09911  1.0000
  S   S319      1.0  0.63242  0.38469  0.98921  1.0000
  H   H2435     1.0  0.49456  0.54095  0.21597  1.0000
  H   H2436     1.0  0.84730  0.37182  0.05653  1.0000
  C   C1387     1.0  0.76631  0.58677  0.00894  1.0000
  H   H2437     1.0  0.70512  0.37475  0.03362  1.0000
  H   H2438     1.0  0.52776  0.57322  0.11807  1.0000
  H   H2439     1.0  0.81645  0.35576  0.07238  1.0000
  C   C1388     1.0  0.75001  0.37187  0.03086  1.0000
  H   H2440     1.0  0.96591  0.57600  0.16016  1.0000
  H   H2441     1.0  0.84375  0.40924  0.03568  1.0000
  H   H2442     1.0  0.62910  0.63895  0.09299  1.0000
  C   C1389     1.0  0.78583  0.60897  0.12561  1.0000
  H   H2443     1.0  0.87313  0.44764  0.98454  1.0000
  H   H2444     1.0  0.89597  0.33848  0.10952  1.0000
  C   C1390     1.0  0.87630  0.59592  0.98637  1.0000
  C   C1391     1.0  0.93556  0.33223  0.11686  1.0000
  S   S320      1.0  0.63042  0.64610  0.12566  1.0000
  H   H2445     1.0  0.48999  0.55998  0.14686  1.0000
  H   H2446     1.0  0.94271  0.56080  0.11253  1.0000
  C   C1392     1.0  0.84475  0.43637  0.00674  1.0000
  H   H2447     1.0  0.95226  0.51734  0.11318  1.0000
  C   C1393     1.0  0.77103  0.56253  0.11045  1.0000
  C   C1394     1.0  0.96147  0.63864  0.11483  1.0000
  H   H2448     1.0  0.76672  0.62076  0.15703  1.0000
  H   H2449     1.0  0.84115  0.36730  0.00092  1.0000
  N   N77       1.0  0.81029  0.63807  0.13051  1.0000
  C   C1395     1.0  0.64714  0.56013  0.07902  1.0000
  H   H2450     1.0  0.58669  0.58146  0.09738  1.0000
  C   C1396     1.0  0.97768  0.36147  0.05298  1.0000
  H   H2451     1.0  0.85730  0.42293  0.01098  1.0000
  H   H2452     1.0  0.63026  0.56463  0.10807  1.0000
  C   C1397     1.0  0.61800  0.53625  0.13930  1.0000
  H   H2453     1.0  0.59872  0.55064  0.08373  1.0000
  C   C1398     1.0  0.65235  0.64726  0.08618  1.0000
  H   H2454     1.0  0.85670  0.46019  0.00979  1.0000
  H   H2455     1.0  0.91920  0.37991  0.03926  1.0000
  H   H2456     1.0  0.62478  0.50016  0.15288  1.0000
  H   H2457     1.0  0.98051  0.63641  0.12009  1.0000
  C   C1399     1.0  0.92637  0.54723  0.17619  1.0000
  C   C1400     1.0  0.88495  0.55801  0.11846  1.0000
  H   H2458     1.0  0.60662  0.51732  0.08452  1.0000
  H   H2459     1.0  0.77508  0.59116  0.13576  1.0000
  Fe  Fe167     1.0  0.97684  0.37237  0.14784  1.0000
  C   C1401     1.0  0.84435  0.61028  0.13892  1.0000
  H   H2460     1.0  0.64891  0.63734  0.07496  1.0000
  N   N78       1.0  0.58525  0.52707  0.11590  1.0000
  H   H2461     1.0  0.59498  0.49336  0.12954  1.0000
  H   H2462     1.0  0.92368  0.49545  0.12868  1.0000
  H   H2463     1.0  0.64071  0.54373  0.13210  1.0000
  H   H2464     1.0  0.92770  0.56678  0.18263  1.0000
  H   H2465     1.0  0.71329  0.35592  0.05030  1.0000
  C   C1402     1.0  0.96878  0.49616  0.13114  1.0000
  H   H2466     1.0  0.97614  0.40222  0.04056  1.0000
  C   C1403     1.0  0.89959  0.54009  0.12756  1.0000
  H   H2467     1.0  0.91960  0.59592  0.99287  1.0000
  C   C1404     1.0  0.76399  0.63782  0.14881  1.0000
  H   H2468     1.0  0.64032  0.53711  0.16021  1.0000
  H   H2469     1.0  0.89256  0.64574  0.09600  1.0000
  H   H2470     1.0  0.94236  0.58057  0.12882  1.0000
  C   C1405     1.0  0.86545  0.60939  0.15123  1.0000
  C   C1406     1.0  0.48457  0.51356  0.15262  1.0000
  H   H2471     1.0  0.82674  0.58636  0.13855  1.0000
  C   C1407     1.0  0.62051  0.52074  0.15471  1.0000
  H   H2472     1.0  0.59881  0.51385  0.16272  1.0000
  H   H2473     1.0  0.51810  0.50011  0.12117  1.0000
  H   H2474     1.0  0.85164  0.60024  0.16276  1.0000
  H   H2475     1.0  0.81960  0.58204  0.99833  1.0000
  H   H2476     1.0  0.88397  0.63277  0.15190  1.0000
  H   H2477     1.0  0.66370  0.55034  0.08216  1.0000
  S   S321      1.0  0.96531  0.37816  0.17263  1.0000
  C   C1408     1.0  0.94122  0.53278  0.15033  1.0000
  H   H2478     1.0  0.83582  0.52307  0.99741  1.0000
  H   H2479     1.0  0.59238  0.57080  0.12405  1.0000
  H   H2480     1.0  0.90143  0.53108  0.17635  1.0000
  H   H2481     1.0  0.89228  0.56033  0.10585  1.0000
  C   C1409     1.0  0.92004  0.65547  0.11538  1.0000
  C   C1410     1.0  0.71567  0.35911  0.03745  1.0000
  H   H2482     1.0  0.83639  0.41439  0.98537  1.0000
  H   H2483     1.0  0.96011  0.34048  0.06008  1.0000
  C   C1411     1.0  0.77837  0.58503  0.99245  1.0000
  C   C1412     1.0  0.81443  0.59790  0.99038  1.0000
  H   H2484     1.0  0.85909  0.54572  0.12045  1.0000
  H   H2485     1.0  0.56949  0.50619  0.13960  1.0000
  C   C1413     1.0  0.93574  0.55717  0.12524  1.0000
  C   C1414     1.0  0.91180  0.64385  0.10120  1.0000
  H   H2486     1.0  0.77832  0.55348  0.10024  1.0000
  H   H2487     1.0  0.58878  0.66280  0.22209  1.0000
  H   H2488     1.0  0.77416  0.57405  0.01747  1.0000
  H   H2489     1.0  0.66723  0.63894  0.09261  1.0000
  H   H2490     1.0  0.57009  0.48313  0.10688  1.0000
  C   C1415     1.0  0.81783  0.39766  0.03771  1.0000
  C   C1416     1.0  0.80991  0.38702  0.05526  1.0000
  H   H2491     1.0  0.79801  0.43451  0.00831  1.0000
  H   H2492     1.0  0.79977  0.43880  0.06086  1.0000
  H   H2493     1.0  0.79950  0.39852  0.00936  1.0000
  C   C1417     1.0  0.80987  0.42125  0.01367  1.0000
  H   H2494     1.0  0.74038  0.57620  0.01035  1.0000
  H   H2495     1.0  0.98305  0.35384  0.04183  1.0000
  H   H2496     1.0  0.92883  0.57160  0.15430  1.0000
  C   C1418     1.0  0.81929  0.45020  0.03610  1.0000
  H   H2497     1.0  0.86970  0.59841  0.99852  1.0000
  H   H2498     1.0  0.93667  0.45043  0.12637  1.0000
  H   H2499     1.0  0.84778  0.48734  0.05950  1.0000
  C   C1419     1.0  0.60824  0.35294  0.00262  1.0000
  H   H2500     1.0  0.93877  0.53534  0.18221  1.0000
  C   C1420     1.0  0.57929  0.35093  0.00896  1.0000
  C   C1421     1.0  0.80450  0.45669  0.05113  1.0000
  H   H2501     1.0  0.95555  0.52302  0.15628  1.0000
  C   C1422     1.0  0.94463  0.65266  0.12233  1.0000
  C   C1423     1.0  0.82774  0.63096  0.14288  1.0000
  H   H2502     1.0  0.81921  0.46768  0.02702  1.0000
  H   H2503     1.0  0.97835  0.51478  0.18619  1.0000
  C   C1424     1.0  0.96142  0.46707  0.12313  1.0000
  H   H2504     1.0  0.79138  0.36193  0.99102  1.0000
  H   H2505     1.0  0.75927  0.42009  0.02966  1.0000
  H   H2506     1.0  0.83140  0.50645  0.04670  1.0000
  C   C1425     1.0  0.75519  0.65917  0.15827  1.0000
  C   C1426     1.0  0.76880  0.40479  0.03526  1.0000
  N   N79       1.0  0.80379  0.41822  0.03111  1.0000
  H   H2507     1.0  0.96445  0.48918  0.14380  1.0000
  C   C1427     1.0  0.79138  0.34508  0.99986  1.0000
  H   H2508     1.0  0.76799  0.56041  0.99045  1.0000
  C   C1428     1.0  0.50410  0.52342  0.21620  1.0000
  C   C1429     1.0  0.93081  0.36464  0.04203  1.0000
  H   H2509     1.0  0.81808  0.59219  0.11362  1.0000
  C   C1430     1.0  0.82165  0.36269  0.05970  1.0000
  H   H2510     1.0  0.78443  0.37663  0.05888  1.0000
  Fe  Fe168     1.0  0.87168  0.64658  0.03122  1.0000
  H   H2511     1.0  0.70253  0.33644  0.03326  1.0000
  H   H2512     1.0  0.80989  0.34192  0.05368  1.0000
  Fe  Fe169     1.0  0.66513  0.65949  0.16508  1.0000
  H   H2513     1.0  0.59734  0.65455  0.19480  1.0000
  H   H2514     1.0  0.49580  0.34686  0.00110  1.0000
  S   S322      1.0  0.78956  0.47320  0.98483  1.0000
  H   H2515     1.0  0.84588  0.64602  0.11135  1.0000
  C   C1431     1.0  0.77563  0.65418  0.08591  1.0000
  C   C1432     1.0  0.73952  0.65629  0.10678  1.0000
  H   H2516     1.0  0.97332  0.37208  0.08057  1.0000
  S   S323      1.0  0.68390  0.66017  0.18851  1.0000
  C   C1433     1.0  0.83225  0.65760  0.11657  1.0000
  H   H2517     1.0  0.92271  0.63326  0.98588  1.0000
  H   H2518     1.0  0.97650  0.45594  0.12685  1.0000
  C   C1434     1.0  0.79398  0.65629  0.13733  1.0000
  H   H2519     1.0  0.81841  0.66064  0.10736  1.0000
  C   C1435     1.0  0.91191  0.60847  0.98418  1.0000
  H   H2520     1.0  0.86648  0.57125  0.98465  1.0000
  H   H2521     1.0  0.76977  0.59798  0.98453  1.0000
  H   H2522     1.0  0.66157  0.55997  0.34821  1.0000
  Fe  Fe170     1.0  0.86687  0.52076  0.36519  1.0000
  S   S324      1.0  0.83320  0.51664  0.34705  1.0000
  S   S325      1.0  0.92229  0.54591  0.36006  1.0000
  Fe  Fe171     1.0  0.80927  0.49027  0.38968  1.0000
  S   S326      1.0  0.77487  0.48694  0.37296  1.0000
  S   S327      1.0  0.78749  0.46677  0.41352  1.0000
  Fe  Fe172     1.0  0.80187  0.46712  0.35852  1.0000
  S   S328      1.0  0.77631  0.41685  0.35065  1.0000
  Fe  Fe173     1.0  0.80818  0.53582  0.36401  1.0000
  S   S329      1.0  0.78766  0.57279  0.36001  1.0000
  S   S330      1.0  0.83693  0.47135  0.37530  1.0000
  S   S331      1.0  0.84160  0.53963  0.38178  1.0000
  H   H2523     1.0  0.96498  0.53108  0.37953  1.0000
  C   C1436     1.0  0.95572  0.35932  0.45450  1.0000
  C   C1437     1.0  0.67580  0.45376  0.40844  1.0000
  H   H2524     1.0  0.67472  0.49683  0.39965  1.0000
  H   H2525     1.0  0.83309  0.36134  0.40133  1.0000
  S   S332      1.0  0.97240  0.57598  0.40564  1.0000
  C   C1438     1.0  0.93211  0.44953  0.36598  1.0000
  H   H2526     1.0  0.55539  0.50537  0.37798  1.0000
  H   H2527     1.0  0.75415  0.36772  0.33082  1.0000
  H   H2528     1.0  0.48540  0.51855  0.42873  1.0000
  H   H2529     1.0  0.66734  0.39586  0.42347  1.0000
  H   H2530     1.0  0.79215  0.42347  0.45926  1.0000
  H   H2531     1.0  0.89607  0.61721  0.31582  1.0000
  H   H2532     1.0  0.81511  0.35644  0.47687  1.0000
  H   H2533     1.0  0.65669  0.37967  0.36874  1.0000
  S   S333      1.0  0.49110  0.46634  0.46061  1.0000
  C   C1439     1.0  0.69371  0.44082  0.43998  1.0000
  H   H2534     1.0  0.87099  0.39226  0.47055  1.0000
  Fe  Fe174     1.0  0.95658  0.47089  0.43032  1.0000
  S   S334      1.0  0.96053  0.48932  0.40541  1.0000
  S   S335      1.0  0.90897  0.43236  0.44337  1.0000
  H   H2535     1.0  0.69038  0.39988  0.45441  1.0000
  H   H2536     1.0  0.69125  0.65275  0.24685  1.0000
  C   C1440     1.0  0.57135  0.36862  0.46853  1.0000
  C   C1441     1.0  0.54658  0.37675  0.46531  1.0000
  C   C1442     1.0  0.52150  0.35739  0.45792  1.0000
  H   H2537     1.0  0.60947  0.33584  0.43203  1.0000
  C   C1443     1.0  0.57868  0.50738  0.38058  1.0000
  H   H2538     1.0  0.58168  0.58495  0.35628  1.0000
  H   H2539     1.0  0.87802  0.43889  0.35287  1.0000
  H   H2540     1.0  0.60215  0.44326  0.47205  1.0000
  C   C1444     1.0  0.80169  0.36332  0.45438  1.0000
  C   C1445     1.0  0.82333  0.36836  0.46532  1.0000
  C   C1446     1.0  0.85542  0.38891  0.46168  1.0000
  C   C1447     1.0  0.86748  0.40549  0.44692  1.0000
  C   C1448     1.0  0.84608  0.40020  0.43579  1.0000
  C   C1449     1.0  0.81374  0.37940  0.43948  1.0000
  H   H2541     1.0  0.93549  0.46975  0.37240  1.0000
  H   H2542     1.0  0.85437  0.41220  0.42429  1.0000
  H   H2543     1.0  0.79799  0.37575  0.43079  1.0000
  H   H2544     1.0  0.88485  0.42771  0.37823  1.0000
  C   C1450     1.0  0.89369  0.47462  0.33332  1.0000
  C   C1451     1.0  0.75782  0.43052  0.41128  1.0000
  C   C1452     1.0  0.73501  0.42789  0.40145  1.0000
  C   C1453     1.0  0.71176  0.39904  0.39946  1.0000
  C   C1454     1.0  0.71106  0.37245  0.40732  1.0000
  C   C1455     1.0  0.73409  0.37497  0.41706  1.0000
  C   C1456     1.0  0.75691  0.40403  0.41931  1.0000
  H   H2545     1.0  0.73443  0.44812  0.39581  1.0000
  H   H2546     1.0  0.69388  0.39745  0.39212  1.0000
  H   H2547     1.0  0.91801  0.35985  0.43093  1.0000
  H   H2548     1.0  0.77396  0.40613  0.42722  1.0000
  C   C1457     1.0  0.78074  0.60542  0.36585  1.0000
  C   C1458     1.0  0.76001  0.61442  0.35826  1.0000
  C   C1459     1.0  0.75466  0.64036  0.36193  1.0000
  C   C1460     1.0  0.57326  0.34217  0.46343  1.0000
  H   H2549     1.0  0.96590  0.64569  0.36262  1.0000
  C   C1461     1.0  0.79597  0.62336  0.37736  1.0000
  H   H2550     1.0  0.74839  0.60151  0.34914  1.0000
  H   H2551     1.0  0.90265  0.57298  0.45516  1.0000
  C   C1462     1.0  0.95029  0.41782  0.34065  1.0000
  H   H2552     1.0  0.81178  0.61712  0.38354  1.0000
  C   C1463     1.0  0.96496  0.56076  0.36002  1.0000
  C   C1464     1.0  0.48681  0.49699  0.43169  1.0000
  C   C1465     1.0  0.97132  0.36150  0.48077  1.0000
  H   H2553     1.0  0.64805  0.38080  0.44219  1.0000
  C   C1466     1.0  0.64763  0.45813  0.45856  1.0000
  H   H2554     1.0  0.66620  0.47453  0.42780  1.0000
  H   H2555     1.0  0.55781  0.46890  0.39874  1.0000
  C   C1467     1.0  0.51779  0.46722  0.42960  1.0000
  C   C1468     1.0  0.51132  0.49196  0.42406  1.0000
  C   C1469     1.0  0.64956  0.33669  0.35941  1.0000
  H   H2556     1.0  0.97331  0.43526  0.33523  1.0000
  H   H2557     1.0  0.53966  0.46691  0.42538  1.0000
  H   H2558     1.0  0.94987  0.33440  0.45687  1.0000
  H   H2559     1.0  0.80729  0.45234  0.47236  1.0000
  C   C1470     1.0  0.64762  0.63985  0.33488  1.0000
  H   H2560     1.0  0.89003  0.33864  0.39527  1.0000
  C   C1471     1.0  0.73993  0.35944  0.36982  1.0000
  C   C1472     1.0  0.64961  0.39713  0.43214  1.0000
  H   H2561     1.0  0.58924  0.38308  0.47508  1.0000
  H   H2562     1.0  0.63764  0.61622  0.33993  1.0000
  H   H2563     1.0  0.66815  0.63050  0.31411  1.0000
  N   N80       1.0  0.92852  0.45667  0.34927  1.0000
  H   H2564     1.0  0.89571  0.40163  0.36814  1.0000
  H   H2565     1.0  0.95041  0.50647  0.34474  1.0000
  H   H2566     1.0  0.95205  0.41044  0.35273  1.0000
  H   H2567     1.0  0.94400  0.60234  0.38397  1.0000
  H   H2568     1.0  0.57650  0.58555  0.40989  1.0000
  H   H2569     1.0  0.78984  0.39095  0.39164  1.0000
  C   C1473     1.0  0.63918  0.42768  0.45115  1.0000
  H   H2570     1.0  0.95747  0.55552  0.45873  1.0000
  H   H2571     1.0  0.69540  0.56865  0.35836  1.0000
  C   C1474     1.0  0.49377  0.43961  0.43786  1.0000
  C   C1475     1.0  0.75225  0.37511  0.35485  1.0000
  H   H2572     1.0  0.90642  0.47046  0.32324  1.0000
  H   H2573     1.0  0.74430  0.37258  0.37960  1.0000
  C   C1476     1.0  0.85920  0.46142  0.33074  1.0000
  H   H2574     1.0  0.87556  0.64906  0.32377  1.0000
  H   H2575     1.0  0.90249  0.64501  0.28593  1.0000
  H   H2576     1.0  0.67010  0.43107  0.40422  1.0000
  H   H2577     1.0  0.64355  0.47505  0.45082  1.0000
  C   C1477     1.0  0.82149  0.65618  0.32977  1.0000
  H   H2578     1.0  0.81117  0.34895  0.37513  1.0000
  C   C1478     1.0  0.80982  0.35929  0.39871  1.0000
  H   H2579     1.0  0.93843  0.65870  0.27322  1.0000
  H   H2580     1.0  0.71397  0.64368  0.41829  1.0000
  H   H2581     1.0  0.94400  0.35817  0.41523  1.0000
  C   C1479     1.0  0.59224  0.53231  0.39167  1.0000
  H   H2582     1.0  0.96806  0.63474  0.42656  1.0000
  C   C1480     1.0  0.65730  0.45085  0.42433  1.0000
  H   H2583     1.0  0.90107  0.53917  0.46614  1.0000
  H   H2584     1.0  0.73934  0.64063  0.43207  1.0000
  H   H2585     1.0  0.85604  0.47389  0.32028  1.0000
  H   H2586     1.0  0.89549  0.61296  0.39846  1.0000
  C   C1481     1.0  0.91573  0.62708  0.32294  1.0000
  C   C1482     1.0  0.81300  0.39147  0.39335  1.0000
  H   H2587     1.0  0.59689  0.47625  0.39062  1.0000
  H   H2588     1.0  0.80450  0.66387  0.38907  1.0000
  H   H2589     1.0  0.77327  0.33541  0.38492  1.0000
  H   H2590     1.0  0.59411  0.51244  0.36960  1.0000
  C   C1483     1.0  0.57420  0.47589  0.38795  1.0000
  S   S336      1.0  0.76060  0.33670  0.46011  1.0000
  S   S337      1.0  0.98232  0.51910  0.43731  1.0000
  H   H2591     1.0  0.89791  0.47672  0.35777  1.0000
  H   H2592     1.0  0.70124  0.46510  0.40939  1.0000
  H   H2593     1.0  0.70405  0.46602  0.44076  1.0000
  H   H2594     1.0  0.56408  0.45847  0.37982  1.0000
  H   H2595     1.0  0.85838  0.60940  0.42370  1.0000
  H   H2596     1.0  0.73891  0.64663  0.35567  1.0000
  H   H2597     1.0  0.95810  0.48751  0.32938  1.0000
  H   H2598     1.0  0.96031  0.62509  0.32437  1.0000
  H   H2599     1.0  0.61496  0.56105  0.36081  1.0000
  N   N81       1.0  0.60252  0.56512  0.38483  1.0000
  C   C1484     1.0  0.62582  0.57346  0.37058  1.0000
  C   C1485     1.0  0.57455  0.57111  0.38130  1.0000
  C   C1486     1.0  0.61863  0.58601  0.39670  1.0000
  H   H2600     1.0  0.92789  0.58802  0.32362  1.0000
  H   H2601     1.0  0.74676  0.43147  0.44584  1.0000
  H   H2602     1.0  0.64899  0.54348  0.37683  1.0000
  H   H2603     1.0  0.68302  0.47577  0.38502  1.0000
  H   H2604     1.0  0.95069  0.58553  0.46725  1.0000
  H   H2605     1.0  0.95951  0.58836  0.44654  1.0000
  H   H2606     1.0  0.94405  0.61513  0.30642  1.0000
  C   C1487     1.0  0.67526  0.57429  0.35685  1.0000
  H   H2607     1.0  0.63400  0.59819  0.36643  1.0000
  H   H2608     1.0  0.82280  0.40706  0.40228  1.0000
  H   H2609     1.0  0.55388  0.55685  0.38982  1.0000
  H   H2610     1.0  0.57913  0.59544  0.38269  1.0000
  H   H2611     1.0  0.62849  0.61050  0.39155  1.0000
  H   H2612     1.0  0.63881  0.58194  0.40015  1.0000
  H   H2613     1.0  0.97376  0.35392  0.37996  1.0000
  C   C1488     1.0  0.74527  0.35675  0.34250  1.0000
  H   H2614     1.0  0.84497  0.46372  0.34082  1.0000
  H   H2615     1.0  0.61177  0.52943  0.39682  1.0000
  H   H2616     1.0  0.67025  0.58298  0.38035  1.0000
  C   C1489     1.0  0.84868  0.66239  0.33946  1.0000
  H   H2617     1.0  0.92588  0.43759  0.32729  1.0000
  H   H2618     1.0  0.58555  0.34085  0.41796  1.0000
  H   H2619     1.0  0.98328  0.40205  0.39197  1.0000
  H   H2620     1.0  0.71165  0.65650  0.43708  1.0000
  H   H2621     1.0  0.70796  0.43785  0.43003  1.0000
  C   C1490     1.0  0.66875  0.47346  0.39615  1.0000
  C   C1491     1.0  0.92537  0.43061  0.33976  1.0000
  C   C1492     1.0  0.89875  0.46102  0.34908  1.0000
  C   C1493     1.0  0.59812  0.58299  0.41203  1.0000
  C   C1494     1.0  0.67073  0.36881  0.36315  1.0000
  C   C1495     1.0  0.96464  0.36818  0.43675  1.0000
  H   H2622     1.0  0.61769  0.39716  0.41487  1.0000
  S   S338      1.0  0.68319  0.34042  0.44650  1.0000
  C   C1496     1.0  0.77067  0.65889  0.37305  1.0000
  N   N82       1.0  0.87324  0.52005  0.43836  1.0000
  C   C1497     1.0  0.87261  0.50962  0.42245  1.0000
  C   C1498     1.0  0.85460  0.53884  0.43932  1.0000
  C   C1499     1.0  0.90685  0.53855  0.44086  1.0000
  C   C1500     1.0  0.85884  0.49308  0.45079  1.0000
  C   C1501     1.0  0.82663  0.46761  0.44818  1.0000
  C   C1502     1.0  0.88834  0.48768  0.41992  1.0000
  C   C1503     1.0  0.91224  0.55554  0.45558  1.0000
  C   C1504     1.0  0.86760  0.56924  0.42833  1.0000
  C   C1505     1.0  0.84845  0.58753  0.43147  1.0000
  C   C1506     1.0  0.81348  0.44289  0.46203  1.0000
  C   C1507     1.0  0.88192  0.47443  0.40452  1.0000
  H   H2623     1.0  0.91985  0.37068  0.33705  1.0000
  H   H2624     1.0  0.88492  0.52960  0.41346  1.0000
  H   H2625     1.0  0.84830  0.49868  0.41948  1.0000
  H   H2626     1.0  0.83045  0.52526  0.43649  1.0000
  H   H2627     1.0  0.85166  0.54418  0.45140  1.0000
  H   H2628     1.0  0.91966  0.55567  0.43065  1.0000
  H   H2629     1.0  0.91924  0.52338  0.44165  1.0000
  H   H2630     1.0  0.87491  0.48187  0.45252  1.0000
  H   H2631     1.0  0.85562  0.50110  0.46218  1.0000
  H   H2632     1.0  0.82859  0.45604  0.43785  1.0000
  H   H2633     1.0  0.80929  0.47712  0.44653  1.0000
  H   H2634     1.0  0.91384  0.50048  0.41992  1.0000
  H   H2635     1.0  0.87987  0.46812  0.42905  1.0000
  H   H2636     1.0  0.84896  0.59312  0.44363  1.0000
  H   H2637     1.0  0.59854  0.38248  0.43419  1.0000
  H   H2638     1.0  0.89223  0.58414  0.42975  1.0000
  H   H2639     1.0  0.86627  0.56431  0.41609  1.0000
  H   H2640     1.0  0.83074  0.43380  0.46476  1.0000
  H   H2641     1.0  0.97088  0.45556  0.47858  1.0000
  H   H2642     1.0  0.68916  0.42960  0.46534  1.0000
  H   H2643     1.0  0.62625  0.35078  0.41224  1.0000
  C   C1508     1.0  0.97951  0.54982  0.37096  1.0000
  C   C1509     1.0  0.94713  0.57226  0.45708  1.0000
  H   H2644     1.0  0.89172  0.49309  0.39475  1.0000
  H   H2645     1.0  0.89282  0.45827  0.40313  1.0000
  H   H2646     1.0  0.85638  0.46139  0.40438  1.0000
  C   C1510     1.0  0.60929  0.35072  0.42174  1.0000
  H   H2647     1.0  0.79344  0.35111  0.40946  1.0000
  H   H2648     1.0  0.63343  0.47483  0.47891  1.0000
  H   H2649     1.0  0.64369  0.46253  0.39429  1.0000
  H   H2650     1.0  0.85049  0.43669  0.32907  1.0000
  H   H2651     1.0  0.88074  0.64106  0.39361  1.0000
  C   C1511     1.0  0.62725  0.45274  0.47389  1.0000
  H   H2652     1.0  0.95364  0.44609  0.36699  1.0000
  S   S339      1.0  0.50504  0.48867  0.40497  1.0000
  C   C1512     1.0  0.91335  0.41032  0.39000  1.0000
  H   H2653     1.0  0.89235  0.39198  0.39680  1.0000
  H   H2654     1.0  0.93071  0.40095  0.38729  1.0000
  H   H2655     1.0  0.92343  0.42935  0.39723  1.0000
  N   N83       1.0  0.88931  0.64132  0.34635  1.0000
  C   C1513     1.0  0.87339  0.62783  0.36246  1.0000
  H   H2656     1.0  0.51424  0.54962  0.37195  1.0000
  C   C1514     1.0  0.90287  0.62020  0.34036  1.0000
  C   C1515     1.0  0.94217  0.38969  0.33174  1.0000
  H   H2657     1.0  0.90206  0.41095  0.34278  1.0000
  C   C1516     1.0  0.89433  0.62201  0.37394  1.0000
  C   C1517     1.0  0.86504  0.64127  0.33600  1.0000
  H   H2658     1.0  0.86311  0.64239  0.36759  1.0000
  H   H2659     1.0  0.80411  0.63185  0.33221  1.0000
  C   C1518     1.0  0.73492  0.43683  0.45591  1.0000
  H   H2660     1.0  0.96849  0.33740  0.48044  1.0000
  C   C1519     1.0  0.88080  0.61898  0.39074  1.0000
  H   H2661     1.0  0.85312  0.60534  0.36206  1.0000
  H   H2662     1.0  0.92664  0.65090  0.42198  1.0000
  C   C1520     1.0  0.79155  0.65001  0.38060  1.0000
  H   H2663     1.0  0.84672  0.61732  0.33613  1.0000
  H   H2664     1.0  0.88505  0.59581  0.34224  1.0000
  C   C1521     1.0  0.66503  0.64799  0.32023  1.0000
  H   H2665     1.0  0.98323  0.36119  0.43267  1.0000
  H   H2666     1.0  0.66091  0.63711  0.26310  1.0000
  H   H2667     1.0  0.97328  0.39324  0.43358  1.0000
  C   C1522     1.0  0.95540  0.48646  0.34223  1.0000
  H   H2668     1.0  0.89658  0.60046  0.37187  1.0000
  H   H2669     1.0  0.91810  0.64085  0.37248  1.0000
  H   H2670     1.0  0.68745  0.36752  0.37107  1.0000
  N   N84       1.0  0.65999  0.42920  0.43688  1.0000
  H   H2671     1.0  0.52636  0.56559  0.35197  1.0000
  C   C1523     1.0  0.65532  0.56770  0.37241  1.0000
  C   C1524     1.0  0.68184  0.65779  0.25783  1.0000
  H   H2672     1.0  0.59136  0.56026  0.41872  1.0000
  C   C1525     1.0  0.61597  0.60768  0.42223  1.0000
  H   H2673     1.0  0.82384  0.57419  0.42926  1.0000
  H   H2674     1.0  0.62199  0.63097  0.41633  1.0000
  H   H2675     1.0  0.63236  0.44453  0.42272  1.0000
  H   H2676     1.0  0.54660  0.39777  0.46887  1.0000
  H   H2677     1.0  0.68423  0.38343  0.35236  1.0000
  C   C1526     1.0  0.93834  0.61280  0.31917  1.0000
  C   C1527     1.0  0.72786  0.65499  0.42762  1.0000
  C   C1528     1.0  0.90434  0.42134  0.37506  1.0000
  H   H2678     1.0  0.74568  0.46204  0.45645  1.0000
  H   H2679     1.0  0.57374  0.52630  0.40155  1.0000
  H   H2680     1.0  0.56169  0.54410  0.36123  1.0000
  S   S340      1.0  0.62594  0.65235  0.36251  1.0000
  H   H2681     1.0  0.94027  0.39552  0.31942  1.0000
  H   H2682     1.0  0.97506  0.59447  0.34052  1.0000
  H   H2683     1.0  0.85656  0.60069  0.39279  1.0000
  H   H2684     1.0  0.96082  0.38146  0.33211  1.0000
  H   H2685     1.0  0.61470  0.42034  0.44848  1.0000
  H   H2686     1.0  0.95508  0.40698  0.46728  1.0000
  H   H2687     1.0  0.67235  0.46854  0.46093  1.0000
  H   H2688     1.0  0.68423  0.59896  0.35236  1.0000
  C   C1529     1.0  0.56416  0.56648  0.36483  1.0000
  H   H2689     1.0  0.90250  0.49998  0.33317  1.0000
  H   H2690     1.0  0.60119  0.60467  0.43327  1.0000
  C   C1530     1.0  0.69996  0.42504  0.45465  1.0000
  H   H2691     1.0  0.50386  0.42415  0.44166  1.0000
  H   H2692     1.0  0.92813  0.65212  0.31933  1.0000
  C   C1531     1.0  0.53287  0.56827  0.36393  1.0000
  H   H2693     1.0  0.82857  0.40095  0.38232  1.0000
  H   H2694     1.0  0.63829  0.40963  0.46013  1.0000
  H   H2695     1.0  0.92225  0.62075  0.34703  1.0000
  C   C1532     1.0  0.93662  0.35217  0.42787  1.0000
  H   H2696     1.0  0.48453  0.56288  0.45668  1.0000
  S   S341      1.0  0.60586  0.33345  0.46797  1.0000
  H   H2697     1.0  0.63778  0.60601  0.42496  1.0000
  H   H2698     1.0  0.73418  0.35454  0.42300  1.0000
  C   C1533     1.0  0.61752  0.38342  0.42565  1.0000
  H   H2699     1.0  0.63209  0.33893  0.35226  1.0000
  S   S342      1.0  0.68012  0.33665  0.40575  1.0000
  H   H2700     1.0  0.93325  0.36102  0.45737  1.0000
  H   H2701     1.0  0.53456  0.59089  0.36698  1.0000
  C   C1534     1.0  0.96894  0.61594  0.38177  1.0000
  N   N85       1.0  0.97968  0.37809  0.46461  1.0000
  C   C1535     1.0  0.97932  0.40928  0.46440  1.0000
  C   C1536     1.0  0.64408  0.66233  0.34313  1.0000
  H   H2702     1.0  0.92107  0.35123  0.48277  1.0000
  H   H2703     1.0  0.82985  0.66086  0.31723  1.0000
  H   H2704     1.0  0.83912  0.65899  0.35175  1.0000
  C   C1537     1.0  0.79698  0.33714  0.38628  1.0000
  C   C1538     1.0  0.95001  0.66349  0.41525  1.0000
  C   C1539     1.0  0.97488  0.65979  0.42432  1.0000
  H   H2705     1.0  0.85648  0.34778  0.37648  1.0000
  H   H2706     1.0  0.73864  0.42537  0.46658  1.0000
  H   H2707     1.0  0.49778  0.33417  0.40478  1.0000
  H   H2708     1.0  0.90449  0.34012  0.37538  1.0000
  C   C1540     1.0  0.98121  0.64063  0.36969  1.0000
  H   H2709     1.0  0.94962  0.65390  0.40399  1.0000
  H   H2710     1.0  0.85033  0.33722  0.44539  1.0000
  S   S343      1.0  0.48744  0.36478  0.45503  1.0000
  H   H2711     1.0  0.63162  0.65615  0.24523  1.0000
  H   H2712     1.0  0.63100  0.43652  0.48231  1.0000
  H   H2713     1.0  0.53597  0.66428  0.35868  1.0000
  H   H2714     1.0  0.55752  0.66448  0.27187  1.0000
  H   H2715     1.0  0.70004  0.66321  0.26588  1.0000
  C   C1541     1.0  0.53500  0.33469  0.50544  1.0000
  S   S344      1.0  0.66782  0.63270  0.66370  1.0000
  C   C1542     1.0  0.95307  0.34137  0.68762  1.0000
  S   S345      1.0  0.54139  0.56791  0.63296  1.0000
  C   C1543     1.0  0.94103  0.35978  0.48974  1.0000
  C   C1544     1.0  0.58006  0.63281  0.68314  1.0000
  C   C1545     1.0  0.71966  0.63885  0.62198  1.0000
  N   N86       1.0  0.54997  0.41301  0.71875  1.0000
  C   C1546     1.0  0.49010  0.37395  0.51139  1.0000
  H   H2716     1.0  0.50680  0.42218  0.50311  1.0000
  C   C1547     1.0  0.94035  0.33399  0.70329  1.0000
  H   H2717     1.0  0.96701  0.38930  0.53243  1.0000
  C   C1548     1.0  0.57582  0.58551  0.64213  1.0000
  C   C1549     1.0  0.58594  0.56865  0.65226  1.0000
  C   C1550     1.0  0.61414  0.58347  0.65875  1.0000
  C   C1551     1.0  0.63261  0.61519  0.65514  1.0000
  C   C1552     1.0  0.62225  0.63214  0.64522  1.0000
  C   C1553     1.0  0.59393  0.61738  0.63883  1.0000
  H   H2718     1.0  0.57219  0.54414  0.65494  1.0000
  H   H2719     1.0  0.62183  0.57017  0.66651  1.0000
  H   H2720     1.0  0.55908  0.47011  0.67782  1.0000
  H   H2721     1.0  0.58595  0.63068  0.63126  1.0000
  H   H2722     1.0  0.57901  0.50587  0.68572  1.0000
  H   H2723     1.0  0.60577  0.40537  0.72629  1.0000
  H   H2724     1.0  0.49162  0.55301  0.52489  1.0000
  H   H2725     1.0  0.67800  0.61652  0.61132  1.0000
  H   H2726     1.0  0.51886  0.40057  0.49035  1.0000
  H   H2727     1.0  0.49606  0.47726  0.49887  1.0000
  H   H2728     1.0  0.62980  0.64119  0.61046  1.0000
  H   H2729     1.0  0.63592  0.65660  0.64258  1.0000
  H   H2730     1.0  0.96230  0.52692  0.68751  1.0000
  C   C1554     1.0  0.87254  0.65406  0.69175  1.0000
  H   H2731     1.0  0.68680  0.64536  0.57892  1.0000
  H   H2732     1.0  0.56859  0.61747  0.58356  1.0000
  H   H2733     1.0  0.57397  0.33627  0.69672  1.0000
  H   H2734     1.0  0.94432  0.38279  0.49287  1.0000
  H   H2735     1.0  0.58355  0.34372  0.49949  1.0000
  H   H2736     1.0  0.97261  0.56372  0.66030  1.0000
  H   H2737     1.0  0.95171  0.34472  0.51192  1.0000
  H   H2738     1.0  0.70723  0.63823  0.63340  1.0000
  H   H2739     1.0  0.98002  0.40360  0.71587  1.0000
  H   H2740     1.0  0.59985  0.62634  0.68165  1.0000
  H   H2741     1.0  0.57541  0.44971  0.73231  1.0000
  C   C1555     1.0  0.56473  0.46542  0.70237  1.0000
  C   C1556     1.0  0.56431  0.37368  0.70440  1.0000
  H   H2742     1.0  0.87403  0.63574  0.71519  1.0000
  C   C1557     1.0  0.60657  0.42877  0.72573  1.0000
  C   C1558     1.0  0.69943  0.63839  0.60908  1.0000
  H   H2743     1.0  0.84190  0.64624  0.71314  1.0000
  H   H2744     1.0  0.94724  0.64925  0.69928  1.0000
  H   H2745     1.0  0.57970  0.64657  0.67249  1.0000
  H   H2746     1.0  0.66608  0.62758  0.69690  1.0000
  C   C1559     1.0  0.57624  0.48178  0.68594  1.0000
  H   H2747     1.0  0.97292  0.58523  0.71319  1.0000
  C   C1560     1.0  0.95472  0.56974  0.70657  1.0000
  H   H2748     1.0  0.61673  0.44114  0.71406  1.0000
  H   H2749     1.0  0.52395  0.43713  0.72802  1.0000
  H   H2750     1.0  0.58210  0.43184  0.69761  1.0000
  C   C1561     1.0  0.93206  0.33800  0.50468  1.0000
  H   H2751     1.0  0.58956  0.38791  0.70450  1.0000
  H   H2752     1.0  0.91837  0.56511  0.72459  1.0000
  C   C1562     1.0  0.55011  0.60304  0.68488  1.0000
  H   H2753     1.0  0.50165  0.37075  0.68392  1.0000
  H   H2754     1.0  0.50333  0.40884  0.71594  1.0000
  H   H2755     1.0  0.74211  0.65980  0.61999  1.0000
  H   H2756     1.0  0.59916  0.48211  0.68188  1.0000
  H   H2757     1.0  0.94306  0.56601  0.68292  1.0000
  C   C1563     1.0  0.95038  0.35626  0.71360  1.0000
  H   H2758     1.0  0.51976  0.36654  0.71482  1.0000
  C   C1564     1.0  0.92420  0.57170  0.71190  1.0000
  H   H2759     1.0  0.56192  0.65760  0.69722  1.0000
  H   H2760     1.0  0.92651  0.59551  0.70938  1.0000
  C   C1565     1.0  0.51969  0.41375  0.72501  1.0000
  H   H2761     1.0  0.84103  0.61188  0.70584  1.0000
  H   H2762     1.0  0.71271  0.63831  0.59808  1.0000
  C   C1566     1.0  0.96386  0.57933  0.68884  1.0000
  H   H2763     1.0  0.57601  0.63469  0.70798  1.0000
  H   H2764     1.0  0.54239  0.46682  0.70583  1.0000
  H   H2765     1.0  0.66721  0.62363  0.71747  1.0000
  H   H2766     1.0  0.62491  0.63872  0.57534  1.0000
  H   H2767     1.0  0.54231  0.42019  0.69497  1.0000
  H   H2768     1.0  0.52918  0.60792  0.68620  1.0000
  H   H2769     1.0  0.97553  0.35678  0.58959  1.0000
  H   H2770     1.0  0.76081  0.65601  0.72591  1.0000
  H   H2771     1.0  0.58225  0.47827  0.71003  1.0000
  C   C1567     1.0  0.97246  0.38614  0.70801  1.0000
  C   C1568     1.0  0.85649  0.63597  0.70746  1.0000
  H   H2772     1.0  0.55792  0.37881  0.69286  1.0000
  H   H2773     1.0  0.72488  0.61840  0.62221  1.0000
  C   C1569     1.0  0.56001  0.43148  0.70299  1.0000
  C   C1570     1.0  0.66711  0.63927  0.70751  1.0000
  H   H2774     1.0  0.64254  0.62073  0.59783  1.0000
  Fe  Fe175     1.0  0.50351  0.51856  0.63870  1.0000
  H   H2775     1.0  0.85388  0.65297  0.68454  1.0000
  S   S346      1.0  0.49605  0.42332  0.66986  1.0000
  C   C1571     1.0  0.55883  0.33998  0.70593  1.0000
  H   H2776     1.0  0.88599  0.64226  0.68654  1.0000
  C   C1572     1.0  0.63883  0.64665  0.71010  1.0000
  C   C1573     1.0  0.58471  0.61775  0.59223  1.0000
  H   H2777     1.0  0.97907  0.37281  0.55771  1.0000
  H   H2778     1.0  0.61761  0.62486  0.71027  1.0000
  H   H2779     1.0  0.54914  0.59101  0.67436  1.0000
  H   H2780     1.0  0.54140  0.35971  0.50371  1.0000
  C   C1574     1.0  0.97589  0.37099  0.68215  1.0000
  S   S347      1.0  0.50598  0.47510  0.63234  1.0000
  H   H2781     1.0  0.95133  0.54582  0.70987  1.0000
  H   H2782     1.0  0.54956  0.58747  0.69502  1.0000
  C   C1575     1.0  0.58175  0.65096  0.69730  1.0000
  H   H2783     1.0  0.51082  0.37783  0.51758  1.0000
  C   C1576     1.0  0.54402  0.37991  0.71735  1.0000
  H   H2784     1.0  0.90470  0.55586  0.70603  1.0000
  H   H2785     1.0  0.58520  0.59484  0.59355  1.0000
  H   H2786     1.0  0.96758  0.60379  0.68708  1.0000
  H   H2787     1.0  0.97504  0.59756  0.63693  1.0000
  C   C1577     1.0  0.57343  0.42657  0.73004  1.0000
  C   C1578     1.0  0.49919  0.39981  0.49828  1.0000
  H   H2788     1.0  0.54572  0.36862  0.72861  1.0000
  H   H2789     1.0  0.51676  0.60928  0.52391  1.0000
  C   C1579     1.0  0.61737  0.64305  0.58694  1.0000
  H   H2790     1.0  0.48992  0.34385  0.49383  1.0000
  H   H2791     1.0  0.57531  0.62181  0.60350  1.0000
  H   H2792     1.0  0.51669  0.33221  0.52894  1.0000
  H   H2793     1.0  0.91152  0.33856  0.51142  1.0000
  C   C1580     1.0  0.64070  0.64289  0.59850  1.0000
  H   H2794     1.0  0.63933  0.65504  0.72165  1.0000
  H   H2795     1.0  0.56447  0.33331  0.71737  1.0000
  H   H2796     1.0  0.57208  0.33958  0.51997  1.0000
  H   H2797     1.0  0.67821  0.66449  0.62016  1.0000
  H   H2798     1.0  0.93348  0.66168  0.72521  1.0000
  H   H2799     1.0  0.48462  0.61236  0.51530  1.0000
  C   C1581     1.0  0.49125  0.59745  0.52315  1.0000
  H   H2800     1.0  0.49715  0.57081  0.50551  1.0000
  H   H2801     1.0  0.97690  0.61789  0.66255  1.0000
  H   H2802     1.0  0.97703  0.48148  0.68588  1.0000
  H   H2803     1.0  0.94405  0.64988  0.66042  1.0000
  H   H2804     1.0  0.89578  0.65805  0.66169  1.0000
  H   H2805     1.0  0.68925  0.66049  0.70636  1.0000
  H   H2806     1.0  0.93130  0.65099  0.64152  1.0000
  H   H2807     1.0  0.64357  0.66298  0.68605  1.0000
  S   S348      1.0  0.93778  0.34740  0.73368  1.0000
  S   S349      1.0  0.76306  0.39356  0.96988  1.0000
  S   S350      1.0  0.71483  0.42554  0.96389  1.0000
  Fe  Fe176     1.0  0.72506  0.38783  0.95464  1.0000
  S   S351      1.0  0.73376  0.37806  0.93000  1.0000
  Fe  Fe177     1.0  0.65979  0.37649  0.82389  1.0000
  S   S352      1.0  0.69837  0.38467  0.80522  1.0000
  C   C1582     1.0  0.59285  0.34653  0.80526  1.0000
  Fe  Fe178     1.0  0.70451  0.41461  0.84589  1.0000
  S   S353      1.0  0.74704  0.42580  0.82904  1.0000
  S   S354      1.0  0.70531  0.43589  0.86836  1.0000
  Fe  Fe179     1.0  0.71876  0.43345  0.81110  1.0000
  S   S355      1.0  0.73621  0.47344  0.79234  1.0000
  Fe  Fe180     1.0  0.72351  0.37626  0.82454  1.0000
  S   S356      1.0  0.67769  0.42594  0.82814  1.0000
  H   H2808     1.0  0.61019  0.36790  0.95907  1.0000
  H   H2809     1.0  0.72480  0.38663  0.87436  1.0000
  C   C1583     1.0  0.62868  0.44586  0.73727  1.0000
  H   H2810     1.0  0.80582  0.42538  0.80677  1.0000
  Fe  Fe181     1.0  0.87409  0.63329  0.77932  1.0000
  S   S357      1.0  0.86690  0.58782  0.79225  1.0000
  C   C1584     1.0  0.85171  0.46160  0.78444  1.0000
  H   H2811     1.0  0.92020  0.60545  0.97243  1.0000
  H   H2812     1.0  0.79603  0.51958  0.95172  1.0000
  C   C1585     1.0  0.77267  0.50493  0.79252  1.0000
  C   C1586     1.0  0.77860  0.53299  0.78403  1.0000
  C   C1587     1.0  0.80737  0.55858  0.78393  1.0000
  C   C1588     1.0  0.83057  0.55614  0.79218  1.0000
  C   C1589     1.0  0.82478  0.52799  0.80058  1.0000
  C   C1590     1.0  0.79589  0.50245  0.80078  1.0000
  H   H2813     1.0  0.76077  0.53503  0.77758  1.0000
  H   H2814     1.0  0.81161  0.58017  0.77741  1.0000
  H   H2815     1.0  0.84268  0.52600  0.80698  1.0000
  H   H2816     1.0  0.79167  0.48083  0.80718  1.0000
  C   C1591     1.0  0.61008  0.36805  0.79265  1.0000
  H   H2817     1.0  0.61032  0.38445  0.76892  1.0000
  H   H2818     1.0  0.63359  0.38470  0.79362  1.0000
  C   C1592     1.0  0.71251  0.41920  0.88550  1.0000
  C   C1593     1.0  0.70913  0.43039  0.89967  1.0000
  C   C1594     1.0  0.71514  0.41782  0.91347  1.0000
  C   C1595     1.0  0.72491  0.39414  0.91314  1.0000
  C   C1596     1.0  0.72206  0.39541  0.88520  1.0000
  H   H2819     1.0  0.70168  0.44875  0.90000  1.0000
  H   H2820     1.0  0.71243  0.42653  0.92433  1.0000
  C   C1597     1.0  0.79018  0.55971  0.95887  1.0000
  H   H2821     1.0  0.79871  0.45462  0.85316  1.0000
  H   H2822     1.0  0.89106  0.37915  0.95401  1.0000
  H   H2823     1.0  0.88081  0.38391  0.97370  1.0000
  C   C1598     1.0  0.84377  0.34788  0.96394  1.0000
  H   H2824     1.0  0.63114  0.46986  0.73707  1.0000
  C   C1599     1.0  0.85530  0.41207  0.78079  1.0000
  H   H2825     1.0  0.74759  0.39458  0.76677  1.0000
  C   C1600     1.0  0.82999  0.40859  0.83059  1.0000
  C   C1601     1.0  0.50146  0.39115  0.73964  1.0000
  H   H2826     1.0  0.51123  0.34245  0.97380  1.0000
  H   H2827     1.0  0.75266  0.50276  0.90156  1.0000
  H   H2828     1.0  0.84035  0.47727  0.84967  1.0000
  C   C1602     1.0  0.75938  0.51108  0.87651  1.0000
  C   C1603     1.0  0.56644  0.34631  0.77729  1.0000
  C   C1604     1.0  0.74087  0.52071  0.84408  1.0000
  S   S358      1.0  0.75058  0.34725  0.82377  1.0000
  H   H2829     1.0  0.79689  0.57287  0.94720  1.0000
  H   H2830     1.0  0.79156  0.52959  0.89372  1.0000
  C   C1605     1.0  0.81320  0.50409  0.84921  1.0000
  H   H2831     1.0  0.73120  0.34916  0.79293  1.0000
  N   N87       1.0  0.82976  0.60073  0.97418  1.0000
  H   H2832     1.0  0.69719  0.38552  0.75425  1.0000
  H   H2833     1.0  0.88610  0.44179  0.76064  1.0000
  H   H2834     1.0  0.56526  0.41256  0.74151  1.0000
  C   C1606     1.0  0.84285  0.63432  0.94782  1.0000
  C   C1607     1.0  0.85333  0.47997  0.76878  1.0000
  H   H2835     1.0  0.79720  0.39122  0.77595  1.0000
  H   H2836     1.0  0.79121  0.59410  0.84605  1.0000
  H   H2837     1.0  0.83868  0.61649  0.82654  1.0000
  C   C1608     1.0  0.73336  0.51399  0.82733  1.0000
  H   H2838     1.0  0.59636  0.34844  0.94226  1.0000
  H   H2839     1.0  0.75895  0.51994  0.94864  1.0000
  C   C1609     1.0  0.61582  0.38056  0.86525  1.0000
  H   H2840     1.0  0.96454  0.65975  0.91103  1.0000
  H   H2841     1.0  0.83798  0.56828  0.96037  1.0000
  H   H2842     1.0  0.78054  0.49704  0.83247  1.0000
  Fe  Fe182     1.0  0.68060  0.38815  0.98177  1.0000
  H   H2843     1.0  0.55355  0.35862  0.86555  1.0000
  H   H2844     1.0  0.79826  0.54885  0.82411  1.0000
  H   H2845     1.0  0.84772  0.41464  0.83892  1.0000
  H   H2846     1.0  0.86034  0.47043  0.75878  1.0000
  H   H2847     1.0  0.81529  0.50708  0.86164  1.0000
  H   H2848     1.0  0.63801  0.38300  0.86972  1.0000
  C   C1610     1.0  0.87835  0.36676  0.96540  1.0000
  C   C1611     1.0  0.67349  0.36819  0.75898  1.0000
  H   H2849     1.0  0.89469  0.40184  0.74761  1.0000
  S   S359      1.0  0.60902  0.34496  0.82271  1.0000
  H   H2850     1.0  0.62113  0.38994  0.85285  1.0000
  C   C1612     1.0  0.82153  0.41508  0.80240  1.0000
  C   C1613     1.0  0.59688  0.36789  0.77869  1.0000
  H   H2851     1.0  0.60623  0.39420  0.87187  1.0000
  H   H2852     1.0  0.55910  0.33819  0.97720  1.0000
  H   H2853     1.0  0.84279  0.38665  0.78394  1.0000
  C   C1614     1.0  0.77728  0.52562  0.95664  1.0000
  H   H2854     1.0  0.68986  0.33289  0.76051  1.0000
  H   H2855     1.0  0.80531  0.63132  0.93403  1.0000
  C   C1615     1.0  0.77912  0.42391  0.78186  1.0000
  H   H2856     1.0  0.77035  0.55597  0.86516  1.0000
  C   C1616     1.0  0.75632  0.41861  0.76969  1.0000
  C   C1617     1.0  0.60604  0.34686  0.95334  1.0000
  H   H2857     1.0  0.81384  0.55133  0.97790  1.0000
  H   H2858     1.0  0.84108  0.47117  0.79328  1.0000
  H   H2859     1.0  0.80306  0.54731  0.86532  1.0000
  C   C1618     1.0  0.56176  0.34231  0.86045  1.0000
  H   H2860     1.0  0.78644  0.33201  0.94642  1.0000
  H   H2861     1.0  0.76591  0.40856  0.79250  1.0000
  H   H2862     1.0  0.78741  0.44801  0.78455  1.0000
  S   S360      1.0  0.68338  0.36440  0.84303  1.0000
  H   H2863     1.0  0.73607  0.42272  0.77427  1.0000
  H   H2864     1.0  0.73593  0.36479  0.89859  1.0000
  H   H2865     1.0  0.76783  0.43475  0.75906  1.0000
  H   H2866     1.0  0.81312  0.41827  0.83381  1.0000
  H   H2867     1.0  0.81009  0.63075  0.82244  1.0000
  H   H2868     1.0  0.82098  0.56333  0.83927  1.0000
  H   H2869     1.0  0.53061  0.34065  0.83451  1.0000
  H   H2870     1.0  0.76533  0.49124  0.87574  1.0000
  C   C1619     1.0  0.59275  0.34668  0.86710  1.0000
  H   H2871     1.0  0.86121  0.40919  0.81163  1.0000
  H   H2872     1.0  0.60440  0.33436  0.86080  1.0000
  H   H2873     1.0  0.87624  0.41998  0.78716  1.0000
  H   H2874     1.0  0.81720  0.38314  0.83158  1.0000
  C   C1620     1.0  0.82813  0.64878  0.93662  1.0000
  H   H2875     1.0  0.87705  0.61515  0.96330  1.0000
  H   H2876     1.0  0.84990  0.41277  0.75567  1.0000
  H   H2877     1.0  0.49233  0.36700  0.73692  1.0000
  H   H2878     1.0  0.83014  0.47959  0.76720  1.0000
  H   H2879     1.0  0.84384  0.65830  0.92561  1.0000
  C   C1621     1.0  0.77798  0.53739  0.86335  1.0000
  H   H2880     1.0  0.68873  0.34980  0.77809  1.0000
  H   H2881     1.0  0.84521  0.61489  0.94263  1.0000
  C   C1622     1.0  0.81749  0.47513  0.84625  1.0000
  H   H2882     1.0  0.76722  0.57971  0.83075  1.0000
  H   H2883     1.0  0.86751  0.37230  0.76194  1.0000
  H   H2884     1.0  0.90060  0.51560  0.76891  1.0000
  C   C1623     1.0  0.88458  0.39686  0.75994  1.0000
  H   H2885     1.0  0.95843  0.66173  0.88302  1.0000
  H   H2886     1.0  0.91110  0.65294  0.83701  1.0000
  C   C1624     1.0  0.79688  0.55573  0.83597  1.0000
  H   H2887     1.0  0.72469  0.49963  0.85166  1.0000
  C   C1625     1.0  0.75994  0.33478  0.80636  1.0000
  C   C1626     1.0  0.76637  0.52201  0.89242  1.0000
  H   H2888     1.0  0.69736  0.53097  0.82668  1.0000
  H   H2889     1.0  0.87349  0.63771  0.97790  1.0000
  H   H2890     1.0  0.76252  0.48018  0.85120  1.0000
  C   C1627     1.0  0.81897  0.56960  0.96816  1.0000
  H   H2891     1.0  0.94648  0.64771  0.83294  1.0000
  H   H2892     1.0  0.77083  0.56374  0.96460  1.0000
  C   C1628     1.0  0.70004  0.50944  0.82525  1.0000
  C   C1629     1.0  0.79037  0.58476  0.83473  1.0000
  H   H2893     1.0  0.68295  0.49067  0.83378  1.0000
  C   C1630     1.0  0.86465  0.61375  0.97487  1.0000
  C   C1631     1.0  0.87654  0.51364  0.76821  1.0000
  C   C1632     1.0  0.86839  0.41770  0.76348  1.0000
  H   H2894     1.0  0.90375  0.40059  0.76730  1.0000
  H   H2895     1.0  0.69484  0.50310  0.81341  1.0000
  H   H2896     1.0  0.74923  0.53293  0.81857  1.0000
  H   H2897     1.0  0.81409  0.60211  0.81135  1.0000
  H   H2898     1.0  0.62886  0.34581  0.95074  1.0000
  H   H2899     1.0  0.79845  0.61528  0.96237  1.0000
  H   H2900     1.0  0.82854  0.64494  0.96983  1.0000
  H   H2901     1.0  0.81704  0.47188  0.83375  1.0000
  S   S361      1.0  0.80791  0.66408  0.74618  1.0000
  C   C1633     1.0  0.80677  0.41652  0.77622  1.0000
  H   H2902     1.0  0.73531  0.49259  0.82475  1.0000
  H   H2903     1.0  0.74793  0.33437  0.76831  1.0000
  H   H2904     1.0  0.87626  0.52647  0.75717  1.0000
  S   S362      1.0  0.55111  0.34580  0.75943  1.0000
  H   H2905     1.0  0.87015  0.52450  0.77790  1.0000
  H   H2906     1.0  0.84821  0.33870  0.94060  1.0000
  H   H2907     1.0  0.86672  0.65196  0.94895  1.0000
  H   H2908     1.0  0.86083  0.44606  0.81387  1.0000
  C   C1634     1.0  0.72836  0.38307  0.89895  1.0000
  H   H2909     1.0  0.73367  0.53895  0.84732  1.0000
  H   H2910     1.0  0.51618  0.39351  0.74920  1.0000
  C   C1635     1.0  0.81485  0.61000  0.82307  1.0000
  H   H2911     1.0  0.81409  0.42614  0.76392  1.0000
  H   H2912     1.0  0.83267  0.52374  0.84220  1.0000
  C   C1636     1.0  0.84603  0.42107  0.81411  1.0000
  H   H2913     1.0  0.87601  0.46802  0.78730  1.0000
  H   H2914     1.0  0.80707  0.38991  0.80347  1.0000
  Fe  Fe183     1.0  0.74996  0.42846  0.98051  1.0000
  N   N88       1.0  0.83411  0.42701  0.78565  1.0000
  H   H2915     1.0  0.73386  0.50286  0.87607  1.0000
  H   H2916     1.0  0.83374  0.36410  0.96022  1.0000
  C   C1637     1.0  0.82350  0.62378  0.96401  1.0000
  H   H2917     1.0  0.76647  0.51145  0.96790  1.0000
  S   S363      1.0  0.87895  0.64369  0.75339  1.0000
  H   H2918     1.0  0.75973  0.54124  0.89414  1.0000
  N   N89       1.0  0.77421  0.52884  0.84705  1.0000
  C   C1638     1.0  0.78114  0.50148  0.84478  1.0000
  S   S364      1.0  0.68789  0.35029  0.97117  1.0000
  H   H2919     1.0  0.97822  0.34772  0.92951  1.0000
  C   C1639     1.0  0.74761  0.33899  0.79277  1.0000
  S   S365      1.0  0.84271  0.65670  0.78436  1.0000
  H   H2920     1.0  0.65941  0.36047  0.74918  1.0000
  C   C1640     1.0  0.67580  0.34110  0.76812  1.0000
  H   H2921     1.0  0.88902  0.35161  0.96984  1.0000
  H   H2922     1.0  0.56852  0.35065  0.84795  1.0000
  H   H2923     1.0  0.66260  0.37937  0.76665  1.0000
  C   C1641     1.0  0.93536  0.66373  0.83113  1.0000
  H   H2924     1.0  0.61984  0.43395  0.74919  1.0000
  H   H2925     1.0  0.58883  0.33831  0.87959  1.0000
  H   H2926     1.0  0.83223  0.33664  0.97557  1.0000
  H   H2927     1.0  0.83762  0.45248  0.98397  1.0000
  H   H2928     1.0  0.65212  0.44654  0.73416  1.0000
  H   H2929     1.0  0.55680  0.99347  0.18606  1.0000
  H   H2930     1.0  0.54515  0.81865  0.09312  1.0000
  H   H2931     1.0  0.58735  0.75360  0.98601  1.0000
  Fe  Fe184     1.0  0.65578  0.69058  0.13539  1.0000
  S   S366      1.0  0.67068  0.73774  0.12232  1.0000
  C   C1642     1.0  0.86208  0.68964  0.99294  1.0000
  Fe  Fe185     1.0  0.65266  0.85128  0.02564  1.0000
  S   S367      1.0  0.60558  0.81137  0.03040  1.0000
  S   S368      1.0  0.68682  0.85064  0.00610  1.0000
  Fe  Fe186     1.0  0.64035  0.88214  0.05338  1.0000
  S   S369      1.0  0.59202  0.84480  0.06013  1.0000
  S   S370      1.0  0.66573  0.92462  0.06557  1.0000
  Fe  Fe187     1.0  0.61397  0.81227  0.05544  1.0000
  S   S371      1.0  0.59765  0.76606  0.06981  1.0000
  Fe  Fe188     1.0  0.58738  0.84651  0.03461  1.0000
  S   S372      1.0  0.54499  0.84559  0.02381  1.0000
  S   S373      1.0  0.66273  0.84936  0.05048  1.0000
  S   S374      1.0  0.63407  0.88681  0.02807  1.0000
  C   C1643     1.0  0.57700  0.84911  0.98504  1.0000
  H   H2932     1.0  0.63768  0.86208  0.13308  1.0000
  H   H2933     1.0  0.64502  0.77532  0.15705  1.0000
  S   S375      1.0  0.61700  0.95989  0.12806  1.0000
  H   H2934     1.0  0.66298  0.80878  0.13274  1.0000
  C   C1644     1.0  0.65162  0.93353  0.08305  1.0000
  C   C1645     1.0  0.62054  0.91763  0.08957  1.0000
  C   C1646     1.0  0.61029  0.92588  0.10340  1.0000
  C   C1647     1.0  0.63101  0.94989  0.11087  1.0000
  C   C1648     1.0  0.66221  0.96528  0.10453  1.0000
  C   C1649     1.0  0.67237  0.95733  0.09061  1.0000
  H   H2935     1.0  0.60435  0.89929  0.08386  1.0000
  H   H2936     1.0  0.58612  0.91376  0.10827  1.0000
  H   H2937     1.0  0.67407  0.73738  0.06929  1.0000
  H   H2938     1.0  0.59970  0.69263  0.19621  1.0000
  H   H2939     1.0  0.62426  0.87554  0.11715  1.0000
  C   C1650     1.0  0.68904  0.78466  0.04575  1.0000
  C   C1651     1.0  0.65069  0.74426  0.10721  1.0000
  C   C1652     1.0  0.66473  0.77217  0.09758  1.0000
  C   C1653     1.0  0.64901  0.77886  0.08581  1.0000
  C   C1654     1.0  0.61899  0.75779  0.08374  1.0000
  C   C1655     1.0  0.60527  0.72954  0.09311  1.0000
  C   C1656     1.0  0.62109  0.72271  0.10480  1.0000
  H   H2940     1.0  0.68777  0.78882  0.09934  1.0000
  H   H2941     1.0  0.65989  0.80052  0.07852  1.0000
  H   H2942     1.0  0.58206  0.71305  0.09148  1.0000
  H   H2943     1.0  0.61010  0.70110  0.11214  1.0000
  C   C1657     1.0  0.76403  0.98411  0.22328  1.0000
  C   C1658     1.0  0.58828  0.87038  0.14430  1.0000
  C   C1659     1.0  0.51781  0.78224  0.02611  1.0000
  C   C1660     1.0  0.51829  0.80955  0.01924  1.0000
  H   H2944     1.0  0.56922  0.88674  0.99376  1.0000
  N   N90       1.0  0.62309  0.83047  0.11565  1.0000
  H   H2945     1.0  0.67160  0.69115  0.09508  1.0000
  H   H2946     1.0  0.53406  0.78300  0.03434  1.0000
  H   H2947     1.0  0.59939  0.84449  0.09840  1.0000
  C   C1661     1.0  0.72337  0.74672  0.20186  1.0000
  H   H2948     1.0  0.70291  0.74280  0.09052  1.0000
  C   C1662     1.0  0.94745  0.71848  0.07400  1.0000
  C   C1663     1.0  0.60185  0.82345  0.10288  1.0000
  H   H2949     1.0  0.72637  0.76958  0.19771  1.0000
  H   H2950     1.0  0.60730  0.99630  0.19698  1.0000
  H   H2951     1.0  0.57488  0.95294  0.18233  1.0000
  H   H2952     1.0  0.63256  0.74984  0.99644  1.0000
  H   H2953     1.0  0.67302  0.85131  0.11726  1.0000
  C   C1664     1.0  0.70840  0.72210  0.19313  1.0000
  C   C1665     1.0  0.70424  0.69242  0.19843  1.0000
  C   C1666     1.0  0.61962  0.85441  0.12492  1.0000
  H   H2954     1.0  0.69988  0.72604  0.18239  1.0000
  C   C1667     1.0  0.73414  0.74192  0.21599  1.0000
  H   H2955     1.0  0.72420  0.70755  0.10009  1.0000
  C   C1668     1.0  0.49644  0.89326  0.01473  1.0000
  C   C1669     1.0  0.63299  0.70417  0.22213  1.0000
  C   C1670     1.0  0.65656  0.84353  0.10834  1.0000
  H   H2956     1.0  0.56470  0.86393  0.15047  1.0000
  H   H2957     1.0  0.78944  0.72091  0.98974  1.0000
  H   H2958     1.0  0.59472  0.80404  0.99457  1.0000
  H   H2959     1.0  0.73369  0.66894  0.11528  1.0000
  H   H2960     1.0  0.50326  0.90189  0.02600  1.0000
  H   H2961     1.0  0.57026  0.77434  0.10741  1.0000
  H   H2962     1.0  0.65600  0.71441  0.21482  1.0000
  C   C1671     1.0  0.63918  0.80372  0.13819  1.0000
  H   H2963     1.0  0.66589  0.77842  0.05237  1.0000
  C   C1672     1.0  0.63047  0.77198  0.99609  1.0000
  C   C1673     1.0  0.55929  0.99318  0.19871  1.0000
  H   H2964     1.0  0.84557  0.68046  0.00327  1.0000
  C   C1674     1.0  0.61692  0.80115  0.12564  1.0000
  H   H2965     1.0  0.57944  0.82376  0.14169  1.0000
  C   C1675     1.0  0.78578  0.74087  0.98478  1.0000
  H   H2966     1.0  0.65029  0.97208  0.05128  1.0000
  H   H2967     1.0  0.73290  0.78315  0.04846  1.0000
  H   H2968     1.0  0.55624  0.79216  0.08326  1.0000
  C   C1676     1.0  0.73041  0.71234  0.22114  1.0000
  H   H2969     1.0  0.73930  0.76882  0.08069  1.0000
  H   H2970     1.0  0.78397  0.72056  0.03854  1.0000
  H   H2971     1.0  0.78876  0.75905  0.03218  1.0000
  H   H2972     1.0  0.87168  0.68923  0.12784  1.0000
  H   H2973     1.0  0.68557  0.77286  0.03507  1.0000
  H   H2974     1.0  0.75792  0.72294  0.06363  1.0000
  H   H2975     1.0  0.60490  0.87307  0.15304  1.0000
  C   C1677     1.0  0.62792  0.77346  0.14867  1.0000
  C   C1678     1.0  0.66733  0.68239  0.08363  1.0000
  H   H2976     1.0  0.76946  0.72786  0.02091  1.0000
  H   H2977     1.0  0.56988  0.84364  0.12588  1.0000
  H   H2978     1.0  0.61983  0.77343  0.00761  1.0000
  S   S376      1.0  0.95320  0.66696  0.14035  1.0000
  H   H2979     1.0  0.68522  0.98026  0.22226  1.0000
  C   C1679     1.0  0.71017  0.77594  0.05558  1.0000
  C   C1680     1.0  0.74520  0.73571  0.05865  1.0000
  C   C1681     1.0  0.76725  0.67065  0.09662  1.0000
  C   C1682     1.0  0.75402  0.75095  0.10716  1.0000
  S   S377      1.0  0.90119  0.67033  0.00831  1.0000
  H   H2980     1.0  0.76170  0.76039  0.05815  1.0000
  H   H2981     1.0  0.49515  0.73274  0.02821  1.0000
  C   C1683     1.0  0.66698  0.87139  0.09580  1.0000
  C   C1684     1.0  0.69998  0.87972  0.08814  1.0000
  H   H2982     1.0  0.66125  0.82542  0.10305  1.0000
  H   H2983     1.0  0.66740  0.89185  0.10106  1.0000
  H   H2984     1.0  0.65132  0.86661  0.08652  1.0000
  H   H2985     1.0  0.70063  0.86043  0.08207  1.0000
  H   H2986     1.0  0.70728  0.90015  0.07947  1.0000
  H   H2987     1.0  0.71687  0.88535  0.09689  1.0000
  C   C1685     1.0  0.66690  0.99401  0.04454  1.0000
  H   H2988     1.0  0.84397  0.70429  0.12316  1.0000
  C   C1686     1.0  0.74130  0.72750  0.04178  1.0000
  H   H2989     1.0  0.61243  0.81676  0.09273  1.0000
  S   S378      1.0  0.62769  0.67415  0.15884  1.0000
  H   H2990     1.0  0.72319  0.94922  0.21406  1.0000
  H   H2991     1.0  0.51548  0.88830  0.00919  1.0000
  C   C1687     1.0  0.49691  0.80819  0.00868  1.0000
  C   C1688     1.0  0.74084  0.73050  0.09442  1.0000
  H   H2992     1.0  0.76474  0.73999  0.11504  1.0000
  H   H2993     1.0  0.76066  0.72825  0.08800  1.0000
  H   H2994     1.0  0.55699  0.79794  0.11805  1.0000
  H   H2995     1.0  0.73099  0.74107  0.03541  1.0000
  H   H2996     1.0  0.93392  0.69351  0.07759  1.0000
  H   H2997     1.0  0.58299  0.97519  0.21461  1.0000
  C   C1689     1.0  0.72399  0.74388  0.08357  1.0000
  H   H2998     1.0  0.68530  0.72798  0.05130  1.0000
  S   S379      1.0  0.81128  0.67292  0.07383  1.0000
  H   H2999     1.0  0.96036  0.72166  0.06237  1.0000
  H   H3000     1.0  0.74728  0.92197  0.22786  1.0000
  H   H3001     1.0  0.60492  0.76797  0.15524  1.0000
  H   H3002     1.0  0.77222  0.77377  0.10209  1.0000
  H   H3003     1.0  0.88982  0.69489  0.09958  1.0000
  H   H3004     1.0  0.75359  0.67765  0.15055  1.0000
  C   C1690     1.0  0.74724  0.96633  0.21000  1.0000
  H   H3005     1.0  0.71407  0.78946  0.06567  1.0000
  H   H3006     1.0  0.49392  0.91132  0.00707  1.0000
  C   C1691     1.0  0.77287  0.73422  0.03286  1.0000
  H   H3007     1.0  0.50689  0.98431  0.15668  1.0000
  C   C1692     1.0  0.58733  0.84557  0.13405  1.0000
  C   C1693     1.0  0.49566  0.75378  0.02267  1.0000
  H   H3008     1.0  0.89647  0.69926  0.23313  1.0000
  H   H3009     1.0  0.71332  0.68424  0.07715  1.0000
  H   H3010     1.0  0.86191  0.71001  0.09520  1.0000
  H   H3011     1.0  0.62124  0.71935  0.21939  1.0000
  C   C1694     1.0  0.71567  0.68779  0.21236  1.0000
  H   H3012     1.0  0.73528  0.75419  0.11410  1.0000
  C   C1695     1.0  0.61114  0.67716  0.19887  1.0000
  C   C1696     1.0  0.89105  0.68833  0.99262  1.0000
  H   H3013     1.0  0.92643  0.71859  0.20723  1.0000
  H   H3014     1.0  0.55256  0.93210  0.20046  1.0000
  H   H3015     1.0  0.53670  0.97555  0.20464  1.0000
  H   H3016     1.0  0.64060  0.82191  0.14563  1.0000
  H   H3017     1.0  0.61832  0.78378  0.11815  1.0000
  C   C1697     1.0  0.54720  0.79649  0.09451  1.0000
  H   H3018     1.0  0.65782  0.88880  0.99358  1.0000
  H   H3019     1.0  0.63492  0.68698  0.19244  1.0000
  H   H3020     1.0  0.59376  0.94166  0.19713  1.0000
  C   C1698     1.0  0.61301  0.67294  0.21624  1.0000
  C   C1699     1.0  0.56861  0.79675  0.10682  1.0000
  H   H3021     1.0  0.78276  0.69441  0.09733  1.0000
  H   H3022     1.0  0.59284  0.79049  0.13164  1.0000
  H   H3023     1.0  0.78840  0.94210  0.22530  1.0000
  S   S380      1.0  0.88373  0.66655  0.05374  1.0000
  H   H3024     1.0  0.73901  0.70839  0.23186  1.0000
  H   H3025     1.0  0.94475  0.75225  0.22838  1.0000
  H   H3026     1.0  0.65429  0.79098  0.99366  1.0000
  H   H3027     1.0  0.79127  0.75799  0.99331  1.0000
  H   H3028     1.0  0.52355  0.77774  0.09798  1.0000
  C   C1700     1.0  0.85605  0.69027  0.11918  1.0000
  H   H3029     1.0  0.93078  0.72912  0.07314  1.0000
  C   C1701     1.0  0.69798  0.69434  0.07245  1.0000
  C   C1702     1.0  0.57553  0.94987  0.19503  1.0000
  H   H3030     1.0  0.64999  0.68936  0.07877  1.0000
  H   H3031     1.0  0.90156  0.75886  0.23332  1.0000
  C   C1703     1.0  0.69490  0.74104  0.06119  1.0000
  H   H3032     1.0  0.69125  0.68372  0.06160  1.0000
  N   N91       1.0  0.71546  0.72877  0.06896  1.0000
  C   C1704     1.0  0.92960  0.70071  0.21471  1.0000
  H   H3033     1.0  0.69998  0.80984  0.04225  1.0000
  H   H3034     1.0  0.67851  0.98329  0.11038  1.0000
  H   H3035     1.0  0.66464  0.67806  0.23176  1.0000
  H   H3036     1.0  0.69654  0.96947  0.08573  1.0000
  H   H3037     1.0  0.95581  0.73153  0.09682  1.0000
  H   H3038     1.0  0.72614  0.70278  0.04154  1.0000
  H   H3039     1.0  0.95423  0.70393  0.21260  1.0000
  H   H3040     1.0  0.76039  0.95411  0.20488  1.0000
  H   H3041     1.0  0.98311  0.75817  0.08155  1.0000
  C   C1705     1.0  0.87651  0.70740  0.10412  1.0000
  H   H3042     1.0  0.89342  0.73063  0.10625  1.0000
  H   H3043     1.0  0.49762  0.82922  0.00307  1.0000
  H   H3044     1.0  0.59546  0.89276  0.13719  1.0000
  S   S381      1.0  0.69498  0.67916  0.14225  1.0000
  H   H3045     1.0  0.62577  0.75433  0.14171  1.0000
  C   C1706     1.0  0.97007  0.73347  0.08575  1.0000
  H   H3046     1.0  0.65185  0.76538  0.22509  1.0000
  S   S382      1.0  0.75151  0.77343  0.22688  1.0000
  C   C1707     1.0  0.58338  0.98019  0.20196  1.0000
  C   C1708     1.0  0.76744  0.93631  0.23379  1.0000
  C   C1709     1.0  0.68987  0.86923  0.98740  1.0000
  C   C1710     1.0  0.92109  0.70245  0.23177  1.0000
  H   H3047     1.0  0.71278  0.66495  0.21649  1.0000
  H   H3048     1.0  0.90723  0.66659  0.12108  1.0000
  H   H3049     1.0  0.77282  0.66979  0.16634  1.0000
  H   H3050     1.0  0.97737  0.69430  0.09437  1.0000
  H   H3051     1.0  0.73239  0.97499  0.18785  1.0000
  H   H3052     1.0  0.55236  0.83288  0.98852  1.0000
  H   H3053     1.0  0.91434  0.67780  0.21141  1.0000
  H   H3054     1.0  0.78650  0.88852  0.23345  1.0000
  H   H3055     1.0  0.81035  0.67487  0.14351  1.0000
  H   H3056     1.0  0.54568  0.78372  0.98634  1.0000
  C   C1711     1.0  0.74553  0.98828  0.19693  1.0000
  H   H3057     1.0  0.59082  0.84845  0.99469  1.0000
  C   C1712     1.0  0.67285  0.88633  0.98434  1.0000
  H   H3058     1.0  0.68551  0.98972  0.03806  1.0000
  H   H3059     1.0  0.78689  0.66817  0.12796  1.0000
  H   H3060     1.0  0.49827  0.98854  0.19930  1.0000
  C   C1713     1.0  0.49019  0.70707  0.40242  1.0000
  H   H3061     1.0  0.85421  0.91719  0.44632  1.0000
  S   S383      1.0  0.93250  0.72744  0.30886  1.0000
  Fe  Fe189     1.0  0.75851  0.77083  0.25253  1.0000
  S   S384      1.0  0.79065  0.81364  0.26219  1.0000
  H   H3062     1.0  0.82068  0.72057  0.40008  1.0000
  Fe  Fe190     1.0  0.73491  0.73550  0.28476  1.0000
  S   S385      1.0  0.76464  0.77538  0.29688  1.0000
  Fe  Fe191     1.0  0.75080  0.80450  0.28038  1.0000
  S   S386      1.0  0.72781  0.83599  0.28715  1.0000
  Fe  Fe192     1.0  0.80277  0.78165  0.27794  1.0000
  S   S387      1.0  0.85435  0.79717  0.28189  1.0000
  S   S388      1.0  0.71804  0.76362  0.26980  1.0000
  S   S389      1.0  0.77372  0.73978  0.26674  1.0000
  H   H3063     1.0  0.65264  0.71008  0.34199  1.0000
  H   H3064     1.0  0.49433  0.68003  0.36708  1.0000
  S   S390      1.0  0.78301  0.98102  0.28957  1.0000
  C   C1714     1.0  0.57889  0.89172  0.41046  1.0000
  H   H3065     1.0  0.88846  0.69501  0.35802  1.0000
  C   C1715     1.0  0.63623  0.90788  0.30106  1.0000
  Fe  Fe193     1.0  0.68498  0.71070  0.40767  1.0000
  S   S391      1.0  0.72488  0.74860  0.39318  1.0000
  S   S392      1.0  0.68823  0.70958  0.43384  1.0000
  Fe  Fe194     1.0  0.68758  0.75260  0.37883  1.0000
  S   S393      1.0  0.67284  0.79326  0.37407  1.0000
  S   S394      1.0  0.64814  0.71477  0.39378  1.0000
  Fe  Fe195     1.0  0.51896  0.83867  0.35900  1.0000
  S   S395      1.0  0.52822  0.87149  0.37713  1.0000
  S   S396      1.0  0.55492  0.81769  0.35237  1.0000
  S   S397      1.0  0.51956  0.94846  0.35813  1.0000
  Fe  Fe196     1.0  0.55054  0.97478  0.41040  1.0000
  S   S398      1.0  0.53458  0.96535  0.43614  1.0000
  H   H3066     1.0  0.84252  0.77635  0.46690  1.0000
  H   H3067     1.0  0.49819  0.83145  0.46581  1.0000
  H   H3068     1.0  0.97430  0.66929  0.43551  1.0000
  H   H3069     1.0  0.57560  0.91902  0.30903  1.0000
  H   H3070     1.0  0.93661  0.73702  0.34310  1.0000
  C   C1716     1.0  0.93678  0.72662  0.35486  1.0000
  H   H3071     1.0  0.68603  0.91539  0.26973  1.0000
  H   H3072     1.0  0.77293  0.69034  0.31138  1.0000
  C   C1717     1.0  0.63713  0.79642  0.36954  1.0000
  C   C1718     1.0  0.61863  0.78004  0.35844  1.0000
  C   C1719     1.0  0.59377  0.78660  0.35352  1.0000
  C   C1720     1.0  0.58583  0.80906  0.35982  1.0000
  C   C1721     1.0  0.60365  0.82470  0.37127  1.0000
  C   C1722     1.0  0.62912  0.81882  0.37586  1.0000
  H   H3073     1.0  0.62435  0.76315  0.35309  1.0000
  H   H3074     1.0  0.58076  0.77428  0.34458  1.0000
  H   H3075     1.0  0.59830  0.84199  0.37632  1.0000
  H   H3076     1.0  0.64302  0.83211  0.38430  1.0000
  H   H3077     1.0  0.56152  0.77244  0.39182  1.0000
  C   C1723     1.0  0.57110  0.90533  0.33334  1.0000
  C   C1724     1.0  0.75501  0.79113  0.45774  1.0000
  C   C1725     1.0  0.73938  0.76168  0.46580  1.0000
  C   C1726     1.0  0.71886  0.73707  0.45840  1.0000
  C   C1727     1.0  0.71365  0.74148  0.44289  1.0000
  C   C1728     1.0  0.72901  0.77101  0.43494  1.0000
  C   C1729     1.0  0.74956  0.79553  0.44229  1.0000
  C   C1730     1.0  0.65095  0.67957  0.24234  1.0000
  H   H3078     1.0  0.70697  0.71444  0.46475  1.0000
  H   H3079     1.0  0.72497  0.77504  0.42312  1.0000
  H   H3080     1.0  0.76141  0.81809  0.43593  1.0000
  H   H3081     1.0  0.55939  0.90757  0.34440  1.0000
  H   H3082     1.0  0.56909  0.96078  0.33329  1.0000
  H   H3083     1.0  0.67701  0.79035  0.25517  1.0000
  C   C1731     1.0  0.89494  0.75916  0.24574  1.0000
  H   H3084     1.0  0.95033  0.79208  0.29705  1.0000
  H   H3085     1.0  0.79166  0.92610  0.25256  1.0000
  C   C1732     1.0  0.60192  0.96467  0.37311  1.0000
  C   C1733     1.0  0.61645  0.96672  0.35813  1.0000
  H   H3086     1.0  0.57745  0.94937  0.37605  1.0000
  H   H3087     1.0  0.60271  0.95332  0.34985  1.0000
  H   H3088     1.0  0.85473  0.76785  0.24111  1.0000
  C   C1734     1.0  0.57768  0.95791  0.32151  1.0000
  C   C1735     1.0  0.74405  0.87640  0.28750  1.0000
  C   C1736     1.0  0.77625  0.89444  0.28643  1.0000
  C   C1737     1.0  0.78780  0.92641  0.28719  1.0000
  C   C1738     1.0  0.76736  0.94063  0.28903  1.0000
  C   C1739     1.0  0.73522  0.92262  0.28992  1.0000
  C   C1740     1.0  0.72366  0.89071  0.28917  1.0000
  H   H3089     1.0  0.79222  0.88376  0.28510  1.0000
  H   H3090     1.0  0.81275  0.94019  0.28637  1.0000
  H   H3091     1.0  0.71932  0.93336  0.29108  1.0000
  H   H3092     1.0  0.69876  0.87695  0.28980  1.0000
  H   H3093     1.0  0.74218  0.95146  0.26115  1.0000
  H   H3094     1.0  0.59060  0.67023  0.24667  1.0000
  H   H3095     1.0  0.67087  0.81102  0.23871  1.0000
  H   H3096     1.0  0.88564  0.71329  0.25522  1.0000
  H   H3097     1.0  0.68480  0.72472  0.31634  1.0000
  C   C1741     1.0  0.91141  0.74765  0.30151  1.0000
  C   C1742     1.0  0.87919  0.73126  0.30066  1.0000
  C   C1743     1.0  0.86137  0.74587  0.29464  1.0000
  C   C1744     1.0  0.87551  0.77733  0.28959  1.0000
  C   C1745     1.0  0.90772  0.79378  0.29056  1.0000
  C   C1746     1.0  0.92560  0.77908  0.29644  1.0000
  H   H3098     1.0  0.86808  0.70692  0.30437  1.0000
  H   H3099     1.0  0.83683  0.73268  0.29369  1.0000
  H   H3100     1.0  0.91897  0.81812  0.28666  1.0000
  Fe  Fe197     1.0  0.50156  0.89429  0.36456  1.0000
  H   H3101     1.0  0.74314  0.75785  0.47770  1.0000
  H   H3102     1.0  0.75247  0.91095  0.43536  1.0000
  H   H3103     1.0  0.85212  0.95359  0.44572  1.0000
  H   H3104     1.0  0.95214  0.77789  0.26673  1.0000
  H   H3105     1.0  0.73532  0.98068  0.25134  1.0000
  H   H3106     1.0  0.50447  0.86527  0.42651  1.0000
  C   C1747     1.0  0.86087  0.71361  0.40507  1.0000
  H   H3107     1.0  0.54581  0.70316  0.35071  1.0000
  H   H3108     1.0  0.85173  0.74978  0.26030  1.0000
  H   H3109     1.0  0.62393  0.71606  0.26958  1.0000
  H   H3110     1.0  0.82329  0.79962  0.41979  1.0000
  C   C1748     1.0  0.53482  0.96599  0.31145  1.0000
  H   H3111     1.0  0.90025  0.67490  0.26210  1.0000
  H   H3112     1.0  0.56889  0.87452  0.40223  1.0000
  H   H3113     1.0  0.49709  0.92565  0.46611  1.0000
  S   S399      1.0  0.50309  0.94227  0.40443  1.0000
  H   H3114     1.0  0.54136  0.90550  0.41123  1.0000
  H   H3115     1.0  0.87749  0.73782  0.40123  1.0000
  H   H3116     1.0  0.95478  0.68813  0.41308  1.0000
  S   S400      1.0  0.49227  0.86141  0.34574  1.0000
  H   H3117     1.0  0.56382  0.91553  0.42700  1.0000
  H   H3118     1.0  0.62530  0.97340  0.29792  1.0000
  N   N92       1.0  0.49919  0.72599  0.38671  1.0000
  C   C1749     1.0  0.82889  0.72917  0.42442  1.0000
  H   H3119     1.0  0.79618  0.97234  0.25578  1.0000
  C   C1750     1.0  0.80993  0.97375  0.46406  1.0000
  C   C1751     1.0  0.91121  0.69389  0.35801  1.0000
  S   S401      1.0  0.66421  0.98727  0.33432  1.0000
  H   H3120     1.0  0.86543  0.68681  0.33633  1.0000
  H   H3121     1.0  0.61058  0.94748  0.27401  1.0000
  S   S402      1.0  0.60092  0.98026  0.40334  1.0000
  H   H3122     1.0  0.59526  0.91368  0.40365  1.0000
  C   C1752     1.0  0.77195  0.70391  0.43395  1.0000
  C   C1753     1.0  0.75992  0.89195  0.43591  1.0000
  H   H3123     1.0  0.54888  0.91023  0.45263  1.0000
  C   C1754     1.0  0.67674  0.79172  0.24241  1.0000
  C   C1755     1.0  0.54047  0.77126  0.39883  1.0000
  C   C1756     1.0  0.67458  0.70109  0.32149  1.0000
  C   C1757     1.0  0.62249  0.99454  0.44436  1.0000
  C   C1758     1.0  0.56459  0.92296  0.31983  1.0000
  C   C1759     1.0  0.76414  0.89623  0.46935  1.0000
  C   C1760     1.0  0.79292  0.75188  0.41602  1.0000
  C   C1761     1.0  0.52153  0.98591  0.30235  1.0000
  C   C1762     1.0  0.57515  0.68710  0.27437  1.0000
  S   S403      1.0  0.78235  0.82309  0.46595  1.0000
  H   H3124     1.0  0.52314  0.94263  0.30777  1.0000
  C   C1763     1.0  0.88114  0.94723  0.46210  1.0000
  H   H3125     1.0  0.60320  0.96593  0.32161  1.0000
  H   H3126     1.0  0.81279  0.68685  0.41334  1.0000
  C   C1764     1.0  0.76378  0.88397  0.41943  1.0000
  H   H3127     1.0  0.53361  0.73803  0.36677  1.0000
  H   H3128     1.0  0.76149  0.68657  0.33190  1.0000
  H   H3129     1.0  0.59644  0.91408  0.33421  1.0000
  C   C1765     1.0  0.82154  0.91905  0.46492  1.0000
  H   H3130     1.0  0.61368  0.67527  0.27095  1.0000
  H   H3131     1.0  0.78736  0.80258  0.40131  1.0000
  H   H3132     1.0  0.74096  0.87129  0.44261  1.0000
  N   N93       1.0  0.52863  0.86345  0.44637  1.0000
  H   H3133     1.0  0.86150  0.72560  0.36656  1.0000
  H   H3134     1.0  0.77119  0.75436  0.41975  1.0000
  H   H3135     1.0  0.70045  0.79677  0.23679  1.0000
  N   N94       1.0  0.93608  0.73939  0.25320  1.0000
  N   N95       1.0  0.80007  0.73408  0.42893  1.0000
  C   C1766     1.0  0.48605  0.97293  0.30619  1.0000
  C   C1767     1.0  0.55944  0.86333  0.44935  1.0000
  H   H3136     1.0  0.76342  0.87279  0.47130  1.0000
  C   C1768     1.0  0.91542  0.67314  0.34598  1.0000
  C   C1769     1.0  0.85985  0.75048  0.24794  1.0000
  S   S404      1.0  0.70202  0.68749  0.29547  1.0000
  C   C1770     1.0  0.50287  0.80345  0.44895  1.0000
  H   H3137     1.0  0.74974  0.90965  0.25680  1.0000
  C   C1771     1.0  0.61262  0.96569  0.45575  1.0000
  C   C1772     1.0  0.55296  0.89674  0.41972  1.0000
  S   S405      1.0  0.69797  0.72176  0.36289  1.0000
  H   H3138     1.0  0.77906  0.68765  0.44053  1.0000
  H   H3139     1.0  0.77157  0.86518  0.41941  1.0000
  C   C1773     1.0  0.95831  0.77189  0.25522  1.0000
  H   H3140     1.0  0.81921  0.89574  0.46920  1.0000
  H   H3141     1.0  0.54475  0.83840  0.47289  1.0000
  H   H3142     1.0  0.52662  0.98633  0.28969  1.0000
  C   C1774     1.0  0.51606  0.68863  0.37278  1.0000
  H   H3143     1.0  0.66631  0.73528  0.25393  1.0000
  C   C1775     1.0  0.52554  0.89083  0.45262  1.0000
  H   H3144     1.0  0.76763  0.94518  0.45442  1.0000
  H   H3145     1.0  0.57346  0.98731  0.28473  1.0000
  H   H3146     1.0  0.74720  0.70663  0.31849  1.0000
  N   N96       1.0  0.67708  0.89348  0.33637  1.0000
  C   C1776     1.0  0.67918  0.86374  0.34121  1.0000
  C   C1777     1.0  0.65858  0.90050  0.34920  1.0000
  C   C1778     1.0  0.65845  0.88824  0.32263  1.0000
  C   C1779     1.0  0.70872  0.92008  0.33194  1.0000
  C   C1780     1.0  0.73624  0.92015  0.34063  1.0000
  C   C1781     1.0  0.69373  0.85110  0.32837  1.0000
  C   C1782     1.0  0.65559  0.91660  0.31467  1.0000
  C   C1783     1.0  0.67325  0.90756  0.36456  1.0000
  C   C1784     1.0  0.65150  0.91276  0.37673  1.0000
  C   C1785     1.0  0.76465  0.95115  0.33719  1.0000
  C   C1786     1.0  0.70499  0.82785  0.33501  1.0000
  H   H3147     1.0  0.63583  0.92874  0.29506  1.0000
  H   H3148     1.0  0.65542  0.84541  0.34512  1.0000
  H   H3149     1.0  0.69221  0.86565  0.35144  1.0000
  H   H3150     1.0  0.65470  0.92103  0.34552  1.0000
  H   H3151     1.0  0.63484  0.88122  0.35188  1.0000
  H   H3152     1.0  0.63446  0.86959  0.32595  1.0000
  H   H3153     1.0  0.66928  0.88027  0.31322  1.0000
  H   H3154     1.0  0.71662  0.92105  0.31954  1.0000
  H   H3155     1.0  0.70692  0.94225  0.33303  1.0000
  H   H3156     1.0  0.74360  0.90245  0.33680  1.0000
  H   H3157     1.0  0.73024  0.91518  0.35331  1.0000
  H   H3158     1.0  0.67598  0.83903  0.32060  1.0000
  H   H3159     1.0  0.71370  0.86976  0.32115  1.0000
  H   H3160     1.0  0.67895  0.93461  0.31016  1.0000
  H   H3161     1.0  0.64434  0.92677  0.32260  1.0000
  H   H3162     1.0  0.67835  0.88852  0.36947  1.0000
  H   H3163     1.0  0.69494  0.92921  0.36263  1.0000
  H   H3164     1.0  0.66252  0.91755  0.38764  1.0000
  H   H3165     1.0  0.64707  0.93277  0.37268  1.0000
  H   H3166     1.0  0.62884  0.89229  0.37927  1.0000
  H   H3167     1.0  0.60616  0.94530  0.44923  1.0000
  H   H3168     1.0  0.74218  0.89324  0.46446  1.0000
  H   H3169     1.0  0.88216  0.92890  0.47018  1.0000
  H   H3170     1.0  0.71658  0.82080  0.32547  1.0000
  H   H3171     1.0  0.72199  0.83800  0.34339  1.0000
  H   H3172     1.0  0.68487  0.80704  0.34078  1.0000
  H   H3173     1.0  0.50525  0.80240  0.43635  1.0000
  H   H3174     1.0  0.62954  0.75749  0.24389  1.0000
  H   H3175     1.0  0.51322  0.90008  0.44482  1.0000
  H   H3176     1.0  0.87190  0.87987  0.31170  1.0000
  H   H3177     1.0  0.64653  0.89747  0.29262  1.0000
  N   N97       1.0  0.81501  0.77931  0.33780  1.0000
  C   C1787     1.0  0.78831  0.74998  0.33480  1.0000
  C   C1788     1.0  0.80417  0.79145  0.35144  1.0000
  C   C1789     1.0  0.82456  0.80199  0.32346  1.0000
  C   C1790     1.0  0.84303  0.77385  0.34148  1.0000
  C   C1791     1.0  0.83676  0.74759  0.35444  1.0000
  C   C1792     1.0  0.79591  0.73218  0.32218  1.0000
  C   C1793     1.0  0.84855  0.83514  0.32517  1.0000
  C   C1794     1.0  0.77789  0.80210  0.34893  1.0000
  C   C1795     1.0  0.77220  0.81812  0.36257  1.0000
  C   C1796     1.0  0.86684  0.74466  0.35730  1.0000
  C   C1797     1.0  0.76763  0.70209  0.32095  1.0000
  C   C1798     1.0  0.85556  0.85608  0.31006  1.0000
  H   H3178     1.0  0.76868  0.75482  0.33109  1.0000
  H   H3179     1.0  0.77827  0.73403  0.34566  1.0000
  H   H3180     1.0  0.79473  0.77337  0.36148  1.0000
  H   H3181     1.0  0.82421  0.81064  0.35543  1.0000
  H   H3182     1.0  0.80385  0.80342  0.31899  1.0000
  H   H3183     1.0  0.83508  0.79388  0.31395  1.0000
  H   H3184     1.0  0.85445  0.76928  0.33091  1.0000
  H   H3185     1.0  0.86123  0.79500  0.34514  1.0000
  H   H3186     1.0  0.82020  0.72512  0.35127  1.0000
  H   H3187     1.0  0.82708  0.75197  0.36550  1.0000
  H   H3188     1.0  0.80220  0.74597  0.31072  1.0000
  H   H3189     1.0  0.81551  0.72638  0.32471  1.0000
  H   H3190     1.0  0.87096  0.83532  0.32818  1.0000
  H   H3191     1.0  0.83962  0.84545  0.33423  1.0000
  H   H3192     1.0  0.78361  0.81858  0.33841  1.0000
  H   H3193     1.0  0.75564  0.78205  0.34784  1.0000
  H   H3194     1.0  0.76679  0.80304  0.37357  1.0000
  H   H3195     1.0  0.79304  0.83985  0.36332  1.0000
  H   H3196     1.0  0.75196  0.82360  0.36102  1.0000
  C   C1799     1.0  0.52776  0.86662  0.42904  1.0000
  H   H3197     1.0  0.87717  0.73955  0.34659  1.0000
  H   H3198     1.0  0.88412  0.76620  0.36107  1.0000
  C   C1800     1.0  0.61878  0.98233  0.38417  1.0000
  Fe  Fe198     1.0  0.65793  0.68448  0.37774  1.0000
  S   S406      1.0  0.76843  0.69499  0.37652  1.0000
  H   H3199     1.0  0.86673  0.84811  0.30076  1.0000
  H   H3200     1.0  0.83379  0.85649  0.30633  1.0000
  H   H3201     1.0  0.56204  0.88058  0.33166  1.0000
  C   C1801     1.0  0.65657  0.69278  0.33609  1.0000
  C   C1802     1.0  0.92333  0.66588  0.28078  1.0000
  C   C1803     1.0  0.75221  0.68708  0.42118  1.0000
  H   H3202     1.0  0.53327  0.93296  0.47431  1.0000
  N   N98       1.0  0.79230  0.91665  0.45815  1.0000
  Fe  Fe199     1.0  0.49127  0.98336  0.40370  1.0000
  C   C1804     1.0  0.59447  0.85559  0.46816  1.0000
  H   H3203     1.0  0.85960  0.69988  0.39520  1.0000
  H   H3204     1.0  0.80397  0.78572  0.38737  1.0000
  C   C1805     1.0  0.80871  0.79978  0.39723  1.0000
  H   H3205     1.0  0.55964  0.98645  0.38117  1.0000
  N   N99       1.0  0.56997  0.97715  0.30954  1.0000
  Fe  Fe200     1.0  0.72763  0.71071  0.37942  1.0000
  H   H3206     1.0  0.77229  0.95645  0.32454  1.0000
  H   H3207     1.0  0.57899  0.88544  0.44436  1.0000
  H   H3208     1.0  0.61186  0.89125  0.30522  1.0000
  H   H3209     1.0  0.95999  0.72661  0.35590  1.0000
  H   H3210     1.0  0.94978  0.72953  0.27550  1.0000
  H   H3211     1.0  0.78341  0.71865  0.46286  1.0000
  H   H3212     1.0  0.78111  0.90442  0.41189  1.0000
  H   H3213     1.0  0.78856  0.76205  0.44441  1.0000
  H   H3214     1.0  0.89893  0.74100  0.26835  1.0000
  H   H3215     1.0  0.82925  0.77351  0.44006  1.0000
  H   H3216     1.0  0.52935  0.84699  0.42377  1.0000
  H   H3217     1.0  0.75487  0.70761  0.44211  1.0000
  H   H3218     1.0  0.68029  0.94929  0.26393  1.0000
  C   C1806     1.0  0.76921  0.91512  0.24758  1.0000
  H   H3219     1.0  0.64184  0.99576  0.43604  1.0000
  H   H3220     1.0  0.80278  0.77083  0.47209  1.0000
  H   H3221     1.0  0.59208  0.96270  0.46384  1.0000
  H   H3222     1.0  0.84070  0.78337  0.40595  1.0000
  H   H3223     1.0  0.78431  0.95050  0.34316  1.0000
  H   H3224     1.0  0.80437  0.96616  0.47658  1.0000
  C   C1807     1.0  0.94142  0.71794  0.26500  1.0000
  H   H3225     1.0  0.93803  0.67201  0.34767  1.0000
  H   H3226     1.0  0.86978  0.70440  0.41469  1.0000
  C   C1808     1.0  0.54221  0.68807  0.36159  1.0000
  C   C1809     1.0  0.51180  0.75945  0.38949  1.0000
  H   H3227     1.0  0.92323  0.68317  0.23850  1.0000
  H   H3228     1.0  0.91255  0.68508  0.36989  1.0000
  H   H3229     1.0  0.61389  0.98324  0.26412  1.0000
  H   H3230     1.0  0.82763  0.82285  0.39318  1.0000
  H   H3231     1.0  0.54520  0.72651  0.38396  1.0000
  H   H3232     1.0  0.93292  0.74101  0.36346  1.0000
  C   C1810     1.0  0.57996  0.97340  0.29327  1.0000
  H   H3233     1.0  0.84656  0.72769  0.24394  1.0000
  C   C1811     1.0  0.52464  0.72132  0.37741  1.0000
  C   C1812     1.0  0.81868  0.78447  0.41037  1.0000
  C   C1813     1.0  0.94339  0.73338  0.23694  1.0000
  H   H3234     1.0  0.56447  0.69592  0.36693  1.0000
  H   H3235     1.0  0.51746  0.87581  0.47780  1.0000
  H   H3236     1.0  0.81006  0.91558  0.43466  1.0000
  C   C1814     1.0  0.79212  0.94767  0.45408  1.0000
  C   C1815     1.0  0.79057  0.90082  0.44362  1.0000
  C   C1816     1.0  0.85210  0.93447  0.45359  1.0000
  H   H3237     1.0  0.54897  0.81905  0.39273  1.0000
  C   C1817     1.0  0.68088  0.92806  0.26003  1.0000
  C   C1818     1.0  0.54765  0.80355  0.40308  1.0000
  H   H3238     1.0  0.52904  0.80267  0.41180  1.0000
  H   H3239     1.0  0.74105  0.87615  0.41456  1.0000
  H   H3240     1.0  0.76650  0.68462  0.41125  1.0000
  H   H3241     1.0  0.64769  0.98069  0.27091  1.0000
  H   H3242     1.0  0.83354  0.71600  0.43410  1.0000
  H   H3243     1.0  0.73945  0.70010  0.41663  1.0000
  H   H3244     1.0  0.53895  0.91250  0.31969  1.0000
  H   H3245     1.0  0.51927  0.77464  0.37844  1.0000
  H   H3246     1.0  0.57027  0.81311  0.40803  1.0000
  H   H3247     1.0  0.79380  0.87933  0.44604  1.0000
  H   H3248     1.0  0.69585  0.70563  0.25115  1.0000
  C   C1819     1.0  0.60740  0.69370  0.26630  1.0000
  H   H3249     1.0  0.78753  0.73920  0.40568  1.0000
  C   C1820     1.0  0.73781  0.95911  0.24962  1.0000
  C   C1821     1.0  0.56418  0.85907  0.46657  1.0000
  H   H3250     1.0  0.84992  0.75154  0.42252  1.0000
  C   C1822     1.0  0.80713  0.73627  0.45832  1.0000
  H   H3251     1.0  0.57600  0.68655  0.28709  1.0000
  C   C1823     1.0  0.80645  0.75296  0.44251  1.0000
  C   C1824     1.0  0.90326  0.73687  0.25619  1.0000
  H   H3252     1.0  0.89646  0.69222  0.27924  1.0000
  C   C1825     1.0  0.60697  0.69388  0.24855  1.0000
  H   H3253     1.0  0.82490  0.93135  0.47539  1.0000
  H   H3254     1.0  0.96049  0.71222  0.26027  1.0000
  H   H3255     1.0  0.75905  0.96977  0.34134  1.0000
  H   H3256     1.0  0.90698  0.78298  0.24882  1.0000
  C   C1826     1.0  0.66134  0.73465  0.24175  1.0000
  C   C1827     1.0  0.54019  0.98995  0.36007  1.0000
  H   H3257     1.0  0.56326  0.84548  0.44318  1.0000
  H   H3258     1.0  0.90245  0.95661  0.45364  1.0000
  C   C1828     1.0  0.81820  0.75889  0.47044  1.0000
  C   C1829     1.0  0.82842  0.71155  0.41019  1.0000
  H   H3259     1.0  0.51077  0.70444  0.40649  1.0000
  H   H3260     1.0  0.65746  0.91327  0.25681  1.0000
  H   H3261     1.0  0.52281  0.80094  0.45377  1.0000
  C   C1830     1.0  0.91305  0.68737  0.27140  1.0000
  H   H3262     1.0  0.56789  0.70538  0.27052  1.0000
  H   H3263     1.0  0.59366  0.83479  0.46306  1.0000
  H   H3264     1.0  0.59228  0.88383  0.41817  1.0000
  H   H3265     1.0  0.93639  0.67743  0.29030  1.0000
  H   H3266     1.0  0.56700  0.94926  0.29077  1.0000
  H   H3267     1.0  0.74439  0.87173  0.23807  1.0000
  C   C1831     1.0  0.76711  0.88461  0.24253  1.0000
  H   H3268     1.0  0.52616  0.96389  0.32393  1.0000
  H   H3269     1.0  0.91959  0.68574  0.33430  1.0000
  C   C1832     1.0  0.67917  0.67868  0.31361  1.0000
  N   N100      1.0  0.63802  0.70308  0.23905  1.0000
  C   C1833     1.0  0.70548  0.93562  0.24612  1.0000
  H   H3270     1.0  0.63214  0.96715  0.46245  1.0000
  S   S407      1.0  0.68737  0.67337  0.39401  1.0000
  H   H3271     1.0  0.53666  0.75628  0.40974  1.0000
  H   H3272     1.0  0.88104  0.96606  0.46875  1.0000
  H   H3273     1.0  0.83554  0.98199  0.46133  1.0000
  H   H3274     1.0  0.82306  0.72482  0.45737  1.0000
  C   C1834     1.0  0.64820  0.98591  0.35381  1.0000
  H   H3275     1.0  0.81568  0.98760  0.23683  1.0000
  H   H3276     1.0  0.80253  0.95694  0.44191  1.0000
  Fe  Fe201     1.0  0.48585  0.93451  0.43004  1.0000
  C   C1835     1.0  0.67363  0.68510  0.25498  1.0000
  C   C1836     1.0  0.62209  0.97290  0.27358  1.0000
  N   N101      1.0  0.76524  0.96544  0.23777  1.0000
  H   H3277     1.0  0.66386  0.68891  0.26614  1.0000
  C   C1837     1.0  0.50766  0.88581  0.46899  1.0000
  C   C1838     1.0  0.50878  0.91595  0.47408  1.0000
  C   C1839     1.0  0.65252  0.76170  0.23775  1.0000
  C   C1840     1.0  0.61538  0.98322  0.28909  1.0000
  H   H3278     1.0  0.61486  0.87614  0.46231  1.0000
  H   H3279     1.0  0.56594  0.87959  0.47222  1.0000
  H   H3280     1.0  0.76883  0.87020  0.25263  1.0000
  H   H3281     1.0  0.95616  0.78864  0.24647  1.0000
  H   H3282     1.0  0.69765  0.94536  0.23635  1.0000
  H   H3283     1.0  0.49304  0.76428  0.39552  1.0000
  H   H3284     1.0  0.48943  0.72422  0.35366  1.0000
  H   H3285     1.0  0.77715  0.99483  0.46454  1.0000
  H   H3286     1.0  0.49148  0.75937  0.36005  1.0000
  C   C1841     1.0  0.50135  0.83370  0.45300  1.0000
  H   H3287     1.0  0.97329  0.67700  0.24011  1.0000
  H   H3288     1.0  0.51309  0.67266  0.38321  1.0000
  H   H3289     1.0  0.96706  0.73368  0.23544  1.0000
  H   H3290     1.0  0.80972  0.67113  0.33266  1.0000
  H   H3291     1.0  0.60240  0.99156  0.43780  1.0000
  H   H3292     1.0  0.70574  0.91361  0.24338  1.0000
  H   H3293     1.0  0.59763  0.85312  0.48061  1.0000
  S   S408      1.0  0.70499  0.99446  0.29392  1.0000
  C   C1842     1.0  0.79468  0.98440  0.24472  1.0000
  H   H3294     1.0  0.81768  0.74639  0.48173  1.0000
  H   H3295     1.0  0.59554  0.70870  0.24459  1.0000
  H   H3296     1.0  0.68409  0.74019  0.23487  1.0000
  H   H3297     1.0  0.93284  0.77901  0.50616  1.0000
  S   S409      1.0  0.78928  0.85621  0.50678  1.0000
  H   H3298     1.0  0.71326  0.68758  0.60840  1.0000
  Fe  Fe202     1.0  0.86052  0.83506  0.50582  1.0000
  S   S410      1.0  0.81035  0.79934  0.50733  1.0000
  H   H3299     1.0  0.94210  0.73120  0.70700  1.0000
  Fe  Fe203     1.0  0.80017  0.82720  0.52490  1.0000
  S   S411      1.0  0.76641  0.80937  0.54723  1.0000
  S   S412      1.0  0.85034  0.86120  0.52443  1.0000
  Fe  Fe204     1.0  0.75368  0.73054  0.63401  1.0000
  S   S413      1.0  0.70346  0.71903  0.64209  1.0000
  S   S414      1.0  0.77640  0.73625  0.60916  1.0000
  Fe  Fe205     1.0  0.76980  0.72369  0.66747  1.0000
  S   S415      1.0  0.72090  0.71116  0.67806  1.0000
  S   S416      1.0  0.81219  0.73262  0.68047  1.0000
  C   C1843     1.0  0.93724  0.87812  0.54824  1.0000
  Fe  Fe206     1.0  0.72244  0.74909  0.66111  1.0000
  S   S417      1.0  0.70561  0.78479  0.66782  1.0000
  C   C1844     1.0  0.76140  0.90735  0.48536  1.0000
  S   S418      1.0  0.77254  0.76377  0.65157  1.0000
  C   C1845     1.0  0.63054  0.72539  0.65687  1.0000
  H   H3300     1.0  0.58896  0.94919  0.69304  1.0000
  C   C1846     1.0  0.83732  0.70666  0.72058  1.0000
  C   C1847     1.0  0.91731  0.84540  0.54396  1.0000
  H   H3301     1.0  0.76080  0.70682  0.55787  1.0000
  S   S419      1.0  0.85410  0.86503  0.48667  1.0000
  C   C1848     1.0  0.81034  0.71312  0.69870  1.0000
  C   C1849     1.0  0.83753  0.72195  0.70619  1.0000
  H   H3302     1.0  0.91312  0.74960  0.68988  1.0000
  C   C1850     1.0  0.91815  0.67772  0.65730  1.0000
  H   H3303     1.0  0.58932  0.72343  0.70634  1.0000
  H   H3304     1.0  0.94978  0.87403  0.50017  1.0000
  C   C1851     1.0  0.92892  0.74062  0.68413  1.0000
  H   H3305     1.0  0.91150  0.83867  0.57576  1.0000
  C   C1852     1.0  0.69624  0.78913  0.68729  1.0000
  C   C1853     1.0  0.69142  0.76632  0.69931  1.0000
  C   C1854     1.0  0.68266  0.76983  0.71457  1.0000
  C   C1855     1.0  0.67960  0.79654  0.71808  1.0000
  C   C1856     1.0  0.68474  0.81955  0.70611  1.0000
  C   C1857     1.0  0.69269  0.81566  0.69075  1.0000
  H   H3306     1.0  0.69423  0.74596  0.69681  1.0000
  H   H3307     1.0  0.82015  0.80940  0.71239  1.0000
  H   H3308     1.0  0.68239  0.84020  0.70866  1.0000
  H   H3309     1.0  0.69632  0.83341  0.68150  1.0000
  H   H3310     1.0  0.97363  0.84693  0.53453  1.0000
  H   H3311     1.0  0.82736  0.74299  0.53680  1.0000
  C   C1858     1.0  0.60992  0.69127  0.71330  1.0000
  C   C1859     1.0  0.69021  0.95276  0.70953  1.0000
  H   H3312     1.0  0.63860  0.74909  0.66024  1.0000
  H   H3313     1.0  0.85201  0.77480  0.55715  1.0000
  H   H3314     1.0  0.68599  0.92896  0.71208  1.0000
  C   C1860     1.0  0.93712  0.82548  0.50331  1.0000
  H   H3315     1.0  0.58045  0.91089  0.71530  1.0000
  H   H3316     1.0  0.88411  0.81139  0.60222  1.0000
  C   C1861     1.0  0.77056  0.79028  0.56455  1.0000
  C   C1862     1.0  0.75255  0.78889  0.57842  1.0000
  C   C1863     1.0  0.75454  0.77312  0.59229  1.0000
  C   C1864     1.0  0.77422  0.75808  0.59235  1.0000
  C   C1865     1.0  0.79197  0.75922  0.57844  1.0000
  C   C1866     1.0  0.79025  0.77533  0.56465  1.0000
  H   H3317     1.0  0.73708  0.80025  0.57846  1.0000
  H   H3318     1.0  0.74070  0.77242  0.60287  1.0000
  H   H3319     1.0  0.80683  0.74722  0.57831  1.0000
  H   H3320     1.0  0.80338  0.77554  0.55395  1.0000
  C   C1867     1.0  0.69850  0.97250  0.72108  1.0000
  C   C1868     1.0  0.81171  0.96192  0.50861  1.0000
  C   C1869     1.0  0.84278  0.96956  0.50294  1.0000
  H   H3321     1.0  0.79659  0.93846  0.51316  1.0000
  H   H3322     1.0  0.94251  0.68823  0.67774  1.0000
  H   H3323     1.0  0.85458  0.73068  0.54510  1.0000
  H   H3324     1.0  0.94779  0.80256  0.56471  1.0000
  S   S420      1.0  0.89570  0.81331  0.50553  1.0000
  C   C1870     1.0  0.80694  0.81111  0.68348  1.0000
  H   H3325     1.0  0.50312  0.97727  0.69707  1.0000
  C   C1871     1.0  0.94895  0.80306  0.50438  1.0000
  H   H3326     1.0  0.60390  0.67300  0.72310  1.0000
  Fe  Fe207     1.0  0.70523  0.68186  0.65848  1.0000
  C   C1872     1.0  0.80023  0.98476  0.50862  1.0000
  H   H3327     1.0  0.92576  0.84417  0.53192  1.0000
  H   H3328     1.0  0.84783  0.77725  0.72485  1.0000
  H   H3329     1.0  0.81402  0.77257  0.70697  1.0000
  H   H3330     1.0  0.75564  0.72921  0.71698  1.0000
  C   C1873     1.0  0.63977  0.67113  0.69726  1.0000
  H   H3331     1.0  0.73934  0.79821  0.72406  1.0000
  H   H3332     1.0  0.76159  0.68233  0.70019  1.0000
  C   C1874     1.0  0.89664  0.73762  0.65652  1.0000
  C   C1875     1.0  0.67064  0.69990  0.59598  1.0000
  C   C1876     1.0  0.90085  0.78974  0.54730  1.0000
  H   H3333     1.0  0.62396  0.97698  0.72047  1.0000
  H   H3334     1.0  0.94182  0.75741  0.67384  1.0000
  H   H3335     1.0  0.64616  0.74279  0.59821  1.0000
  H   H3336     1.0  0.69431  0.71868  0.59633  1.0000
  C   C1877     1.0  0.78267  0.68931  0.70585  1.0000
  H   H3337     1.0  0.58637  0.97063  0.64220  1.0000
  H   H3338     1.0  0.66281  0.70602  0.58503  1.0000
  H   H3339     1.0  0.73261  0.86114  0.49692  1.0000
  H   H3340     1.0  0.72278  0.69337  0.55119  1.0000
  H   H3341     1.0  0.86498  0.75289  0.52625  1.0000
  H   H3342     1.0  0.75884  0.92921  0.48415  1.0000
  N   N102      1.0  0.91640  0.81901  0.55471  1.0000
  H   H3343     1.0  0.66137  0.69234  0.69782  1.0000
  H   H3344     1.0  0.77161  0.76689  0.69283  1.0000
  H   H3345     1.0  0.49619  0.91163  0.48588  1.0000
  H   H3346     1.0  0.88168  0.69693  0.70124  1.0000
  H   H3347     1.0  0.63555  0.73637  0.61885  1.0000
  H   H3348     1.0  0.60645  0.96334  0.66685  1.0000
  H   H3349     1.0  0.96389  0.68381  0.64667  1.0000
  H   H3350     1.0  0.94475  0.90046  0.52468  1.0000
  H   H3351     1.0  0.91249  0.79223  0.53540  1.0000
  C   C1878     1.0  0.72262  0.69257  0.57626  1.0000
  H   H3352     1.0  0.92849  0.88143  0.55981  1.0000
  H   H3353     1.0  0.85885  0.74075  0.70085  1.0000
  C   C1879     1.0  0.59453  0.97889  0.66598  1.0000
  H   H3354     1.0  0.67611  0.75139  0.61122  1.0000
  N   N103      1.0  0.61194  0.67887  0.69797  1.0000
  S   S421      1.0  0.85880  0.94175  0.50235  1.0000
  C   C1880     1.0  0.80966  0.68285  0.72776  1.0000
  H   H3355     1.0  0.87867  0.76783  0.57727  1.0000
  C   C1881     1.0  0.78415  0.78972  0.69699  1.0000
  H   H3356     1.0  0.91378  0.69045  0.64734  1.0000
  H   H3357     1.0  0.72426  0.71626  0.57591  1.0000
  C   C1882     1.0  0.95836  0.85646  0.50105  1.0000
  H   H3358     1.0  0.90382  0.77045  0.55365  1.0000
  H   H3359     1.0  0.81994  0.83445  0.68696  1.0000
  C   C1883     1.0  0.58789  0.71900  0.73097  1.0000
  C   C1884     1.0  0.89849  0.81793  0.56997  1.0000
  H   H3360     1.0  0.63035  0.72706  0.68888  1.0000
  H   H3361     1.0  0.86721  0.71117  0.63980  1.0000
  H   H3362     1.0  0.82371  0.80185  0.67937  1.0000
  H   H3363     1.0  0.60570  0.71674  0.65465  1.0000
  H   H3364     1.0  0.68197  0.94863  0.68560  1.0000
  H   H3365     1.0  0.84939  0.99235  0.53335  1.0000
  H   H3366     1.0  0.79375  0.81307  0.67376  1.0000
  C   C1885     1.0  0.86564  0.77930  0.54568  1.0000
  C   C1886     1.0  0.63455  0.70416  0.66953  1.0000
  C   C1887     1.0  0.97756  0.70076  0.72514  1.0000
  H   H3367     1.0  0.59368  0.70355  0.68286  1.0000
  C   C1888     1.0  0.84258  0.98634  0.54602  1.0000
  H   H3368     1.0  0.87119  0.68962  0.66553  1.0000
  S   S422      1.0  0.75441  0.69118  0.64936  1.0000
  H   H3369     1.0  0.88059  0.75219  0.63607  1.0000
  C   C1889     1.0  0.97152  0.82745  0.54280  1.0000
  H   H3370     1.0  0.56939  0.96514  0.67000  1.0000
  C   C1890     1.0  0.65201  0.73530  0.60941  1.0000
  H   H3371     1.0  0.91357  0.79013  0.58566  1.0000
  H   H3372     1.0  0.61546  0.66523  0.58573  1.0000
  H   H3373     1.0  0.84902  0.78991  0.59351  1.0000
  H   H3374     1.0  0.58183  0.96095  0.72166  1.0000
  H   H3375     1.0  0.65985  0.71289  0.67079  1.0000
  C   C1891     1.0  0.68809  0.96400  0.69452  1.0000
  C   C1892     1.0  0.96407  0.66840  0.70425  1.0000
  C   C1893     1.0  0.60311  0.96067  0.71558  1.0000
  H   H3376     1.0  0.86650  0.76996  0.60481  1.0000
  C   C1894     1.0  0.89156  0.78989  0.58198  1.0000
  H   H3377     1.0  0.95112  0.92587  0.53958  1.0000
  H   H3378     1.0  0.91843  0.73948  0.64994  1.0000
  H   H3379     1.0  0.96326  0.80635  0.53682  1.0000
  H   H3380     1.0  0.61138  0.73817  0.73106  1.0000
  H   H3381     1.0  0.67885  0.75213  0.72384  1.0000
  C   C1895     1.0  0.88501  0.71155  0.67014  1.0000
  C   C1896     1.0  0.85246  0.74961  0.53799  1.0000
  C   C1897     1.0  0.64926  0.70250  0.60963  1.0000
  C   C1898     1.0  0.58561  0.70493  0.71564  1.0000
  H   H3382     1.0  0.96182  0.78797  0.70151  1.0000
  H   H3383     1.0  0.84995  0.73098  0.65147  1.0000
  H   H3384     1.0  0.77712  0.82983  0.71835  1.0000
  Fe  Fe208     1.0  0.83986  0.88874  0.50531  1.0000
  H   H3385     1.0  0.73789  0.75495  0.71639  1.0000
  H   H3386     1.0  0.62271  0.92727  0.71303  1.0000
  H   H3387     1.0  0.78199  0.91035  0.49145  1.0000
  H   H3388     1.0  0.63315  0.70952  0.71499  1.0000
  C   C1899     1.0  0.61661  0.70388  0.68520  1.0000
  H   H3389     1.0  0.95231  0.71976  0.66368  1.0000
  H   H3390     1.0  0.96212  0.88246  0.54828  1.0000
  H   H3391     1.0  0.71083  0.88214  0.49060  1.0000
  H   H3392     1.0  0.86018  0.97987  0.55100  1.0000
  N   N104      1.0  0.91009  0.70925  0.67917  1.0000
  H   H3393     1.0  0.87590  0.81895  0.56809  1.0000
  C   C1900     1.0  0.98147  0.81139  0.50325  1.0000
  H   H3394     1.0  0.55130  0.96566  0.69803  1.0000
  C   C1901     1.0  0.93195  0.69943  0.66986  1.0000
  H   H3395     1.0  0.56151  0.68679  0.71589  1.0000
  H   H3396     1.0  0.90160  0.75997  0.66110  1.0000
  H   H3397     1.0  0.62697  0.68117  0.66553  1.0000
  C   C1902     1.0  0.89483  0.68750  0.69374  1.0000
  C   C1903     1.0  0.87204  0.73257  0.64531  1.0000
  H   H3398     1.0  0.91187  0.90062  0.53658  1.0000
  C   C1904     1.0  0.80157  0.78638  0.71098  1.0000
  C   C1905     1.0  0.60190  0.92861  0.71905  1.0000
  H   H3399     1.0  0.86755  0.71536  0.67792  1.0000
  H   H3400     1.0  0.86165  0.79700  0.53851  1.0000
  Fe  Fe209     1.0  0.80347  0.83090  0.48915  1.0000
  C   C1906     1.0  0.87163  0.79045  0.59648  1.0000
  C   C1907     1.0  0.97539  0.77563  0.69703  1.0000
  N   N105      1.0  0.78204  0.77154  0.72634  1.0000
  H   H3401     1.0  0.73763  0.68978  0.58485  1.0000
  C   C1908     1.0  0.95363  0.74240  0.69524  1.0000
  H   H3402     1.0  0.91272  0.68545  0.70068  1.0000
  H   H3403     1.0  0.64469  0.72631  0.64598  1.0000
  H   H3404     1.0  0.65561  0.69631  0.62090  1.0000
  C   C1909     1.0  0.60574  0.96967  0.69791  1.0000
  H   H3405     1.0  0.76666  0.79870  0.69986  1.0000
  C   C1910     1.0  0.59777  0.99041  0.64888  1.0000
  C   C1911     1.0  0.95617  0.67550  0.71887  1.0000
  H   H3406     1.0  0.77613  0.97838  0.51295  1.0000
  N   N106      1.0  0.67262  0.66944  0.59582  1.0000
  C   C1912     1.0  0.75122  0.74619  0.72369  1.0000
  C   C1913     1.0  0.76139  0.81353  0.72818  1.0000
  C   C1914     1.0  0.78232  0.67437  0.72039  1.0000
  H   H3407     1.0  0.73188  0.89193  0.50730  1.0000
  H   H3408     1.0  0.62935  0.97283  0.69291  1.0000
  H   H3409     1.0  0.62438  0.68710  0.60898  1.0000
  H   H3410     1.0  0.95992  0.84258  0.56445  1.0000
  H   H3411     1.0  0.89331  0.84369  0.54328  1.0000
  C   C1915     1.0  0.56638  0.99069  0.69783  1.0000
  H   H3412     1.0  0.60175  0.92351  0.73169  1.0000
  C   C1916     1.0  0.69423  0.99501  0.69093  1.0000
  C   C1917     1.0  0.93610  0.90267  0.53653  1.0000
  C   C1918     1.0  0.94885  0.82304  0.55752  1.0000
  C   C1919     1.0  0.94079  0.66488  0.65112  1.0000
  H   H3413     1.0  0.85842  0.71352  0.72622  1.0000
  H   H3414     1.0  0.78527  0.98123  0.72436  1.0000
  C   C1920     1.0  0.73618  0.68940  0.56037  1.0000
  H   H3415     1.0  0.81951  0.96617  0.54815  1.0000
  H   H3416     1.0  0.96823  0.73105  0.69088  1.0000
  C   C1921     1.0  0.69118  0.66641  0.60868  1.0000
  H   H3417     1.0  0.79677  0.73509  0.73126  1.0000
  C   C1922     1.0  0.73238  0.88415  0.49562  1.0000
  C   C1923     1.0  0.68814  0.66869  0.58021  1.0000
  H   H3418     1.0  0.67529  0.67311  0.57085  1.0000
  H   H3419     1.0  0.56325  0.99572  0.70997  1.0000
  H   H3420     1.0  0.54782  0.99786  0.67614  1.0000
  H   H3421     1.0  0.73578  0.66622  0.56010  1.0000
  H   H3422     1.0  0.57022  0.72841  0.73246  1.0000
  H   H3423     1.0  0.70909  0.68336  0.73027  1.0000
  H   H3424     1.0  0.68896  0.70683  0.72514  1.0000
  N   N107      1.0  0.60031  0.99773  0.69316  1.0000
  H   H3425     1.0  0.74245  0.84596  0.73384  1.0000
  Fe  Fe210     1.0  0.76420  0.88553  0.90013  1.0000
  S   S423      1.0  0.71483  0.88082  0.90002  1.0000
  S   S424      1.0  0.77096  0.84169  0.90045  1.0000
  Fe  Fe211     1.0  0.79144  0.95489  0.89960  1.0000
  S   S425      1.0  0.74447  0.95516  0.89974  1.0000
  C   C1924     1.0  0.61035  0.77373  0.98348  1.0000
  Fe  Fe212     1.0  0.72811  0.91446  0.91780  1.0000
  S   S426      1.0  0.69439  0.91281  0.93814  1.0000
  Fe  Fe213     1.0  0.73549  0.92173  0.88193  1.0000
  S   S427      1.0  0.71435  0.93230  0.86083  1.0000
  S   S428      1.0  0.77612  0.91659  0.91907  1.0000
  S   S429      1.0  0.78379  0.92379  0.88066  1.0000
  Fe  Fe214     1.0  0.89544  0.74892  0.92692  1.0000
  S   S430      1.0  0.93446  0.79651  0.92303  1.0000
  C   C1925     1.0  0.63612  0.82519  0.94990  1.0000
  Fe  Fe215     1.0  0.90107  0.73960  0.89225  1.0000
  S   S431      1.0  0.94009  0.78646  0.88594  1.0000
  S   S432      1.0  0.88308  0.70348  0.87552  1.0000
  Fe  Fe216     1.0  0.95933  0.77651  0.90742  1.0000
  Fe  Fe217     1.0  0.91172  0.80229  0.90196  1.0000
  S   S433      1.0  0.90706  0.84661  0.89604  1.0000
  S   S434      1.0  0.92176  0.72823  0.91287  1.0000
  S   S435      1.0  0.87112  0.75604  0.90675  1.0000
  C   C1926     1.0  0.80707  0.75491  0.96961  1.0000
  Fe  Fe218     1.0  0.68250  0.86980  0.77846  1.0000
  S   S436      1.0  0.64282  0.82829  0.77190  1.0000
  S   S437      1.0  0.70414  0.86340  0.80023  1.0000
  Fe  Fe219     1.0  0.68232  0.90934  0.74927  1.0000
  Fe  Fe220     1.0  0.62114  0.86000  0.76532  1.0000
  S   S438      1.0  0.57089  0.85192  0.77160  1.0000
  Fe  Fe221     1.0  0.66773  0.84155  0.74770  1.0000
  S   S439      1.0  0.65889  0.90066  0.77367  1.0000
  S   S440      1.0  0.70922  0.88122  0.75468  1.0000
  Fe  Fe222     1.0  0.88694  0.69898  0.78543  1.0000
  S   S441      1.0  0.89679  0.73500  0.80236  1.0000
  C   C1927     1.0  0.85642  0.81449  0.95083  1.0000
  S   S442      1.0  0.89198  0.71469  0.75999  1.0000
  C   C1928     1.0  0.81712  0.85002  0.95029  1.0000
  C   C1929     1.0  0.53208  0.76863  0.79731  1.0000
  C   C1930     1.0  0.55308  0.79458  0.78750  1.0000
  C   C1931     1.0  0.54525  0.81902  0.78384  1.0000
  C   C1932     1.0  0.51620  0.81719  0.78989  1.0000
  C   C1933     1.0  0.80267  0.78306  0.96238  1.0000
  H   H3426     1.0  0.53830  0.74984  0.80019  1.0000
  H   H3427     1.0  0.57522  0.79561  0.78272  1.0000
  H   H3428     1.0  0.51002  0.83603  0.78707  1.0000
  H   H3429     1.0  0.86535  0.66525  0.85089  1.0000
  C   C1934     1.0  0.88564  0.71276  0.85527  1.0000
  C   C1935     1.0  0.91223  0.70021  0.97909  1.0000
  H   H3430     1.0  0.67235  0.83257  0.93134  1.0000
  C   C1936     1.0  0.89184  0.72576  0.82270  1.0000
  C   C1937     1.0  0.90163  0.74965  0.83225  1.0000
  C   C1938     1.0  0.89858  0.74322  0.84846  1.0000
  C   C1939     1.0  0.50663  0.78777  0.85003  1.0000
  H   H3431     1.0  0.85093  0.94901  0.85534  1.0000
  H   H3432     1.0  0.91169  0.77326  0.82707  1.0000
  H   H3433     1.0  0.90631  0.76181  0.85567  1.0000
  H   H3434     1.0  0.63408  0.82133  0.92516  1.0000
  C   C1940     1.0  0.90448  0.71299  0.96593  1.0000
  H   H3435     1.0  0.78069  0.82844  0.80378  1.0000
  H   H3436     1.0  0.92087  0.72178  0.95555  1.0000
  C   C1941     1.0  0.71039  0.91228  0.84423  1.0000
  C   C1942     1.0  0.69960  0.92185  0.83117  1.0000
  C   C1943     1.0  0.69701  0.90689  0.81763  1.0000
  C   C1944     1.0  0.70491  0.88201  0.81715  1.0000
  C   C1945     1.0  0.71446  0.87175  0.83043  1.0000
  C   C1946     1.0  0.71748  0.88692  0.84386  1.0000
  H   H3437     1.0  0.69366  0.94121  0.83143  1.0000
  H   H3438     1.0  0.68947  0.91494  0.80751  1.0000
  H   H3439     1.0  0.71941  0.85186  0.83029  1.0000
  H   H3440     1.0  0.72522  0.87900  0.85395  1.0000
  C   C1947     1.0  0.69437  0.89703  0.95709  1.0000
  C   C1948     1.0  0.67520  0.90024  0.96927  1.0000
  H   H3441     1.0  0.61374  0.77565  0.80074  1.0000
  C   C1949     1.0  0.71154  0.88005  0.96014  1.0000
  H   H3442     1.0  0.66188  0.91335  0.96699  1.0000
  C   C1950     1.0  0.60072  0.80515  0.95470  1.0000
  H   H3443     1.0  0.72625  0.87730  0.95083  1.0000
  Fe  Fe223     1.0  0.92016  0.68738  0.75670  1.0000
  C   C1951     1.0  0.80904  0.84387  0.89875  1.0000
  C   C1952     1.0  0.81314  0.81704  0.89698  1.0000
  C   C1953     1.0  0.84316  0.81779  0.89591  1.0000
  C   C1954     1.0  0.86924  0.84529  0.89680  1.0000
  C   C1955     1.0  0.86518  0.87226  0.89826  1.0000
  C   C1956     1.0  0.83514  0.87157  0.89927  1.0000
  H   H3444     1.0  0.79304  0.79562  0.89640  1.0000
  H   H3445     1.0  0.84611  0.79710  0.89431  1.0000
  H   H3446     1.0  0.88531  0.89369  0.89882  1.0000
  H   H3447     1.0  0.83218  0.89241  0.90059  1.0000
  N   N108      1.0  0.81617  0.85678  0.84618  1.0000
  C   C1957     1.0  0.83592  0.89094  0.84546  1.0000
  C   C1958     1.0  0.81105  0.84870  0.82985  1.0000
  C   C1959     1.0  0.78562  0.84906  0.85589  1.0000
  C   C1960     1.0  0.83212  0.83870  0.85343  1.0000
  C   C1961     1.0  0.86498  0.84529  0.84544  1.0000
  C   C1962     1.0  0.84823  0.90304  0.86082  1.0000
  C   C1963     1.0  0.76167  0.81484  0.85755  1.0000
  C   C1964     1.0  0.78818  0.85896  0.82194  1.0000
  C   C1965     1.0  0.78775  0.85321  0.80492  1.0000
  C   C1966     1.0  0.87873  0.82550  0.85364  1.0000
  C   C1967     1.0  0.86625  0.93799  0.85885  1.0000
  C   C1968     1.0  0.72934  0.81097  0.86422  1.0000
  H   H3448     1.0  0.82244  0.90381  0.84159  1.0000
  H   H3449     1.0  0.85651  0.89844  0.83657  1.0000
  H   H3450     1.0  0.83362  0.85908  0.82223  1.0000
  H   H3451     1.0  0.80257  0.82348  0.82940  1.0000
  H   H3452     1.0  0.77431  0.86378  0.85156  1.0000
  H   H3453     1.0  0.78967  0.85463  0.86788  1.0000
  H   H3454     1.0  0.83400  0.84222  0.86586  1.0000
  H   H3455     1.0  0.81769  0.81363  0.85343  1.0000
  H   H3456     1.0  0.88149  0.86969  0.84551  1.0000
  H   H3457     1.0  0.86375  0.83992  0.83326  1.0000
  H   H3458     1.0  0.82882  0.89717  0.87010  1.0000
  H   H3459     1.0  0.86428  0.89332  0.86481  1.0000
  H   H3460     1.0  0.76923  0.80102  0.86561  1.0000
  H   H3461     1.0  0.75920  0.80502  0.84635  1.0000
  H   H3462     1.0  0.76411  0.84562  0.82766  1.0000
  H   H3463     1.0  0.79450  0.88374  0.82251  1.0000
  H   H3464     1.0  0.81110  0.86694  0.79836  1.0000
  H   H3465     1.0  0.90192  0.83015  0.84753  1.0000
  H   H3466     1.0  0.88196  0.83097  0.86572  1.0000
  H   H3467     1.0  0.86328  0.80066  0.85375  1.0000
  C   C1969     1.0  0.88045  0.83500  0.93709  1.0000
  C   C1970     1.0  0.63010  0.78374  0.80965  1.0000
  H   H3468     1.0  0.88688  0.94537  0.85004  1.0000
  H   H3469     1.0  0.71312  0.78619  0.86609  1.0000
  H   H3470     1.0  0.73045  0.82055  0.87551  1.0000
  H   H3471     1.0  0.71982  0.82278  0.85610  1.0000
  H   H3472     1.0  0.52608  0.80996  0.96768  1.0000
  H   H3473     1.0  0.83137  0.76166  0.93937  1.0000
  H   H3474     1.0  0.58394  0.86635  0.85313  1.0000
  H   H3475     1.0  0.77500  0.84878  0.74414  1.0000
  C   C1971     1.0  0.53366  0.76771  0.74997  1.0000
  H   H3476     1.0  0.73976  0.72024  0.74710  1.0000
  C   C1972     1.0  0.75356  0.83252  0.73969  1.0000
  H   H3477     1.0  0.96568  0.74633  0.78742  1.0000
  H   H3478     1.0  0.62473  0.89535  0.86954  1.0000
  H   H3479     1.0  0.76459  0.78394  0.74722  1.0000
  H   H3480     1.0  0.56413  0.88321  0.97360  1.0000
  C   C1973     1.0  0.60839  0.87010  0.84986  1.0000
  C   C1974     1.0  0.62460  0.87464  0.86462  1.0000
  H   H3481     1.0  0.91270  0.86774  0.95073  1.0000
  H   H3482     1.0  0.61215  0.85445  0.87342  1.0000
  H   H3483     1.0  0.64920  0.87801  0.86211  1.0000
  C   C1975     1.0  0.83465  0.77668  0.73604  1.0000
  H   H3484     1.0  0.63558  0.85069  0.83819  1.0000
  H   H3485     1.0  0.65069  0.82205  0.95863  1.0000
  N   N109      1.0  0.82289  0.79929  0.94744  1.0000
  H   H3486     1.0  0.83144  0.76157  0.97223  1.0000
  H   H3487     1.0  0.97833  0.70412  0.83131  1.0000
  H   H3488     1.0  0.77056  0.86012  0.79975  1.0000
  H   H3489     1.0  0.80805  0.89073  0.94957  1.0000
  H   H3490     1.0  0.82342  0.83185  0.92885  1.0000
  H   H3491     1.0  0.95319  0.74395  0.85935  1.0000
  H   H3492     1.0  0.80135  0.73663  0.96175  1.0000
  H   H3493     1.0  0.59858  0.84825  0.80397  1.0000
  H   H3494     1.0  0.77130  0.74350  0.94237  1.0000
  H   H3495     1.0  0.49531  0.76699  0.85857  1.0000
  H   H3496     1.0  0.84226  0.86376  0.95124  1.0000
  H   H3497     1.0  0.53182  0.78526  0.75708  1.0000
  H   H3498     1.0  0.58555  0.88947  0.82627  1.0000
  C   C1976     1.0  0.59019  0.84116  0.97002  1.0000
  H   H3499     1.0  0.74351  0.99188  0.82109  1.0000
  H   H3500     1.0  0.56288  0.86917  0.81176  1.0000
  H   H3501     1.0  0.80451  0.84200  0.96211  1.0000
  N   N110      1.0  0.97909  0.71628  0.86183  1.0000
  H   H3502     1.0  0.93041  0.68724  0.86028  1.0000
  H   H3503     1.0  0.62943  0.92105  0.80531  1.0000
  H   H3504     1.0  0.81773  0.88138  0.93084  1.0000
  H   H3505     1.0  0.88242  0.82066  0.92803  1.0000
  H   H3506     1.0  0.62074  0.89170  0.84196  1.0000
  S   S443      1.0  0.96830  0.71134  0.74311  1.0000
  H   H3507     1.0  0.53893  0.79521  0.95157  1.0000
  H   H3508     1.0  0.48960  0.75563  0.97844  1.0000
  H   H3509     1.0  0.57879  0.84628  0.96017  1.0000
  H   H3510     1.0  0.87395  0.85281  0.93183  1.0000
  H   H3511     1.0  0.64648  0.81984  0.82425  1.0000
  C   C1977     1.0  0.70928  0.86622  0.97525  1.0000
  C   C1978     1.0  0.57848  0.88146  0.98281  1.0000
  H   H3512     1.0  0.62847  0.87179  0.81460  1.0000
  H   H3513     1.0  0.68371  0.68941  0.74476  1.0000
  C   C1979     1.0  0.61030  0.84304  0.84201  1.0000
  H   H3514     1.0  0.60405  0.90148  0.79117  1.0000
  H   H3515     1.0  0.62378  0.76506  0.81925  1.0000
  H   H3516     1.0  0.60428  0.82336  0.85104  1.0000
  H   H3517     1.0  0.64085  0.84980  0.94824  1.0000
  H   H3518     1.0  0.95458  0.66803  0.85851  1.0000
  C   C1980     1.0  0.58704  0.88090  0.81494  1.0000
  C   C1981     1.0  0.82040  0.77702  0.93572  1.0000
  H   H3519     1.0  0.80721  0.79928  0.97136  1.0000
  H   H3520     1.0  0.57952  0.79505  0.81468  1.0000
  H   H3521     1.0  0.87100  0.67678  0.82226  1.0000
  S   S444      1.0  0.86433  0.72917  0.94983  1.0000
  C   C1982     1.0  0.87551  0.71422  0.96623  1.0000
  H   H3522     1.0  0.83415  0.78954  0.92459  1.0000
  H   H3523     1.0  0.52349  0.73229  0.76860  1.0000
  H   H3524     1.0  0.59579  0.78066  0.95378  1.0000
  C   C1983     1.0  0.72843  0.72858  0.73837  1.0000
  C   C1984     1.0  0.60270  0.85820  0.81523  1.0000
  H   H3525     1.0  0.77750  0.77551  0.96089  1.0000
  C   C1985     1.0  0.87547  0.68887  0.84573  1.0000
  C   C1986     1.0  0.64712  0.81742  0.93453  1.0000
  C   C1987     1.0  0.62925  0.81242  0.81573  1.0000
  C   C1988     1.0  0.54082  0.79426  0.84564  1.0000
  H   H3526     1.0  0.80151  0.74655  0.90948  1.0000
  N   N111      1.0  0.59141  0.83287  0.82859  1.0000
  H   H3527     1.0  0.64393  0.79316  0.93552  1.0000
  N   N112      1.0  0.58789  0.80895  0.97041  1.0000
  H   H3528     1.0  0.73676  0.81730  0.74955  1.0000
  H   H3529     1.0  0.55264  0.79831  0.85631  1.0000
  H   H3530     1.0  0.78837  0.75058  0.74792  1.0000
  C   C1989     1.0  0.87865  0.69531  0.82951  1.0000
  H   H3531     1.0  0.63697  0.83055  0.80583  1.0000
  H   H3532     1.0  0.59353  0.92488  0.80346  1.0000
  C   C1990     1.0  0.79910  0.75700  0.73567  1.0000
  H   H3533     1.0  0.87451  0.94594  0.87005  1.0000
  H   H3534     1.0  0.55287  0.76206  0.97229  1.0000
  H   H3535     1.0  0.76324  0.71977  0.91817  1.0000
  C   C1991     1.0  0.78742  0.73416  0.92060  1.0000
  H   H3536     1.0  0.55162  0.84101  0.83735  1.0000
  H   H3537     1.0  0.52643  0.77095  0.73839  1.0000
  C   C1992     1.0  0.59602  0.80574  0.82321  1.0000
  C   C1993     1.0  0.78696  0.75696  0.93186  1.0000
  H   H3538     1.0  0.77668  0.77146  0.92630  1.0000
  H   H3539     1.0  0.83197  0.70349  0.98011  1.0000
  C   C1994     1.0  0.53053  0.79035  0.96408  1.0000
  H   H3540     1.0  0.94357  0.71018  0.83409  1.0000
  C   C1995     1.0  0.81208  0.82252  0.94085  1.0000
  H   H3541     1.0  0.65408  0.78935  0.80423  1.0000
  H   H3542     1.0  0.59054  0.78756  0.83301  1.0000
  H   H3543     1.0  0.92980  0.86493  0.93205  1.0000
  C   C1996     1.0  0.55681  0.82229  0.83314  1.0000
  H   H3544     1.0  0.79741  0.71885  0.92562  1.0000
  H   H3545     1.0  0.58862  0.81115  0.94546  1.0000
  S   S445      1.0  0.64274  0.87051  0.74052  1.0000
  H   H3546     1.0  0.50485  0.80742  0.85527  1.0000
  H   H3547     1.0  0.54416  0.81614  0.82269  1.0000
  H   H3548     1.0  0.54083  0.77319  0.84122  1.0000
  C   C1997     1.0  0.97719  0.74579  0.85620  1.0000
  C   C1998     1.0  0.91287  0.85158  0.94227  1.0000
  H   H3549     1.0  0.86464  0.79683  0.95459  1.0000
  C   C1999     1.0  0.60475  0.90876  0.80299  1.0000
  H   H3550     1.0  0.83995  0.80069  0.73809  1.0000
  H   H3551     1.0  0.51520  0.71893  0.74996  1.0000
  H   H3552     1.0  0.92079  0.83482  0.94760  1.0000
  C   C2000     1.0  0.49927  0.76193  0.96607  1.0000
  H   H3553     1.0  0.77951  0.85907  0.94134  1.0000
  H   H3554     1.0  0.85860  0.82836  0.96074  1.0000
  C   C2001     1.0  0.50329  0.76708  0.80357  1.0000
  H   H3555     1.0  0.78665  0.81130  0.93967  1.0000
  H   H3556     1.0  0.94855  0.71127  0.88255  1.0000
  C   C2002     1.0  0.80482  0.87152  0.94251  1.0000
  S   S446      1.0  0.66957  0.79976  0.73761  1.0000
  H   H3557     1.0  0.55853  0.77148  0.74847  1.0000
  H   H3558     1.0  0.61496  0.85813  0.96780  1.0000
  C   C2003     1.0  0.55441  0.78534  0.97391  1.0000
  C   C2004     1.0  0.51335  0.73529  0.75786  1.0000
  C   C2005     1.0  0.85445  0.70270  0.97981  1.0000
  H   H3559     1.0  0.84169  0.73867  0.74761  1.0000
  H   H3560     1.0  0.97684  0.80310  0.85394  1.0000
  H   H3561     1.0  0.98143  0.75001  0.84336  1.0000
  C   C2006     1.0  0.95422  0.69426  0.83731  1.0000
  H   H3562     1.0  0.72890  0.99029  0.87740  1.0000
  C   C2007     1.0  0.95392  0.69033  0.85518  1.0000
  H   H3563     1.0  0.72249  0.85301  0.97751  1.0000
  S   S447      1.0  0.91796  0.67478  0.78221  1.0000
  H   H3564     1.0  0.96698  0.75062  0.76669  1.0000
  C   C2008     1.0  0.97201  0.71182  0.87925  1.0000
  H   H3565     1.0  0.71903  0.74372  0.74373  1.0000
  H   H3566     1.0  0.83701  0.76473  0.76039  1.0000
  H   H3567     1.0  0.62971  0.82364  0.98216  1.0000
  C   C2009     1.0  0.60622  0.80408  0.98295  1.0000
  Fe  Fe224     1.0  0.85044  0.67025  0.75853  1.0000
  H   H3568     1.0  0.68948  0.98849  0.89794  1.0000
  H   H3569     1.0  0.60302  0.89874  0.97971  1.0000
  C   C2010     1.0  0.84729  0.76317  0.74879  1.0000
  C   C2011     1.0  0.97319  0.68313  0.88779  1.0000
  H   H3570     1.0  0.62203  0.77174  0.97239  1.0000
  H   H3571     1.0  0.49374  0.78346  0.83965  1.0000
  H   H3572     1.0  0.93647  0.67439  0.90652  1.0000
  H   H3573     1.0  0.93461  0.69913  0.97873  1.0000
  H   H3574     1.0  0.50206  0.74211  0.96156  1.0000
  H   H3575     1.0  0.76087  0.73278  0.98276  1.0000
  H   H3576     1.0  0.98014  0.78414  0.77708  1.0000
  C   C2012     1.0  0.97936  0.76085  0.77663  1.0000
  H   H3577     1.0  0.48537  0.67937  0.77846  1.0000
  H   H3578     1.0  0.82242  0.98470  0.86340  1.0000
  H   H3579     1.0  0.58359  0.70142  0.74088  1.0000
  H   H3580     1.0  0.87307  0.77609  0.74805  1.0000
  S   S448      1.0  0.70377  0.95995  0.73975  1.0000
  C   C2013     1.0  0.77764  0.79500  0.73567  1.0000
  H   H3581     1.0  0.97519  0.70041  0.91041  1.0000
  H   H3582     1.0  0.82456  0.66781  0.94163  1.0000
  C   C2014     1.0  0.49524  0.79130  0.79974  1.0000
  C   C2015     1.0  0.96164  0.67930  0.90498  1.0000
  C   C2016     1.0  0.70084  0.70037  0.73432  1.0000
  H   H3583     1.0  0.80050  0.81236  0.73826  1.0000
  H   H3584     1.0  0.93428  0.66779  0.81852  1.0000
