data_image0
_chemical_formula_structural       H3C2HFeCSCH4SCHC6H4NCSHCH2CHCH3CH2CH4CH3CSHC3H4C3HCH7CH3FeH5CH2SHC2HCSHC2HFeH4CH7SHCHNHCH4FeSFeHSC2HS2HSHC2H2C2HCH8C6H4C2H2C2HCHC2HC2HCH7C4SH2C2FeH4NHNH11C2HCH3C2H2SCH7CH6SCNFeHSFeC3H2SHS2H5CH3C2FeHC2H4C2H4NH3C3H2CHCH2CH3SH2CH3C4HCH8CH2CHC2H5SCNHC3H2C2HC2H4SH9C3H2CH2CHCH2CH5C4HCH3C2H2C2H2CSHSHCHFeSFeSC3H6C4H5C5H5C2H5CH6CH8CSHC3HCH2CHNHFeC2HSH3SH2CH5CH2CH2C2H2CHCHCH2FeS2FeS2FeSFeS2HFeS2FeSFeHS2FeS2FeS2FeSFeS3FeS2FeS2FeSFeS3FeS2FeS2HC6H4C2HC2H2C6H4C6H4CH3CHC7HC2H3C6H7CHC2HC2HCH6CHC2H2C3HC2H6C2H7CH6C2H7NHCHCH2CH2CH2CH3CHCHSH4CH5NC7H14NC2HC4H2C2SH15CH2FeH3CH4NCH7C3H4C3H7CH3CHCHCH5CH4C3H4C2HCHCH2CH2CH5CSC2HCHCH3CNC3HSH4CH2NH7FeC3H5C3H2CH2CSHFeC2HC2H5CH2CH3CNH4C2H4CH2CH2CHCHSH3CHC5H4C2HCH3C3HCH7CH3CH2CHCH4C2H4CH2C2H2C2H2CHSFeSFeHFeS2FeS2FeSFeS3HFeS2FeS2FeSFeS3FeS2FeS2FeSFeS4FeS2FeS2C7H5CHC6H4C6H4CH3C2H5C7H4C2H2C7H3C2H6C3NH4CNH2C2H4CH2C2H2CH3CHCH4C2H6CHC2HCH6FeHCHCHC2HCH6SH3CNH4C5H3C2H2FeCH5CH5FeC2HNH2CH2C2HCHCH6C2HC2HC2NH3CSH6C2H4C2NC9H20NC3HC8H9CH10C2HCH4C2H6CHNC5HC4HCH11CH13CFeHC2HSCH3C3H3C2H2CH4C3H4S2H2NH2CHC2H5CH3SHCHCHCHCH2CHC2HCHSCHC5HCH6CHN2H3SH2C2H3C3H9NCS2CHCH5CHC2H5CH5CH3CHC2HCH2CH2SCSHCHFeHCFeSFeSHFeSFeHSH2FeS2FeS2FeSFeS3FeS2FeS2FeS2FeS2FeSFeS3C2HC2HC7H5C6H4C6H4CHC2H3C6H11C6H3CHCSHNC12H31CHC2HFeH4CH3CHFeNC7SC4H25NH4SH5CH2NC2H5C2H3C2H2CH5C2NC8HC3H17C2H9S2CH4CFeH3CH4SCHCH2CH7C2H2CH3CH3CHCSHNHC4SH2C2SHSH3NHC2HCHCHCH5CHC2H10CH5SCH2C2H2CNH2C2H2C2HC5H3C2H5SHCH3CH3CH3CHCH3C3H2CHCHCNHFeH2CH6C2H2CH2CH2CH2CHC2HCH5CH4CH5FeS2FeS2FeSFeS3FeSHFeS2FeS2FeS2FeSFeS4FeS2FeS2FeSFeS2FeHFeS2FeS3CSC3H3C3H6C2HCHCNH3C2H4C4H2CHC4H3C8H5C6H4C6H4C6H4C2HSCH3NC7H12CHCH6NC7H11CHCH4CHC2H3C2H3CH2CH2C2H6C2H6C3HCHCH7C2H6CH3CNCHNC12H28NC8H2C2H15CH3CHNH6C3SHCH2C3HFeH3C2H2CH9CHCHFe2HCHCS3FeCNCH7CHCH6CH3CHC2HCHCH3CH4CH3C2HSH2CH2CHCHCH5C2HC2H2C3H2CH2CH4CHC2H2CHCHSHC2HNC2H3CHCH3NHCH2CH10CH5NH2CH4C2SH4CH3C2HCH9CH2SHCH2CHCHCFe2S2Fe2S3FeS2FeS2FeSFeS4FeCSFeS2FeCFeCS3HCHC2FeH2C2HC4H5C7H4C6H6C2H4C7H4C6H5Fe2H2CHNH2CH4CNC3H3CNHC6H19C2H2C2H2C3H2CH2SHS2HCH4CH3C2HCH2CH2CSH5CH5C2H2C2HCH4CNH2CH2CH2CNC6H2CH14CH5NC6H14C3NHCSH3CH4CH2C3HC4H2CH6CHCHNH9SHCHCH3C2HCH3CHCH2C2HCH3CH2CNCH5CHCHCH5SCSCH5SCH3CHCH2C2HSH2CFeH3C3HCH2CH2CHCSC2HCHCH4CH6CHCH6SHCH4CHC4H2C3HCH2C2H6SCH4CH8CH5FeS2FeS2FeSFeS3FeSFeS2FeSFeSFeS2FeS2FeSFeS3HCFeSC6H4CH5C3H4C6H5CHC3H2C2H2C2H4C6H4CH4C2H2CH2CHCFeH2C3HNSHC2H2C4H6C2H2C2HSH5NC9HC2H39C2H2CH3C2SCHC2NH4C2H4C2H9CHCHSCHNCH3CHSHCH2CH6CHC3HFeNCH2CH2SH3SH4CHCHCH3CHC3H2CH2CH4NSNC12H28CHCH2C2H2CHCH4SHFeC2HFeCHCH4CH2CHCH5CHCHC2HC3H3CSC4H2S2CHCH2SNHCHCHCHC2H2CHCH3C6H6CH3CH3CHC2HCHC2HC2H3NH3C2H3C2H5FeHCH5CHFeS2FeS2FeSFeS3HSFeS2Fe3S3C2FeSHFeS2FeSFeHSHC2H6FeCH3C8H4C6H5CH8C6H4C5HSHSCNHCHCH3C2FeH3CHCH3FeH3C2H3CH4C3H2CHCHC3H3CSH3C3H3CH6S2H2NC12H28CSH3CH4CHCH9CH3NCHCH6FeH2C3H2C3HCH2CHC4H4CNC5H9CH2CH3C2NHCSH3C2SH2CHCH3CH4CH2SHCH8C2HNCH2CH7C2H5C6H3CH5CH2C4H4CHSHSCHNH2SH4CSHFeH2CHCHCHCH2CHFeS2FeS2FeSFeS5FeS2Fe2SFeS2FeS2FeS2FeSFeS4HFeHCHC2H3CHC3H7C4HCH2SC7H4C6H4C4HCH4C6H7FeCHNC11H24CHC2H6CH3CH4NHCH2CH3CHC2H3C2H2CH2SC2SC6H3C2H2CNCH2CSHCH14SHCHCHCHC2HCH2FeCH4CH13CHCH2CH2NH4C2H2CNCH2CHCH4CNSH5CH2C2H5CH2C2H2C2H2CHCH3C2H2CHC2H2CH5C2HC3H5CH2NHCH5C2HSHCH3NH3CH2CH4C4H3CHCHNHCH2CH8CH4CH6CHCHCH3CHCH2CH3CH3CHC4H3CHCHC2H4CH2C3HCHC2HCH5C2H2CH5CH7C3HSH2CFeSHFeH4CFeS2FeS2FeSFeHS2H3SHC2HCFeSH4C2HCH3CH2C2H3CH2C7HC2HC2SH2CH4CH2CHCH7NH3CHCHC2H3C2H4CH4CH3FeHCH2CHNC2HCH3SCH2CH2C2H2CH7CH2FeHCH5SHCH4CNHCH7CH3FeSHFeS2FeSFeS3HSHSHFeCFeSHC2HCH8CHCH3CH2CH3C5H2C2HSCHC3HC2H2SC2H2SCH2CNCH5CH6CH3CHSCHCH3CH3NH4C2H3CH4CHCHCHCH4C2H3CH4CH2CH3CSCH2CH2CHCHCHCH4CH2CH3CH3CNH2FeHCH3C2H4CH6CH3C2SH2CHCHCH2C3HCH3C4HNCH4CHCH2CFeCH2C3HFeS2HSCFeCFeS3FeHSFeH3CHSHCHCH2SCHSH5C3H4C2HC6H8NC2H2CHSFeCH5C2H2CHC2SHSHNH2CSH4CFeH3CHC2H2CH2NCHC4H3C3H2C3H13CH6CH2CH6C3H6CH3FeHCHCH3CH3CHCSH6CH3C2HC4HC3HCHNHSH2C2HCHCH3CSFeSCFeSFeSHCFeS2FeSCFeSFeS3CH4C2HCH2C7H4CHC3HC3H9C4H7CSC3H3CH5C2H2CNCH13CH2CHNCHCH2CH2CHSHC2HCHC2H2CHCH2C2SCH4CH2SHCHSCH4CH11SHCHCH2SH3C4H5CHNHC2HCHCHSHCH5CFeHCHNCHFeC2HC
_chemical_formula_sum              "H3072 C1728 Fe192 S384 N96"
_cell_length_a       57.6606
_cell_length_b       57.5374
_cell_length_c       89.2226
_cell_angle_alpha    90.2208
_cell_angle_beta     90.2785
_cell_angle_gamma    116.571

_space_group_name_H-M_alt    "P 1"
_space_group_IT_number       1

loop_
  _space_group_symop_operation_xyz
  'x, y, z'

loop_
  _atom_site_type_symbol
  _atom_site_label
  _atom_site_symmetry_multiplicity
  _atom_site_fract_x
  _atom_site_fract_y
  _atom_site_fract_z
  _atom_site_occupancy
  H   H1        1.0  0.44863  0.27089  0.00597  1.0000
  H   H2        1.0  0.32722  0.44049  0.06431  1.0000
  H   H3        1.0  0.48497  0.29105  0.12431  1.0000
  C   C1        1.0  0.21797  0.44907  0.01549  1.0000
  C   C2        1.0  0.40392  0.39451  0.08988  1.0000
  H   H4        1.0  0.34176  0.45720  0.04723  1.0000
  Fe  Fe1       1.0  0.46341  0.38539  0.02853  1.0000
  C   C3        1.0  0.43205  0.40752  0.08384  1.0000
  S   S1        1.0  0.43076  0.39695  0.03429  1.0000
  C   C4        1.0  0.43663  0.36642  0.08428  1.0000
  H   H5        1.0  0.26862  0.42800  0.05767  1.0000
  H   H6        1.0  0.41283  0.36636  0.06470  1.0000
  H   H7        1.0  0.38748  0.40777  0.07166  1.0000
  H   H8        1.0  0.45048  0.35810  0.08633  1.0000
  S   S2        1.0  0.45575  0.34367  0.03285  1.0000
  C   C5        1.0  0.22366  0.44477  0.99929  1.0000
  H   H9        1.0  0.42920  0.32249  0.06720  1.0000
  C   C6        1.0  0.40271  0.45816  0.02036  1.0000
  C   C7        1.0  0.38933  0.43906  0.03101  1.0000
  C   C8        1.0  0.39831  0.42073  0.03514  1.0000
  C   C9        1.0  0.42074  0.42102  0.02868  1.0000
  C   C10       1.0  0.43427  0.44028  0.01815  1.0000
  C   C11       1.0  0.42529  0.45862  0.01403  1.0000
  H   H10       1.0  0.37177  0.43808  0.03584  1.0000
  H   H11       1.0  0.38747  0.40583  0.04317  1.0000
  H   H12       1.0  0.45153  0.44092  0.01306  1.0000
  H   H13       1.0  0.45265  0.45299  0.05961  1.0000
  N   N1        1.0  0.44912  0.39496  0.08826  1.0000
  C   C12       1.0  0.47424  0.40827  0.07979  1.0000
  S   S3        1.0  0.39241  0.48194  0.01460  1.0000
  H   H14       1.0  0.39344  0.37390  0.08626  1.0000
  C   C13       1.0  0.36849  0.46605  0.06616  1.0000
  H   H15       1.0  0.23218  0.43655  0.05038  1.0000
  H   H16       1.0  0.36695  0.46675  0.07851  1.0000
  C   C14       1.0  0.41487  0.33017  0.06521  1.0000
  H   H17       1.0  0.39765  0.42912  0.08789  1.0000
  C   C15       1.0  0.15995  0.45262  0.04217  1.0000
  H   H18       1.0  0.36845  0.39885  0.08850  1.0000
  H   H19       1.0  0.43644  0.22576  0.99718  1.0000
  H   H20       1.0  0.46061  0.41837  0.10854  1.0000
  C   C16       1.0  0.42675  0.48364  0.06083  1.0000
  H   H21       1.0  0.44403  0.36849  0.06006  1.0000
  H   H22       1.0  0.48411  0.21681  0.99808  1.0000
  C   C17       1.0  0.25504  0.47873  0.04618  1.0000
  H   H23       1.0  0.40788  0.32574  0.05343  1.0000
  H   H24       1.0  0.43095  0.40864  0.07140  1.0000
  H   H25       1.0  0.41992  0.35533  0.09175  1.0000
  H   H26       1.0  0.46374  0.36603  0.11028  1.0000
  C   C18       1.0  0.45365  0.39775  0.10497  1.0000
  H   H27       1.0  0.44075  0.42804  0.08779  1.0000
  H   H28       1.0  0.46693  0.16646  0.01724  1.0000
  H   H29       1.0  0.39803  0.32022  0.07274  1.0000
  C   C19       1.0  0.42740  0.35955  0.06779  1.0000
  S   S4        1.0  0.32322  0.48684  0.02523  1.0000
  H   H30       1.0  0.43511  0.38687  0.11102  1.0000
  C   C20       1.0  0.38853  0.40851  0.08410  1.0000
  C   C21       1.0  0.47470  0.28901  0.98776  1.0000
  C   C22       1.0  0.45722  0.26766  0.99592  1.0000
  H   H31       1.0  0.14486  0.45823  0.03824  1.0000
  H   H32       1.0  0.29132  0.46115  0.05390  1.0000
  H   H33       1.0  0.47007  0.40929  0.06769  1.0000
  H   H34       1.0  0.41499  0.46387  0.06535  1.0000
  C   C23       1.0  0.20867  0.46762  0.04420  1.0000
  C   C24       1.0  0.34168  0.45920  0.05962  1.0000
  C   C25       1.0  0.47853  0.39454  0.12784  1.0000
  H   H35       1.0  0.48172  0.20079  0.19462  1.0000
  C   C26       1.0  0.27124  0.44832  0.05751  1.0000
  H   H36       1.0  0.49118  0.39575  0.10525  1.0000
  H   H37       1.0  0.40384  0.39528  0.10230  1.0000
  H   H38       1.0  0.43588  0.47323  0.00579  1.0000
  H   H39       1.0  0.48583  0.32698  0.10131  1.0000
  H   H40       1.0  0.37327  0.44996  0.06322  1.0000
  H   H41       1.0  0.24411  0.44815  0.99812  1.0000
  H   H42       1.0  0.25568  0.44478  0.03542  1.0000
  C   C27       1.0  0.46876  0.16564  0.00489  1.0000
  H   H43       1.0  0.48532  0.39663  0.08015  1.0000
  H   H44       1.0  0.22005  0.45807  0.99171  1.0000
  H   H45       1.0  0.21077  0.42447  0.99578  1.0000
  Fe  Fe2       1.0  0.48209  0.34690  0.01336  1.0000
  H   H46       1.0  0.48282  0.44909  0.08451  1.0000
  H   H47       1.0  0.33571  0.47454  0.06254  1.0000
  H   H48       1.0  0.26850  0.45394  0.06906  1.0000
  H   H49       1.0  0.20215  0.44648  0.04273  1.0000
  H   H50       1.0  0.20977  0.47067  0.05659  1.0000
  C   C28       1.0  0.46510  0.47386  0.05726  1.0000
  H   H51       1.0  0.46047  0.38620  0.13455  1.0000
  H   H52       1.0  0.22006  0.43429  0.02246  1.0000
  S   S5        1.0  0.48325  0.32206  0.99300  1.0000
  H   H53       1.0  0.19733  0.44518  0.01589  1.0000
  C   C29       1.0  0.25175  0.45053  0.04665  1.0000
  C   C30       1.0  0.38896  0.49234  0.05986  1.0000
  H   H54       1.0  0.48522  0.47896  0.06097  1.0000
  C   C31       1.0  0.47251  0.38753  0.11127  1.0000
  S   S6        1.0  0.48672  0.38726  0.00779  1.0000
  H   H55       1.0  0.15652  0.43406  0.03658  1.0000
  C   C32       1.0  0.45026  0.24201  0.99085  1.0000
  C   C33       1.0  0.23589  0.47725  0.02087  1.0000
  H   H56       1.0  0.46599  0.14588  0.00171  1.0000
  Fe  Fe3       1.0  0.49175  0.36134  0.04748  1.0000
  H   H57       1.0  0.42493  0.48113  0.04844  1.0000
  H   H58       1.0  0.15806  0.44970  0.05450  1.0000
  H   H59       1.0  0.25612  0.48191  0.01759  1.0000
  H   H60       1.0  0.46527  0.47690  0.04495  1.0000
  C   C34       1.0  0.45516  0.49101  0.06545  1.0000
  H   H61       1.0  0.40770  0.48315  0.08759  1.0000
  H   H62       1.0  0.48849  0.41597  0.12941  1.0000
  H   H63       1.0  0.38876  0.48985  0.04748  1.0000
  H   H64       1.0  0.25597  0.48576  0.05796  1.0000
  H   H65       1.0  0.45323  0.16905  0.99936  1.0000
  H   H66       1.0  0.45637  0.48818  0.07769  1.0000
  H   H67       1.0  0.48899  0.26156  0.12544  1.0000
  S   S7        1.0  0.49039  0.34424  0.07087  1.0000
  H   H68       1.0  0.49054  0.25284  0.01542  1.0000
  C   C35       1.0  0.18680  0.47401  0.03829  1.0000
  H   H69       1.0  0.18784  0.47668  0.02595  1.0000
  N   N2        1.0  0.23500  0.48325  0.03735  1.0000
  H   H70       1.0  0.49161  0.38653  0.13211  1.0000
  C   C36       1.0  0.49271  0.43644  0.08488  1.0000
  H   H71       1.0  0.27473  0.49033  0.04150  1.0000
  H   H72       1.0  0.49222  0.28074  0.14200  1.0000
  H   H73       1.0  0.23068  0.49010  0.01373  1.0000
  H   H74       1.0  0.18871  0.49235  0.04353  1.0000
  Fe  Fe4       1.0  0.46817  0.34992  0.45356  1.0000
  S   S8        1.0  0.44988  0.30606  0.45902  1.0000
  Fe  Fe5       1.0  0.45657  0.39444  0.44100  1.0000
  H   H75       1.0  0.42321  0.25198  0.46694  1.0000
  S   S9        1.0  0.43593  0.41670  0.43042  1.0000
  C   C37       1.0  0.43472  0.43978  0.47950  1.0000
  C   C38       1.0  0.43464  0.42762  0.38806  1.0000
  H   H76       1.0  0.27759  0.44284  0.38264  1.0000
  S   S10       1.0  0.46444  0.36307  0.42997  1.0000
  S   S11       1.0  0.45628  0.37893  0.46419  1.0000
  H   H77       1.0  0.24643  0.47535  0.47772  1.0000
  S   S12       1.0  0.34209  0.44329  0.44609  1.0000
  H   H78       1.0  0.41511  0.14981  0.47019  1.0000
  C   C39       1.0  0.44191  0.25976  0.47250  1.0000
  C   C40       1.0  0.46368  0.17618  0.45694  1.0000
  H   H79       1.0  0.43866  0.43245  0.40014  1.0000
  H   H80       1.0  0.47062  0.02311  0.46884  1.0000
  C   C41       1.0  0.20238  0.46893  0.41556  1.0000
  C   C42       1.0  0.43230  0.46421  0.48416  1.0000
  H   H81       1.0  0.48408  0.45048  0.37764  1.0000
  C   C43       1.0  0.41854  0.16853  0.46491  1.0000
  H   H82       1.0  0.40755  0.17692  0.47129  1.0000
  H   H83       1.0  0.39777  0.39678  0.39570  1.0000
  H   H84       1.0  0.40920  0.34647  0.40690  1.0000
  H   H85       1.0  0.46127  0.15901  0.46373  1.0000
  H   H86       1.0  0.37201  0.48298  0.46872  1.0000
  H   H87       1.0  0.43267  0.33842  0.39776  1.0000
  H   H88       1.0  0.41686  0.42591  0.47359  1.0000
  H   H89       1.0  0.42493  0.39544  0.36318  1.0000
  C   C44       1.0  0.41136  0.42534  0.43653  1.0000
  C   C45       1.0  0.39096  0.40925  0.44574  1.0000
  C   C46       1.0  0.37025  0.41533  0.44875  1.0000
  C   C47       1.0  0.36964  0.43763  0.44270  1.0000
  C   C48       1.0  0.39040  0.45412  0.43382  1.0000
  C   C49       1.0  0.41108  0.44799  0.43078  1.0000
  H   H90       1.0  0.39066  0.39160  0.45012  1.0000
  H   H91       1.0  0.35428  0.40233  0.45557  1.0000
  H   H92       1.0  0.39009  0.47113  0.42890  1.0000
  H   H93       1.0  0.42664  0.46053  0.42357  1.0000
  C   C50       1.0  0.47858  0.43263  0.38448  1.0000
  C   C51       1.0  0.44408  0.38953  0.39079  1.0000
  H   H94       1.0  0.47537  0.14187  0.44355  1.0000
  H   H95       1.0  0.45342  0.19101  0.47725  1.0000
  C   C52       1.0  0.39167  0.42976  0.39000  1.0000
  C   C53       1.0  0.44520  0.40979  0.36556  1.0000
  H   H96       1.0  0.39936  0.32370  0.39146  1.0000
  C   C54       1.0  0.48551  0.22838  0.43867  1.0000
  H   H97       1.0  0.46625  0.38496  0.33545  1.0000
  C   C55       1.0  0.41536  0.34185  0.39596  1.0000
  C   C56       1.0  0.46231  0.01445  0.47983  1.0000
  H   H98       1.0  0.44071  0.44657  0.38227  1.0000
  C   C57       1.0  0.44830  0.24325  0.48154  1.0000
  C   C58       1.0  0.45921  0.28629  0.47077  1.0000
  H   H99       1.0  0.39787  0.40324  0.37588  1.0000
  C   C59       1.0  0.37864  0.47761  0.47925  1.0000
  H   H100      1.0  0.45388  0.16806  0.44603  1.0000
  H   H101      1.0  0.41111  0.16492  0.45320  1.0000
  H   H102      1.0  0.39753  0.43937  0.40111  1.0000
  H   H103      1.0  0.44979  0.20605  0.46045  1.0000
  H   H104      1.0  0.45165  0.44471  0.47204  1.0000
  H   H105      1.0  0.48975  0.23254  0.41439  1.0000
  H   H106      1.0  0.49111  0.24190  0.44839  1.0000
  C   C60       1.0  0.23286  0.48340  0.47626  1.0000
  C   C61       1.0  0.48319  0.29598  0.47823  1.0000
  C   C62       1.0  0.44741  0.18748  0.46528  1.0000
  C   C63       1.0  0.42984  0.47905  0.47024  1.0000
  S   S13       1.0  0.31032  0.48795  0.42707  1.0000
  H   H107      1.0  0.44007  0.39204  0.40273  1.0000
  H   H108      1.0  0.20424  0.48697  0.39428  1.0000
  C   C64       1.0  0.40471  0.41220  0.38703  1.0000
  C   C65       1.0  0.21679  0.48090  0.40107  1.0000
  Fe  Fe6       1.0  0.33590  0.47981  0.44358  1.0000
  H   H109      1.0  0.44742  0.42803  0.36005  1.0000
  H   H110      1.0  0.37027  0.41796  0.38993  1.0000
  H   H111      1.0  0.46131  0.38559  0.39119  1.0000
  H   H112      1.0  0.39688  0.44485  0.38121  1.0000
  N   N3        1.0  0.49219  0.19405  0.45455  1.0000
  H   H113      1.0  0.44761  0.02148  0.48205  1.0000
  N   N4        1.0  0.45015  0.41421  0.38222  1.0000
  H   H114      1.0  0.41311  0.46535  0.46338  1.0000
  H   H115      1.0  0.18323  0.45249  0.41286  1.0000
  H   H116      1.0  0.21910  0.46551  0.39477  1.0000
  H   H117      1.0  0.30160  0.46941  0.39334  1.0000
  H   H118      1.0  0.48711  0.19416  0.43051  1.0000
  H   H119      1.0  0.47944  0.45435  0.40516  1.0000
  H   H120      1.0  0.42660  0.35800  0.37409  1.0000
  H   H121      1.0  0.25347  0.46848  0.37777  1.0000
  H   H122      1.0  0.48277  0.41706  0.35575  1.0000
  H   H123      1.0  0.25625  0.46319  0.39759  1.0000
  H   H124      1.0  0.40344  0.36599  0.38305  1.0000
  C   C66       1.0  0.26690  0.47377  0.38750  1.0000
  C   C67       1.0  0.23219  0.49515  0.46266  1.0000
  H   H125      1.0  0.19921  0.48357  0.42226  1.0000
  C   C68       1.0  0.46308  0.40067  0.35705  1.0000
  H   H126      1.0  0.21366  0.46142  0.42244  1.0000
  H   H127      1.0  0.29745  0.47308  0.37349  1.0000
  H   H128      1.0  0.20828  0.48865  0.28318  1.0000
  C   C69       1.0  0.42143  0.36401  0.38489  1.0000
  C   C70       1.0  0.28721  0.46430  0.38405  1.0000
  H   H129      1.0  0.43346  0.37330  0.34196  1.0000
  H   H130      1.0  0.43442  0.22317  0.48298  1.0000
  S   S14       1.0  0.31692  0.48874  0.46342  1.0000
  C   C71       1.0  0.45262  0.39065  0.34134  1.0000
  H   H131      1.0  0.46493  0.38496  0.36319  1.0000
  H   H132      1.0  0.46405  0.21821  0.43777  1.0000
  H   H133      1.0  0.45073  0.40602  0.33471  1.0000
  H   H134      1.0  0.44714  0.48318  0.46323  1.0000
  H   H135      1.0  0.48689  0.25884  0.42392  1.0000
  H   H136      1.0  0.48971  0.00363  0.45663  1.0000
  H   H137      1.0  0.37882  0.45859  0.47756  1.0000
  C   C72       1.0  0.48751  0.44136  0.40090  1.0000
  H   H138      1.0  0.48139  0.42437  0.40844  1.0000
  H   H139      1.0  0.48620  0.36009  0.36969  1.0000
  H   H140      1.0  0.49085  0.42347  0.38047  1.0000
  H   H141      1.0  0.40735  0.99703  0.47736  1.0000
  H   H142      1.0  0.23428  0.49334  0.37439  1.0000
  H   H143      1.0  0.49257  0.22417  0.46951  1.0000
  S   S15       1.0  0.46195  0.15336  0.49745  1.0000
  C   C73       1.0  0.37182  0.01845  0.52402  1.0000
  N   N5        1.0  0.03305  0.45225  0.56049  1.0000
  Fe  Fe7       1.0  0.44640  0.13513  0.51990  1.0000
  H   H144      1.0  0.43154  0.16519  0.66665  1.0000
  S   S16       1.0  0.40822  0.09828  0.52405  1.0000
  Fe  Fe8       1.0  0.47577  0.19247  0.50918  1.0000
  C   C74       1.0  0.47003  0.17125  0.71443  1.0000
  C   C75       1.0  0.02690  0.49074  0.54865  1.0000
  C   C76       1.0  0.42799  0.03369  0.57328  1.0000
  H   H145      1.0  0.46216  0.15279  0.65752  1.0000
  H   H146      1.0  0.48622  0.20448  0.68971  1.0000
  S   S17       1.0  0.45704  0.17426  0.53123  1.0000
  H   H147      1.0  0.02717  0.45741  0.53707  1.0000
  S   S18       1.0  0.04033  0.46692  0.50348  1.0000
  S   S19       1.0  0.11057  0.47196  0.52164  1.0000
  H   H148      1.0  0.48250  0.12954  0.60513  1.0000
  H   H149      1.0  0.41244  0.05377  0.55875  1.0000
  H   H150      1.0  0.43634  0.03572  0.58472  1.0000
  H   H151      1.0  0.38590  0.15683  0.66390  1.0000
  H   H152      1.0  0.48482  0.13292  0.57749  1.0000
  C   C77       1.0  0.00853  0.44174  0.50762  1.0000
  H   H153      1.0  0.47454  0.02274  0.50329  1.0000
  H   H154      1.0  0.02091  0.41605  0.51867  1.0000
  H   H155      1.0  0.44984  0.47650  0.49085  1.0000
  C   C78       1.0  0.40054  0.06500  0.52015  1.0000
  C   C79       1.0  0.37889  0.04498  0.52705  1.0000
  Fe  Fe9       1.0  0.08381  0.48575  0.51034  1.0000
  H   H156      1.0  0.28623  0.48271  0.49118  1.0000
  C   C80       1.0  0.40799  0.03155  0.50715  1.0000
  C   C81       1.0  0.41520  0.05802  0.51028  1.0000
  H   H157      1.0  0.36730  0.05003  0.53467  1.0000
  H   H158      1.0  0.07335  0.45969  0.56086  1.0000
  H   H159      1.0  0.44056  0.12448  0.58200  1.0000
  H   H160      1.0  0.43188  0.07305  0.50486  1.0000
  C   C82       1.0  0.03654  0.46950  0.54711  1.0000
  C   C83       1.0  0.45198  0.21098  0.69101  1.0000
  H   H161      1.0  0.40416  0.16779  0.68983  1.0000
  H   H162      1.0  0.00528  0.41722  0.54934  1.0000
  H   H163      1.0  0.45940  0.12086  0.55740  1.0000
  H   H164      1.0  0.15162  0.45569  0.55249  1.0000
  N   N6        1.0  0.44918  0.08310  0.56742  1.0000
  H   H165      1.0  0.43212  0.16502  0.70740  1.0000
  H   H166      1.0  0.48414  0.09900  0.55419  1.0000
  H   H167      1.0  0.46831  0.07598  0.58652  1.0000
  C   C84       1.0  0.42765  0.11351  0.57255  1.0000
  C   C85       1.0  0.21534  0.48125  0.48782  1.0000
  C   C86       1.0  0.46743  0.07982  0.55651  1.0000
  H   H168      1.0  0.05654  0.43831  0.53597  1.0000
  H   H169      1.0  0.07620  0.48090  0.58268  1.0000
  C   C87       1.0  0.41879  0.13179  0.56475  1.0000
  H   H170      1.0  0.44716  0.17207  0.73367  1.0000
  C   C88       1.0  0.46255  0.09092  0.58247  1.0000
  H   H171      1.0  0.47625  0.06790  0.56148  1.0000
  H   H172      1.0  0.35494  0.00341  0.52927  1.0000
  C   C89       1.0  0.18293  0.49207  0.54488  1.0000
  H   H173      1.0  0.20106  0.48964  0.56578  1.0000
  H   H174      1.0  0.37873  0.12317  0.66692  1.0000
  H   H175      1.0  0.39315  0.00589  0.56162  1.0000
  S   S20       1.0  0.17550  0.48760  0.50120  1.0000
  H   H176      1.0  0.44686  0.20665  0.70297  1.0000
  H   H177      1.0  0.43567  0.14884  0.56016  1.0000
  C   C90       1.0  0.00706  0.42850  0.55977  1.0000
  H   H178      1.0  0.43901  0.04837  0.54206  1.0000
  H   H179      1.0  0.44082  0.03021  0.56532  1.0000
  H   H180      1.0  0.47299  0.17496  0.57577  1.0000
  C   C91       1.0  0.46629  0.19582  0.68481  1.0000
  C   C92       1.0  0.38614  0.01150  0.51386  1.0000
  C   C93       1.0  0.46889  0.24031  0.68986  1.0000
  C   C94       1.0  0.05376  0.44289  0.56032  1.0000
  H   H181      1.0  0.16028  0.45582  0.53310  1.0000
  C   C95       1.0  0.48591  0.18535  0.59876  1.0000
  H   H182      1.0  0.49046  0.16587  0.68817  1.0000
  H   H183      1.0  0.03676  0.40825  0.54545  1.0000
  H   H184      1.0  0.46652  0.17907  0.60304  1.0000
  H   H185      1.0  0.41223  0.06031  0.57805  1.0000
  H   H186      1.0  0.47971  0.19275  0.71377  1.0000
  H   H187      1.0  0.03110  0.45223  0.58470  1.0000
  H   H188      1.0  0.49136  0.18106  0.66261  1.0000
  H   H189      1.0  0.02118  0.47381  0.57623  1.0000
  C   C96       1.0  0.48967  0.27938  0.48718  1.0000
  H   H190      1.0  0.48450  0.16389  0.71226  1.0000
  H   H191      1.0  0.40504  0.12155  0.55545  1.0000
  C   C97       1.0  0.44203  0.10361  0.56150  1.0000
  H   H192      1.0  0.21590  0.47181  0.49818  1.0000
  C   C98       1.0  0.06296  0.48885  0.57857  1.0000
  C   C99       1.0  0.35834  0.47397  0.49114  1.0000
  H   H193      1.0  0.00531  0.41526  0.56926  1.0000
  H   H194      1.0  0.07836  0.41036  0.53692  1.0000
  H   H195      1.0  0.44854  0.08062  0.53525  1.0000
  H   H196      1.0  0.40885  0.13887  0.57289  1.0000
  H   H197      1.0  0.18117  0.45364  0.54755  1.0000
  S   S21       1.0  0.48208  0.23255  0.49994  1.0000
  C   C100      1.0  0.07736  0.42044  0.54736  1.0000
  N   N7        1.0  0.45321  0.16677  0.68694  1.0000
  H   H198      1.0  0.29440  0.48200  0.51060  1.0000
  C   C101      1.0  0.42900  0.15412  0.67725  1.0000
  C   C102      1.0  0.47181  0.15638  0.68188  1.0000
  C   C103      1.0  0.45555  0.06797  0.54103  1.0000
  H   H199      1.0  0.07498  0.40744  0.55701  1.0000
  H   H200      1.0  0.43421  0.20633  0.68430  1.0000
  C   C104      1.0  0.40288  0.15001  0.68432  1.0000
  C   C105      1.0  0.38131  0.14149  0.67250  1.0000
  H   H201      1.0  0.33912  0.45882  0.48730  1.0000
  C   C106      1.0  0.03566  0.46618  0.57525  1.0000
  C   C107      1.0  0.16814  0.46245  0.54457  1.0000
  H   H202      1.0  0.36275  0.13805  0.67790  1.0000
  H   H203      1.0  0.42570  0.13428  0.67363  1.0000
  H   H204      1.0  0.46370  0.13523  0.68440  1.0000
  H   H205      1.0  0.41016  0.09724  0.57719  1.0000
  S   S22       1.0  0.48313  0.13429  0.52732  1.0000
  H   H206      1.0  0.42935  0.09608  0.55148  1.0000
  H   H207      1.0  0.43811  0.13783  0.70431  1.0000
  H   H208      1.0  0.48704  0.24633  0.69649  1.0000
  H   H209      1.0  0.41934  0.02660  0.49937  1.0000
  H   H210      1.0  0.39690  0.13445  0.69289  1.0000
  H   H211      1.0  0.36339  0.46763  0.50190  1.0000
  H   H212      1.0  0.44895  0.09159  0.59108  1.0000
  H   H213      1.0  0.47388  0.24607  0.67799  1.0000
  H   H214      1.0  0.05220  0.43101  0.57046  1.0000
  C   C108      1.0  0.00445  0.41905  0.51531  1.0000
  C   C109      1.0  0.44695  0.15938  0.70319  1.0000
  C   C110      1.0  0.05446  0.42703  0.54637  1.0000
  H   H215      1.0  0.09594  0.43835  0.54873  1.0000
  H   H216      1.0  0.46912  0.20051  0.67267  1.0000
  C   C111      1.0  0.42454  0.05816  0.56914  1.0000
  H   H217      1.0  0.48264  0.05206  0.53602  1.0000
  H   H218      1.0  0.05734  0.47999  0.54411  1.0000
  C   C112      1.0  0.47558  0.06532  0.53093  1.0000
  H   H219      1.0  0.38826  0.01138  0.58111  1.0000
  C   C113      1.0  0.40189  0.00937  0.57305  1.0000
  H   H220      1.0  0.00624  0.48369  0.52731  1.0000
  H   H221      1.0  0.45822  0.25078  0.69434  1.0000
  C   C114      1.0  0.47936  0.16018  0.66504  1.0000
  H   H222      1.0  0.35685  0.49237  0.49294  1.0000
  H   H223      1.0  0.48364  0.12463  0.66210  1.0000
  H   H224      1.0  0.46648  0.05713  0.51992  1.0000
  H   H225      1.0  0.41505  0.45801  0.49145  1.0000
  H   H226      1.0  0.45144  0.14278  0.73204  1.0000
  C   C115      1.0  0.48344  0.02739  0.49201  1.0000
  C   C116      1.0  0.46092  0.16420  0.73057  1.0000
  C   C117      1.0  0.48949  0.18295  0.58328  1.0000
  C   C118      1.0  0.48769  0.11707  0.58281  1.0000
  H   H227      1.0  0.48166  0.06460  0.49156  1.0000
  C   C119      1.0  0.47237  0.25283  0.48888  1.0000
  H   H228      1.0  0.00860  0.48408  0.55493  1.0000
  H   H229      1.0  0.43748  0.43001  0.48959  1.0000
  H   H230      1.0  0.41023  0.49467  0.49544  1.0000
  C   C120      1.0  0.29773  0.49483  0.50076  1.0000
  C   C121      1.0  0.19683  0.49078  0.48602  1.0000
  H   H231      1.0  0.49227  0.08460  0.52898  1.0000
  H   H232      1.0  0.22136  0.48760  0.82097  1.0000
  C   C122      1.0  0.39454  0.12542  0.89646  1.0000
  C   C123      1.0  0.36219  0.00602  0.93470  1.0000
  H   H233      1.0  0.38665  0.14983  0.88139  1.0000
  H   H234      1.0  0.29330  0.47342  0.82879  1.0000
  C   C124      1.0  0.42767  0.20624  0.87608  1.0000
  S   S23       1.0  0.07502  0.46583  0.93758  1.0000
  H   H235      1.0  0.01956  0.43252  0.90395  1.0000
  S   S24       1.0  0.43721  0.16058  0.93384  1.0000
  H   H236      1.0  0.41293  0.19408  0.85334  1.0000
  C   C125      1.0  0.38529  0.14616  0.89360  1.0000
  H   H237      1.0  0.03995  0.49563  0.97713  1.0000
  Fe  Fe10      1.0  0.45184  0.13057  0.93840  1.0000
  S   S25       1.0  0.43532  0.08581  0.93867  1.0000
  Fe  Fe11      1.0  0.46322  0.18424  0.95302  1.0000
  S   S26       1.0  0.45117  0.20417  0.97187  1.0000
  C   C126      1.0  0.02290  0.43625  0.89175  1.0000
  C   C127      1.0  0.46077  0.23716  0.97763  1.0000
  C   C128      1.0  0.29134  0.48961  0.83454  1.0000
  H   H238      1.0  0.37252  0.21073  0.90764  1.0000
  H   H239      1.0  0.44391  0.22349  0.88118  1.0000
  H   H240      1.0  0.36630  0.18010  0.91533  1.0000
  H   H241      1.0  0.41017  0.00573  0.90911  1.0000
  H   H242      1.0  0.00227  0.42426  0.87091  1.0000
  H   H243      1.0  0.39707  0.16537  0.91472  1.0000
  C   C129      1.0  0.03257  0.47322  0.92725  1.0000
  C   C130      1.0  0.04125  0.45743  0.93501  1.0000
  C   C131      1.0  0.02246  0.43369  0.94076  1.0000
  C   C132      1.0  0.42984  0.03912  0.89548  1.0000
  H   H244      1.0  0.43592  0.99802  0.88681  1.0000
  H   H245      1.0  0.02877  0.42116  0.94672  1.0000
  H   H246      1.0  0.32262  0.18940  0.90672  1.0000
  H   H247      1.0  0.35056  0.19322  0.88459  1.0000
  H   H248      1.0  0.42986  0.04582  0.88382  1.0000
  C   C133      1.0  0.38665  0.00763  0.93798  1.0000
  C   C134      1.0  0.40865  0.03213  0.93905  1.0000
  C   C135      1.0  0.40666  0.05546  0.93694  1.0000
  C   C136      1.0  0.38224  0.05384  0.93353  1.0000
  C   C137      1.0  0.36024  0.02932  0.93239  1.0000
  H   H249      1.0  0.49115  0.31427  0.94367  1.0000
  H   H250      1.0  0.42736  0.03302  0.94170  1.0000
  H   H251      1.0  0.38026  0.07147  0.93184  1.0000
  H   H252      1.0  0.34150  0.02841  0.92983  1.0000
  H   H253      1.0  0.42237  0.17547  0.90162  1.0000
  C   C138      1.0  0.34854  0.17908  0.89356  1.0000
  C   C139      1.0  0.40163  0.17106  0.90282  1.0000
  H   H254      1.0  0.43124  0.18900  0.87766  1.0000
  H   H255      1.0  0.17668  0.47486  0.81211  1.0000
  H   H256      1.0  0.42536  0.22866  0.85694  1.0000
  H   H257      1.0  0.45750  0.23683  0.93028  1.0000
  H   H258      1.0  0.48116  0.16106  0.88260  1.0000
  C   C140      1.0  0.99558  0.42586  0.93887  1.0000
  H   H259      1.0  0.42521  0.05168  0.90319  1.0000
  H   H260      1.0  0.43809  0.21935  0.90555  1.0000
  H   H261      1.0  0.44734  0.21442  0.85469  1.0000
  H   H262      1.0  0.31923  0.15698  0.91008  1.0000
  H   H263      1.0  0.36474  0.13779  0.89711  1.0000
  H   H264      1.0  0.41882  0.23616  0.90437  1.0000
  C   C141      1.0  0.48551  0.28411  0.97468  1.0000
  H   H265      1.0  0.25386  0.47900  0.82499  1.0000
  H   H266      1.0  0.48302  0.44509  0.97801  1.0000
  H   H267      1.0  0.28392  0.48318  0.84602  1.0000
  H   H268      1.0  0.38611  0.18653  0.87603  1.0000
  H   H269      1.0  0.39893  0.21969  0.88108  1.0000
  H   H270      1.0  0.34742  0.16135  0.88810  1.0000
  H   H271      1.0  0.04662  0.49121  0.92248  1.0000
  H   H272      1.0  0.39312  0.12041  0.90855  1.0000
  C   C142      1.0  0.47870  0.25849  0.96966  1.0000
  S   S27       1.0  0.47526  0.15277  0.95862  1.0000
  H   H273      1.0  0.41498  0.13241  0.89283  1.0000
  C   C143      1.0  0.41848  0.21750  0.90804  1.0000
  C   C144      1.0  0.32273  0.17195  0.90139  1.0000
  C   C145      1.0  0.00566  0.46543  0.92538  1.0000
  H   H274      1.0  0.48714  0.25527  0.95954  1.0000
  C   C146      1.0  0.37167  0.19148  0.90473  1.0000
  H   H275      1.0  0.30663  0.16391  0.89306  1.0000
  H   H276      1.0  0.38228  0.10751  0.89000  1.0000
  C   C147      1.0  0.40136  0.20176  0.88299  1.0000
  H   H277      1.0  0.44947  0.04136  0.89843  1.0000
  N   N8        1.0  0.39791  0.19488  0.89943  1.0000
  H   H278      1.0  0.47460  0.49423  0.96890  1.0000
  Fe  Fe12      1.0  0.47288  0.18084  0.91941  1.0000
  C   C148      1.0  0.42820  0.21114  0.85924  1.0000
  C   C149      1.0  0.48907  0.20112  0.88036  1.0000
  H   H279      1.0  0.99935  0.47786  0.91933  1.0000
  S   S28       1.0  0.47655  0.20396  0.89809  1.0000
  H   H280      1.0  0.46599  0.41051  0.97498  1.0000
  H   H281      1.0  0.39848  0.21833  0.92897  1.0000
  H   H282      1.0  0.15891  0.49049  0.82051  1.0000
  S   S29       1.0  0.48547  0.14968  0.92257  1.0000
  H   H283      1.0  0.03118  0.45750  0.88976  1.0000
  H   H284      1.0  0.03728  0.42947  0.88816  1.0000
  C   C150      1.0  0.41601  0.21648  0.92541  1.0000
  H   H285      1.0  0.41144  0.99804  0.87494  1.0000
  H   H286      1.0  0.43698  0.23760  0.94521  1.0000
  H   H287      1.0  0.24993  0.48350  0.96547  1.0000
  H   H288      1.0  0.48679  0.08059  0.96954  1.0000
  H   H289      1.0  0.39045  0.01015  0.89463  1.0000
  C   C151      1.0  0.40960  0.01086  0.89722  1.0000
  H   H290      1.0  0.41474  0.19810  0.92996  1.0000
  H   H291      1.0  0.47789  0.17282  0.73830  1.0000
  C   C152      1.0  0.43950  0.23860  0.93285  1.0000
  H   H292      1.0  0.00061  0.46172  0.96577  1.0000
  H   H293      1.0  0.17061  0.47237  0.83213  1.0000
  C   C153      1.0  0.17514  0.48531  0.82225  1.0000
  C   C154      1.0  0.48193  0.42884  0.97080  1.0000
  H   H294      1.0  0.44161  0.25777  0.92899  1.0000
  H   H295      1.0  0.47751  0.43234  0.95913  1.0000
  C   C155      1.0  0.48876  0.17788  0.87541  1.0000
  H   H296      1.0  0.48948  0.35108  0.95664  1.0000
  C   C156      1.0  0.00227  0.48163  0.96701  1.0000
  H   H297      1.0  0.49049  0.38690  0.96597  1.0000
  C   C157      1.0  0.99752  0.42155  0.88302  1.0000
  H   H298      1.0  0.21557  0.49549  0.95691  1.0000
  H   H299      1.0  0.30659  0.67194  0.09408  1.0000
  Fe  Fe13      1.0  0.15247  0.73209  0.00738  1.0000
  S   S30       1.0  0.16251  0.70768  0.02342  1.0000
  S   S31       1.0  0.19085  0.76704  0.00041  1.0000
  Fe  Fe14      1.0  0.09402  0.69231  0.00852  1.0000
  S   S32       1.0  0.10135  0.66590  0.02411  1.0000
  S   S33       1.0  0.05364  0.67890  0.99783  1.0000
  Fe  Fe15      1.0  0.12780  0.70225  0.03672  1.0000
  S   S34       1.0  0.12509  0.69671  0.06213  1.0000
  Fe  Fe16      1.0  0.13566  0.67354  0.00978  1.0000
  S   S35       1.0  0.14956  0.64324  0.00533  1.0000
  S   S36       1.0  0.11873  0.72897  0.02187  1.0000
  H   H300      1.0  0.47066  0.87405  0.18427  1.0000
  Fe  Fe17      1.0  0.37268  0.55729  0.01627  1.0000
  S   S37       1.0  0.36108  0.52467  0.99973  1.0000
  S   S38       1.0  0.40059  0.59904  0.01123  1.0000
  Fe  Fe18      1.0  0.33724  0.52212  0.04058  1.0000
  S   S39       1.0  0.31797  0.51776  0.06352  1.0000
  Fe  Fe19      1.0  0.32017  0.51332  0.00736  1.0000
  H   H301      1.0  0.49234  0.78510  0.19378  1.0000
  S   S40       1.0  0.37928  0.53529  0.03522  1.0000
  S   S41       1.0  0.33178  0.54732  0.02303  1.0000
  Fe  Fe20      1.0  0.34024  0.57504  0.14826  1.0000
  S   S42       1.0  0.36176  0.59562  0.16948  1.0000
  S   S43       1.0  0.36183  0.56915  0.12802  1.0000
  Fe  Fe21      1.0  0.28917  0.57076  0.15998  1.0000
  S   S44       1.0  0.30565  0.59117  0.18169  1.0000
  S   S45       1.0  0.24683  0.55383  0.15396  1.0000
  Fe  Fe22      1.0  0.33892  0.61837  0.16779  1.0000
  S   S46       1.0  0.35490  0.66048  0.17451  1.0000
  Fe  Fe23      1.0  0.32732  0.56726  0.18245  1.0000
  S   S47       1.0  0.32998  0.54946  0.20486  1.0000
  S   S48       1.0  0.32012  0.60050  0.14581  1.0000
  S   S49       1.0  0.30808  0.54413  0.16153  1.0000
  Fe  Fe24      1.0  0.25719  0.71617  0.15337  1.0000
  S   S50       1.0  0.23009  0.67636  0.16109  1.0000
  S   S51       1.0  0.29537  0.73026  0.16532  1.0000
  Fe  Fe25      1.0  0.21667  0.71911  0.13238  1.0000
  S   S52       1.0  0.18617  0.68002  0.13930  1.0000
  S   S53       1.0  0.21014  0.74281  0.11393  1.0000
  Fe  Fe26      1.0  0.20121  0.69211  0.16285  1.0000
  S   S54       1.0  0.17548  0.68024  0.18331  1.0000
  Fe  Fe27      1.0  0.21802  0.66805  0.13715  1.0000
  S   S55       1.0  0.20945  0.63118  0.12468  1.0000
  S   S56       1.0  0.22896  0.73275  0.15631  1.0000
  S   S57       1.0  0.24799  0.70649  0.12902  1.0000
  Fe  Fe28      1.0  0.44329  0.78255  0.13430  1.0000
  S   S58       1.0  0.42982  0.79475  0.15504  1.0000
  S   S59       1.0  0.43111  0.74061  0.12823  1.0000
  Fe  Fe29      1.0  0.42511  0.82320  0.13970  1.0000
  S   S60       1.0  0.38947  0.82978  0.13983  1.0000
  S   S61       1.0  0.43549  0.80865  0.11862  1.0000
  H   H302      1.0  0.43957  0.82442  0.18817  1.0000
  C   C158      1.0  0.32080  0.75847  0.15833  1.0000
  C   C159      1.0  0.31700  0.77224  0.14646  1.0000
  C   C160      1.0  0.33802  0.79463  0.14103  1.0000
  C   C161      1.0  0.36284  0.80291  0.14729  1.0000
  C   C162      1.0  0.36635  0.78934  0.15935  1.0000
  C   C163      1.0  0.34541  0.76715  0.16482  1.0000
  H   H303      1.0  0.29794  0.76566  0.14148  1.0000
  H   H304      1.0  0.33521  0.80521  0.13177  1.0000
  H   H305      1.0  0.38507  0.79628  0.16469  1.0000
  H   H306      1.0  0.34827  0.75664  0.17408  1.0000
  C   C164      1.0  0.19025  0.69192  0.20101  1.0000
  C   C165      1.0  0.21530  0.71233  0.20217  1.0000
  H   H307      1.0  0.19899  0.65018  0.02486  1.0000
  C   C166      1.0  0.21838  0.70917  0.98578  1.0000
  C   C167      1.0  0.17650  0.68088  0.21418  1.0000
  H   H308      1.0  0.22611  0.72099  0.19213  1.0000
  H   H309      1.0  0.15708  0.66516  0.21338  1.0000
  C   C168      1.0  0.37477  0.68187  0.16091  1.0000
  C   C169      1.0  0.38958  0.67465  0.15134  1.0000
  C   C170      1.0  0.40653  0.69266  0.14111  1.0000
  C   C171      1.0  0.40867  0.71787  0.14044  1.0000
  C   C172      1.0  0.39317  0.72471  0.14968  1.0000
  C   C173      1.0  0.37644  0.70683  0.15999  1.0000
  H   H310      1.0  0.38830  0.65532  0.15200  1.0000
  H   H311      1.0  0.41827  0.68716  0.13386  1.0000
  H   H312      1.0  0.39386  0.74370  0.14883  1.0000
  H   H313      1.0  0.36478  0.71239  0.16726  1.0000
  C   C174      1.0  0.23690  0.57585  0.14610  1.0000
  C   C175      1.0  0.24739  0.60171  0.15102  1.0000
  C   C176      1.0  0.23850  0.61875  0.14481  1.0000
  C   C177      1.0  0.21985  0.61011  0.13334  1.0000
  C   C178      1.0  0.20949  0.58430  0.12843  1.0000
  C   C179      1.0  0.21766  0.56710  0.13498  1.0000
  H   H314      1.0  0.26215  0.60840  0.15968  1.0000
  H   H315      1.0  0.24644  0.63865  0.14863  1.0000
  H   H316      1.0  0.19497  0.57750  0.11962  1.0000
  H   H317      1.0  0.20941  0.54708  0.13123  1.0000
  C   C180      1.0  0.32963  0.56406  0.22242  1.0000
  H   H318      1.0  0.47568  0.78079  0.21909  1.0000
  H   H319      1.0  0.21898  0.69761  0.09553  1.0000
  H   H320      1.0  0.16896  0.62342  0.03038  1.0000
  C   C181      1.0  0.32748  0.58730  0.22333  1.0000
  H   H321      1.0  0.32614  0.59682  0.21318  1.0000
  C   C182      1.0  0.33073  0.53333  0.08112  1.0000
  C   C183      1.0  0.31344  0.53039  0.09288  1.0000
  C   C184      1.0  0.32254  0.54169  0.10714  1.0000
  C   C185      1.0  0.34918  0.55578  0.10995  1.0000
  C   C186      1.0  0.36649  0.55871  0.09818  1.0000
  C   C187      1.0  0.35737  0.54775  0.08383  1.0000
  C   C188      1.0  0.44905  0.72039  0.19658  1.0000
  H   H322      1.0  0.30895  0.53913  0.11605  1.0000
  C   C189      1.0  0.02223  0.65968  0.00563  1.0000
  C   C190      1.0  0.01846  0.65472  0.02101  1.0000
  H   H323      1.0  0.45090  0.84424  0.06142  1.0000
  H   H324      1.0  0.03501  0.66224  0.02852  1.0000
  H   H325      1.0  0.45774  0.56046  0.02615  1.0000
  C   C191      1.0  0.18822  0.72879  0.09874  1.0000
  C   C192      1.0  0.16957  0.70278  0.09884  1.0000
  C   C193      1.0  0.15065  0.69307  0.08738  1.0000
  C   C194      1.0  0.15088  0.70891  0.07537  1.0000
  C   C195      1.0  0.17018  0.73463  0.07495  1.0000
  C   C196      1.0  0.18859  0.74455  0.08666  1.0000
  H   H326      1.0  0.16926  0.69035  0.10796  1.0000
  H   H327      1.0  0.13566  0.67323  0.08787  1.0000
  H   H328      1.0  0.17034  0.74713  0.06589  1.0000
  H   H329      1.0  0.20293  0.76471  0.08649  1.0000
  H   H330      1.0  0.38712  0.56962  0.10018  1.0000
  H   H331      1.0  0.47123  0.82390  0.00220  1.0000
  H   H332      1.0  0.09922  0.72331  0.12445  1.0000
  C   C197      1.0  0.00028  0.64973  0.99610  1.0000
  H   H333      1.0  0.21754  0.64766  0.05076  1.0000
  C   C198      1.0  0.43918  0.82673  0.21236  1.0000
  C   C199      1.0  0.47873  0.83343  0.22517  1.0000
  H   H334      1.0  0.44373  0.79632  0.00968  1.0000
  C   C200      1.0  0.10407  0.52742  0.99029  1.0000
  C   C201      1.0  0.48946  0.87408  0.05713  1.0000
  H   H335      1.0  0.33260  0.53380  0.23522  1.0000
  C   C202      1.0  0.20618  0.63054  0.21568  1.0000
  H   H336      1.0  0.29142  0.69528  0.21475  1.0000
  H   H337      1.0  0.36446  0.60173  0.98570  1.0000
  H   H338      1.0  0.22738  0.52826  0.22295  1.0000
  H   H339      1.0  0.42205  0.52112  0.03616  1.0000
  H   H340      1.0  0.18645  0.61391  0.21528  1.0000
  H   H341      1.0  0.18309  0.58803  0.18548  1.0000
  C   C203      1.0  0.43818  0.85917  0.99534  1.0000
  H   H342      1.0  0.25206  0.51046  0.20920  1.0000
  C   C204      1.0  0.45400  0.92794  0.03743  1.0000
  C   C205      1.0  0.22371  0.60257  0.20475  1.0000
  H   H343      1.0  0.34722  0.74239  0.13518  1.0000
  H   H344      1.0  0.09960  0.68536  0.12491  1.0000
  C   C206      1.0  0.23600  0.59459  0.19149  1.0000
  C   C207      1.0  0.47468  0.85258  0.08132  1.0000
  C   C208      1.0  0.41951  0.67192  0.19330  1.0000
  H   H345      1.0  0.23473  0.68938  0.07158  1.0000
  C   C209      1.0  0.23745  0.56930  0.19500  1.0000
  C   C210      1.0  0.99315  0.64051  0.02674  1.0000
  H   H346      1.0  0.34785  0.68999  0.10904  1.0000
  H   H347      1.0  0.44003  0.56909  0.03980  1.0000
  H   H348      1.0  0.22815  0.51640  0.03202  1.0000
  H   H349      1.0  0.33562  0.61930  0.99648  1.0000
  H   H350      1.0  0.23528  0.60297  0.21484  1.0000
  H   H351      1.0  0.19547  0.60818  0.01586  1.0000
  C   C211      1.0  0.12313  0.73613  0.15205  1.0000
  C   C212      1.0  0.45296  0.55962  0.03825  1.0000
  H   H352      1.0  0.24051  0.68312  0.09863  1.0000
  H   H353      1.0  0.25601  0.60964  0.18928  1.0000
  H   H354      1.0  0.22438  0.59138  0.18106  1.0000
  H   H355      1.0  0.22476  0.65595  0.07632  1.0000
  H   H356      1.0  0.33203  0.70434  0.14533  1.0000
  H   H357      1.0  0.26642  0.56524  0.04386  1.0000
  H   H358      1.0  0.34562  0.62420  0.11260  1.0000
  C   C213      1.0  0.26526  0.88170  0.98851  1.0000
  H   H359      1.0  0.20603  0.66366  0.10046  1.0000
  H   H360      1.0  0.17962  0.64537  0.07647  1.0000
  H   H361      1.0  0.09328  0.74349  0.17429  1.0000
  H   H362      1.0  0.24620  0.56379  0.18543  1.0000
  H   H363      1.0  0.24983  0.57181  0.20502  1.0000
  H   H364      1.0  0.21779  0.55324  0.19688  1.0000
  C   C214      1.0  0.47368  0.89306  0.17962  1.0000
  C   C215      1.0  0.43132  0.69841  0.18565  1.0000
  H   H365      1.0  0.27889  0.78495  0.21199  1.0000
  H   H366      1.0  0.45310  0.93501  0.04891  1.0000
  H   H367      1.0  0.31534  0.58763  0.00436  1.0000
  H   H368      1.0  0.30634  0.90441  0.99394  1.0000
  H   H369      1.0  0.26084  0.64926  0.19379  1.0000
  H   H370      1.0  0.47367  0.74877  0.22131  1.0000
  H   H371      1.0  0.48981  0.83633  0.23542  1.0000
  N   N9        1.0  0.22255  0.62814  0.20321  1.0000
  H   H372      1.0  0.39641  0.84082  0.99468  1.0000
  C   C216      1.0  0.13739  0.70964  0.13587  1.0000
  H   H373      1.0  0.31949  0.78380  0.23192  1.0000
  C   C217      1.0  0.35243  0.64518  0.11512  1.0000
  H   H374      1.0  0.38230  0.51017  0.08690  1.0000
  H   H375      1.0  0.29235  0.57248  0.03072  1.0000
  C   C218      1.0  0.45320  0.83014  0.22580  1.0000
  H   H376      1.0  0.34463  0.57066  0.99350  1.0000
  H   H377      1.0  0.40703  0.67174  0.20278  1.0000
  C   C219      1.0  0.40315  0.51862  0.08999  1.0000
  H   H378      1.0  0.25940  0.55958  0.02396  1.0000
  H   H379      1.0  0.13098  0.75671  0.15598  1.0000
  C   C220      1.0  0.24371  0.52725  0.22909  1.0000
  H   H380      1.0  0.22371  0.63113  0.17901  1.0000
  H   H381      1.0  0.28314  0.53211  0.04388  1.0000
  H   H382      1.0  0.39487  0.49836  0.11140  1.0000
  C   C221      1.0  0.44832  0.89579  0.18178  1.0000
  H   H383      1.0  0.44737  0.77932  0.19297  1.0000
  C   C222      1.0  0.41654  0.50309  0.08284  1.0000
  H   H384      1.0  0.16455  0.60642  0.99243  1.0000
  S   S62       1.0  0.48203  0.87760  0.03817  1.0000
  H   H385      1.0  0.08817  0.71009  0.17521  1.0000
  H   H386      1.0  0.26076  0.64710  0.21356  1.0000
  H   H387      1.0  0.40302  0.77785  0.18981  1.0000
  H   H388      1.0  0.25885  0.99201  0.98948  1.0000
  C   C223      1.0  0.41151  0.74454  0.19027  1.0000
  H   H389      1.0  0.15016  0.71062  0.12634  1.0000
  H   H390      1.0  0.31710  0.64369  0.10679  1.0000
  H   H391      1.0  0.40542  0.56806  0.98662  1.0000
  H   H392      1.0  0.46842  0.51151  0.06283  1.0000
  H   H393      1.0  0.46276  0.72237  0.14891  1.0000
  N   N10       1.0  0.18941  0.66228  0.05435  1.0000
  C   C224      1.0  0.19211  0.66434  0.07116  1.0000
  C   C225      1.0  0.16183  0.65602  0.05019  1.0000
  C   C226      1.0  0.20724  0.68755  0.04694  1.0000
  C   C227      1.0  0.20723  0.71251  0.05365  1.0000
  C   C228      1.0  0.14060  0.62981  0.05608  1.0000
  C   C229      1.0  0.11403  0.62406  0.04956  1.0000
  C   C230      1.0  0.22578  0.73679  0.04527  1.0000
  H   H394      1.0  0.18478  0.67786  0.07557  1.0000
  H   H395      1.0  0.15679  0.67126  0.05455  1.0000
  H   H396      1.0  0.15958  0.65651  0.03782  1.0000
  H   H397      1.0  0.20209  0.68702  0.03487  1.0000
  H   H398      1.0  0.21345  0.71543  0.06557  1.0000
  H   H399      1.0  0.18763  0.71145  0.05291  1.0000
  H   H400      1.0  0.14463  0.61329  0.05307  1.0000
  H   H401      1.0  0.13912  0.63051  0.06846  1.0000
  H   H402      1.0  0.10856  0.63963  0.05276  1.0000
  H   H403      1.0  0.11415  0.62253  0.03714  1.0000
  H   H404      1.0  0.09914  0.60535  0.05401  1.0000
  H   H405      1.0  0.24595  0.73915  0.04600  1.0000
  H   H406      1.0  0.21992  0.73573  0.03333  1.0000
  H   H407      1.0  0.22525  0.75418  0.05039  1.0000
  N   N11       1.0  0.40765  0.86675  0.01394  1.0000
  C   C231      1.0  0.38435  0.87220  0.01346  1.0000
  C   C232      1.0  0.43107  0.89130  0.01873  1.0000
  H   H408      1.0  0.45870  0.82597  0.02052  1.0000
  C   C233      1.0  0.40415  0.84438  0.02409  1.0000
  C   C234      1.0  0.38634  0.83962  0.03793  1.0000
  C   C235      1.0  0.46250  0.81311  0.01262  1.0000
  C   C236      1.0  0.28924  0.88691  0.99800  1.0000
  H   H409      1.0  0.42199  0.54134  0.06188  1.0000
  H   H410      1.0  0.41128  0.74406  0.17791  1.0000
  C   C237      1.0  0.38753  0.81896  0.04818  1.0000
  C   C238      1.0  0.17459  0.61015  0.16902  1.0000
  S   S63       1.0  0.49167  0.83250  0.18034  1.0000
  H   H411      1.0  0.38916  0.89062  0.00731  1.0000
  H   H412      1.0  0.37892  0.87576  0.02483  1.0000
  H   H413      1.0  0.41256  0.53918  0.08634  1.0000
  H   H414      1.0  0.43431  0.90714  0.01069  1.0000
  H   H415      1.0  0.41526  0.70180  0.18118  1.0000
  H   H416      1.0  0.47234  0.92614  0.03651  1.0000
  H   H417      1.0  0.39590  0.82564  0.01777  1.0000
  H   H418      1.0  0.42342  0.84677  0.02818  1.0000
  H   H419      1.0  0.36585  0.83257  0.03435  1.0000
  H   H420      1.0  0.39166  0.85745  0.04469  1.0000
  H   H421      1.0  0.27212  0.54102  0.00039  1.0000
  H   H422      1.0  0.20341  0.80072  0.14923  1.0000
  H   H423      1.0  0.44274  0.84901  0.00453  1.0000
  H   H424      1.0  0.34852  0.60580  0.01054  1.0000
  H   H425      1.0  0.23595  0.64768  0.23353  1.0000
  C   C239      1.0  0.40474  0.51853  0.10709  1.0000
  H   H426      1.0  0.06718  0.52778  0.99338  1.0000
  H   H427      1.0  0.24540  0.73813  0.21711  1.0000
  Fe  Fe30      1.0  0.47631  0.83809  0.12372  1.0000
  H   H428      1.0  0.37441  0.81570  0.05786  1.0000
  H   H429      1.0  0.38137  0.80028  0.04204  1.0000
  H   H430      1.0  0.40752  0.82544  0.05257  1.0000
  C   C240      1.0  0.25739  0.90415  0.98983  1.0000
  H   H431      1.0  0.20715  0.87338  0.98939  1.0000
  H   H432      1.0  0.27572  0.92261  0.98966  1.0000
  H   H433      1.0  0.41026  0.72485  0.23300  1.0000
  H   H434      1.0  0.43495  0.66700  0.19745  1.0000
  N   N12       1.0  0.41620  0.50204  0.06594  1.0000
  C   C241      1.0  0.30029  0.66715  0.16514  1.0000
  H   H435      1.0  0.29696  0.64933  0.17144  1.0000
  H   H436      1.0  0.31630  0.68404  0.17072  1.0000
  H   H437      1.0  0.28239  0.66982  0.16556  1.0000
  H   H438      1.0  0.12785  0.65808  0.14091  1.0000
  H   H439      1.0  0.12788  0.66338  0.12089  1.0000
  H   H440      1.0  0.29062  0.69647  0.19444  1.0000
  H   H441      1.0  0.21810  0.91838  0.99304  1.0000
  C   C242      1.0  0.26258  0.52627  0.21744  1.0000
  C   C243      1.0  0.14526  0.63001  0.98718  1.0000
  C   C244      1.0  0.22622  0.72201  0.21635  1.0000
  H   H442      1.0  0.38163  0.50702  0.06173  1.0000
  H   H443      1.0  0.17214  0.75609  0.12628  1.0000
  H   H444      1.0  0.43763  0.75810  0.20866  1.0000
  H   H445      1.0  0.31890  0.84027  0.00270  1.0000
  C   C245      1.0  0.47632  0.83103  0.19773  1.0000
  C   C246      1.0  0.29471  0.80413  0.21537  1.0000
  C   C247      1.0  0.24004  0.53743  0.98623  1.0000
  H   H446      1.0  0.33235  0.67664  0.23332  1.0000
  H   H447      1.0  0.42526  0.52785  0.11095  1.0000
  H   H448      1.0  0.44330  0.73827  0.16851  1.0000
  H   H449      1.0  0.44896  0.88860  0.01842  1.0000
  H   H450      1.0  0.27217  0.54489  0.21126  1.0000
  H   H451      1.0  0.06106  0.56816  0.98959  1.0000
  H   H452      1.0  0.15503  0.59411  0.16667  1.0000
  C   C248      1.0  0.48449  0.76790  0.21584  1.0000
  H   H453      1.0  0.21803  0.61282  0.23412  1.0000
  H   H454      1.0  0.44370  0.89587  0.19383  1.0000
  H   H455      1.0  0.11965  0.73834  0.08499  1.0000
  C   C249      1.0  0.43950  0.53128  0.04326  1.0000
  H   H456      1.0  0.45418  0.94250  0.02923  1.0000
  C   C250      1.0  0.39557  0.75846  0.19515  1.0000
  H   H457      1.0  0.46551  0.91131  0.22843  1.0000
  C   C251      1.0  0.35982  0.85101  0.00569  1.0000
  H   H458      1.0  0.41877  0.93127  0.99296  1.0000
  H   H459      1.0  0.45399  0.87930  0.99464  1.0000
  H   H460      1.0  0.17205  0.75908  0.16085  1.0000
  H   H461      1.0  0.21924  0.78346  0.15806  1.0000
  H   H462      1.0  0.31310  0.80666  0.21008  1.0000
  C   C252      1.0  0.43300  0.63366  0.99076  1.0000
  H   H463      1.0  0.28984  0.81955  0.21112  1.0000
  H   H464      1.0  0.29281  0.51925  0.09099  1.0000
  H   H465      1.0  0.46557  0.77102  0.17115  1.0000
  H   H466      1.0  0.27527  0.52572  0.02424  1.0000
  C   C253      1.0  0.22133  0.67960  0.09402  1.0000
  C   C254      1.0  0.21978  0.67241  0.07745  1.0000
  C   C255      1.0  0.45059  0.82700  0.19841  1.0000
  H   H467      1.0  0.17357  0.62891  0.16789  1.0000
  H   H468      1.0  0.29364  0.87004  0.99708  1.0000
  H   H469      1.0  0.37096  0.55029  0.07494  1.0000
  H   H470      1.0  0.43193  0.88807  0.04316  1.0000
  C   C256      1.0  0.08606  0.54014  0.98807  1.0000
  C   C257      1.0  0.43957  0.75862  0.19628  1.0000
  H   H471      1.0  0.12372  0.54025  0.98598  1.0000
  C   C258      1.0  0.46148  0.75092  0.17459  1.0000
  H   H472      1.0  0.22762  0.69034  0.04699  1.0000
  C   C259      1.0  0.19642  0.64132  0.04906  1.0000
  H   H473      1.0  0.24742  0.64268  0.09878  1.0000
  H   H474      1.0  0.18674  0.62353  0.05601  1.0000
  C   C260      1.0  0.25252  0.67781  0.20490  1.0000
  H   H475      1.0  0.11068  0.75773  0.09738  1.0000
  H   H476      1.0  0.29087  0.64762  0.14392  1.0000
  C   C261      1.0  0.20056  0.61392  0.02779  1.0000
  H   H477      1.0  0.22730  0.96790  0.99523  1.0000
  H   H478      1.0  0.18459  0.74153  0.14946  1.0000
  H   H479      1.0  0.46272  0.93386  0.98985  1.0000
  H   H480      1.0  0.36250  0.85197  0.99333  1.0000
  H   H481      1.0  0.04228  0.59696  0.99760  1.0000
  C   C262      1.0  0.21658  0.63100  0.23180  1.0000
  S   S64       1.0  0.12717  0.69756  0.99303  1.0000
  C   C263      1.0  0.19022  0.63314  0.03236  1.0000
  C   C264      1.0  0.11684  0.66089  0.13142  1.0000
  H   H482      1.0  0.09812  0.64309  0.13028  1.0000
  C   C265      1.0  0.27191  0.55882  0.03327  1.0000
  H   H483      1.0  0.13030  0.71813  0.10648  1.0000
  C   C266      1.0  0.30728  0.66451  0.14891  1.0000
  H   H484      1.0  0.29881  0.69630  0.14259  1.0000
  H   H485      1.0  0.32423  0.66031  0.14901  1.0000
  H   H486      1.0  0.35600  0.83123  0.00937  1.0000
  C   C267      1.0  0.11975  0.73816  0.12428  1.0000
  N   N13       1.0  0.45809  0.74809  0.19138  1.0000
  C   C268      1.0  0.28100  0.69797  0.20492  1.0000
  C   C269      1.0  0.11185  0.73906  0.09626  1.0000
  C   C270      1.0  0.31385  0.68969  0.14009  1.0000
  H   H487      1.0  0.12885  0.72600  0.16090  1.0000
  S   S65       1.0  0.46530  0.85499  0.14375  1.0000
  H   H488      1.0  0.27522  0.67520  0.12118  1.0000
  H   H489      1.0  0.48967  0.94594  0.17851  1.0000
  H   H490      1.0  0.26908  0.62805  0.09632  1.0000
  H   H491      1.0  0.22200  0.62291  0.02900  1.0000
  C   C271      1.0  0.29052  0.67023  0.11679  1.0000
  H   H492      1.0  0.28419  0.64995  0.12052  1.0000
  H   H493      1.0  0.30843  0.72107  0.11942  1.0000
  N   N14       1.0  0.31668  0.68831  0.12335  1.0000
  H   H494      1.0  0.31756  0.63921  0.12653  1.0000
  H   H495      1.0  0.19175  0.59614  0.03476  1.0000
  H   H496      1.0  0.08272  0.70631  0.14742  1.0000
  H   H497      1.0  0.14742  0.70689  0.14590  1.0000
  H   H498      1.0  0.24305  0.68207  0.19519  1.0000
  H   H499      1.0  0.36365  0.75893  0.10275  1.0000
  H   H500      1.0  0.37054  0.68336  0.20790  1.0000
  Fe  Fe31      1.0  0.47074  0.82522  0.15771  1.0000
  C   C272      1.0  0.32415  0.71522  0.11728  1.0000
  C   C273      1.0  0.34983  0.73729  0.12351  1.0000
  C   C274      1.0  0.26590  0.64525  0.09361  1.0000
  H   H501      1.0  0.35311  0.68741  0.12833  1.0000
  H   H502      1.0  0.26422  0.64625  0.08126  1.0000
  H   H503      1.0  0.37569  0.77790  0.11965  1.0000
  H   H504      1.0  0.34329  0.65319  0.21309  1.0000
  H   H505      1.0  0.40721  0.65673  0.18510  1.0000
  C   C275      1.0  0.33770  0.68035  0.11951  1.0000
  C   C276      1.0  0.28854  0.67012  0.09944  1.0000
  C   C277      1.0  0.35839  0.76205  0.11428  1.0000
  H   H506      1.0  0.28533  0.68690  0.09576  1.0000
  H   H507      1.0  0.36584  0.73160  0.12341  1.0000
  C   C278      1.0  0.48415  0.76508  0.19852  1.0000
  H   H508      1.0  0.10071  0.68053  0.14492  1.0000
  H   H509      1.0  0.06250  0.71737  0.16875  1.0000
  C   C279      1.0  0.11173  0.68437  0.13432  1.0000
  S   S66       1.0  0.48511  0.81074  0.13804  1.0000
  H   H510      1.0  0.32641  0.71534  0.10490  1.0000
  Fe  Fe32      1.0  0.36549  0.50142  0.01899  1.0000
  C   C280      1.0  0.32914  0.65086  0.11707  1.0000
  C   C281      1.0  0.35107  0.67470  0.21313  1.0000
  H   H511      1.0  0.34275  0.76829  0.11375  1.0000
  C   C282      1.0  0.08382  0.72413  0.16872  1.0000
  C   C283      1.0  0.09322  0.72579  0.15258  1.0000
  H   H512      1.0  0.08755  0.73928  0.14645  1.0000
  H   H513      1.0  0.33807  0.67985  0.20614  1.0000
  H   H514      1.0  0.09502  0.55911  0.99412  1.0000
  H   H515      1.0  0.36021  0.70648  0.22844  1.0000
  H   H516      1.0  0.36489  0.65669  0.10578  1.0000
  C   C284      1.0  0.04899  0.60698  0.98671  1.0000
  H   H517      1.0  0.09211  0.72261  0.09703  1.0000
  H   H518      1.0  0.39491  0.52966  0.11187  1.0000
  C   C285      1.0  0.16199  0.75698  0.13665  1.0000
  H   H519      1.0  0.48306  0.79012  0.01179  1.0000
  H   H520      1.0  0.47121  0.57058  0.04470  1.0000
  H   H521      1.0  0.41946  0.82430  0.21272  1.0000
  C   C286      1.0  0.18044  0.75854  0.14978  1.0000
  N   N15       1.0  0.13500  0.73465  0.13716  1.0000
  H   H522      1.0  0.26158  0.56843  0.23250  1.0000
  H   H523      1.0  0.43690  0.51222  0.08708  1.0000
  H   H524      1.0  0.20294  0.64808  0.21417  1.0000
  H   H525      1.0  0.11917  0.75719  0.12544  1.0000
  C   C287      1.0  0.12971  0.73688  0.10831  1.0000
  C   C288      1.0  0.41212  0.86006  0.99814  1.0000
  H   H526      1.0  0.16094  0.77586  0.13623  1.0000
  H   H527      1.0  0.44989  0.91396  0.17667  1.0000
  H   H528      1.0  0.46733  0.88114  0.20912  1.0000
  H   H529      1.0  0.36409  0.64976  0.12558  1.0000
  C   C289      1.0  0.46991  0.85584  0.06614  1.0000
  H   H530      1.0  0.21382  0.72691  0.00640  1.0000
  H   H531      1.0  0.14931  0.75295  0.10642  1.0000
  C   C290      1.0  0.18332  0.60735  0.18484  1.0000
  H   H532      1.0  0.43436  0.64850  0.99869  1.0000
  H   H533      1.0  0.46589  0.71638  0.19900  1.0000
  C   C291      1.0  0.20634  0.78293  0.14864  1.0000
  H   H534      1.0  0.20401  0.58646  0.20670  1.0000
  C   C292      1.0  0.48054  0.80345  0.01991  1.0000
  H   H535      1.0  0.39612  0.76084  0.20753  1.0000
  S   S67       1.0  0.28765  0.50142  0.98943  1.0000
  H   H536      1.0  0.37508  0.74682  0.19157  1.0000
  H   H537      1.0  0.40169  0.72456  0.19478  1.0000
  H   H538      1.0  0.42834  0.87268  0.16207  1.0000
  C   C293      1.0  0.33589  0.85512  0.00885  1.0000
  H   H539      1.0  0.41299  0.90418  0.03669  1.0000
  C   C294      1.0  0.26937  0.53135  0.03491  1.0000
  C   C295      1.0  0.48575  0.89740  0.21292  1.0000
  C   C296      1.0  0.33526  0.60100  0.00069  1.0000
  C   C297      1.0  0.43232  0.52918  0.06012  1.0000
  C   C298      1.0  0.24140  0.51165  0.03909  1.0000
  H   H540      1.0  0.40730  0.87535  0.17607  1.0000
  H   H541      1.0  0.24926  0.86331  0.99258  1.0000
  H   H542      1.0  0.26134  0.95233  0.99718  1.0000
  H   H543      1.0  0.42237  0.85432  0.17923  1.0000
  C   C299      1.0  0.18763  0.69029  0.22839  1.0000
  C   C300      1.0  0.25971  0.53079  0.99107  1.0000
  H   H544      1.0  0.18821  0.60922  0.16054  1.0000
  C   C301      1.0  0.21600  0.70949  0.00279  1.0000
  H   H545      1.0  0.24456  0.80128  0.99514  1.0000
  H   H546      1.0  0.43874  0.71745  0.20746  1.0000
  H   H547      1.0  0.21616  0.78286  0.13796  1.0000
  C   C302      1.0  0.42528  0.87314  0.17434  1.0000
  C   C303      1.0  0.48132  0.90529  0.22861  1.0000
  C   C304      1.0  0.21055  0.62973  0.18844  1.0000
  H   H548      1.0  0.24919  0.90296  0.00127  1.0000
  C   C305      1.0  0.34430  0.58817  0.98854  1.0000
  H   H549      1.0  0.24374  0.68075  0.21533  1.0000
  H   H550      1.0  0.33152  0.85331  0.02102  1.0000
  H   H551      1.0  0.45073  0.53923  0.06661  1.0000
  H   H552      1.0  0.16869  0.60778  0.19272  1.0000
  H   H553      1.0  0.23826  0.51603  0.05090  1.0000
  H   H554      1.0  0.44254  0.69705  0.17591  1.0000
  H   H555      1.0  0.47565  0.89117  0.16737  1.0000
  C   C306      1.0  0.35252  0.68507  0.22909  1.0000
  H   H556      1.0  0.27768  0.52221  0.22295  1.0000
  H   H557      1.0  0.45287  0.52262  0.04093  1.0000
  H   H558      1.0  0.23738  0.55257  0.99207  1.0000
  C   C307      1.0  0.21246  0.71110  0.22952  1.0000
  H   H559      1.0  0.38794  0.68202  0.23302  1.0000
  H   H560      1.0  0.20807  0.64782  0.18804  1.0000
  C   C308      1.0  0.49028  0.83408  0.21116  1.0000
  H   H561      1.0  0.19902  0.69167  0.00657  1.0000
  C   C309      1.0  0.29761  0.80621  0.23244  1.0000
  H   H562      1.0  0.06938  0.62215  0.98794  1.0000
  H   H563      1.0  0.28224  0.71779  0.20548  1.0000
  H   H564      1.0  0.48113  0.92945  0.20280  1.0000
  H   H565      1.0  0.48031  0.75690  0.14537  1.0000
  C   C310      1.0  0.43064  0.90159  0.03473  1.0000
  C   C311      1.0  0.24988  0.64980  0.20392  1.0000
  H   H566      1.0  0.33911  0.87467  0.00498  1.0000
  H   H567      1.0  0.10585  0.52423  0.00242  1.0000
  H   H568      1.0  0.48469  0.72892  0.17381  1.0000
  H   H569      1.0  0.45937  0.83861  0.08813  1.0000
  C   C312      1.0  0.48082  0.74031  0.15140  1.0000
  H   H570      1.0  0.41096  0.87406  0.99000  1.0000
  H   H571      1.0  0.47050  0.79217  0.02992  1.0000
  C   C313      1.0  0.41792  0.60735  0.99421  1.0000
  C   C314      1.0  0.48377  0.74569  0.16823  1.0000
  H   H572      1.0  0.28581  0.88967  0.00997  1.0000
  H   H573      1.0  0.23370  0.71019  0.00817  1.0000
  C   C315      1.0  0.25246  0.95222  0.98608  1.0000
  C   C316      1.0  0.24258  0.97282  0.98660  1.0000
  H   H574      1.0  0.31313  0.82585  0.23515  1.0000
  H   H575      1.0  0.23601  0.50871  0.23534  1.0000
  C   C317      1.0  0.23383  0.80303  0.98559  1.0000
  H   H576      1.0  0.23735  0.51967  0.40897  1.0000
  S   S68       1.0  0.32561  0.54182  0.44619  1.0000
  Fe  Fe33      1.0  0.34257  0.52879  0.42715  1.0000
  S   S69       1.0  0.35699  0.55803  0.40812  1.0000
  Fe  Fe34      1.0  0.34890  0.52920  0.46123  1.0000
  H   H577      1.0  0.25335  0.52230  0.26096  1.0000
  Fe  Fe35      1.0  0.16462  0.70381  0.41075  1.0000
  S   S70       1.0  0.14400  0.72450  0.42235  1.0000
  S   S71       1.0  0.19063  0.71105  0.39014  1.0000
  Fe  Fe36      1.0  0.15244  0.66512  0.43658  1.0000
  S   S72       1.0  0.13156  0.68280  0.44993  1.0000
  S   S73       1.0  0.15713  0.62908  0.44190  1.0000
  Fe  Fe37      1.0  0.11223  0.68398  0.42809  1.0000
  S   S74       1.0  0.06818  0.65880  0.42376  1.0000
  Fe  Fe38      1.0  0.16483  0.72178  0.44363  1.0000
  S   S75       1.0  0.18574  0.74957  0.46366  1.0000
  S   S76       1.0  0.13227  0.66447  0.41511  1.0000
  S   S77       1.0  0.18643  0.70318  0.43167  1.0000
  H   H578      1.0  0.21266  0.51348  0.45033  1.0000
  Fe  Fe39      1.0  0.32604  0.56635  0.32360  1.0000
  S   S78       1.0  0.35388  0.60224  0.31122  1.0000
  S   S79       1.0  0.33504  0.53855  0.33784  1.0000
  Fe  Fe40      1.0  0.27895  0.57320  0.31469  1.0000
  S   S80       1.0  0.30224  0.60959  0.30226  1.0000
  S   S81       1.0  0.23542  0.55442  0.31650  1.0000
  Fe  Fe41      1.0  0.32417  0.58935  0.29240  1.0000
  S   S82       1.0  0.33194  0.60316  0.26799  1.0000
  Fe  Fe42      1.0  0.33036  0.62041  0.32137  1.0000
  S   S83       1.0  0.34654  0.66109  0.33081  1.0000
  S   S84       1.0  0.29847  0.55152  0.30377  1.0000
  S   S85       1.0  0.30473  0.58574  0.33496  1.0000
  Fe  Fe43      1.0  0.24623  0.69775  0.29517  1.0000
  S   S86       1.0  0.23305  0.67678  0.27333  1.0000
  S   S87       1.0  0.28544  0.70511  0.30367  1.0000
  Fe  Fe44      1.0  0.19468  0.69767  0.30180  1.0000
  S   S88       1.0  0.17699  0.67746  0.27985  1.0000
  S   S89       1.0  0.17091  0.70616  0.31941  1.0000
  Fe  Fe45      1.0  0.19635  0.65228  0.28539  1.0000
  S   S90       1.0  0.17583  0.60886  0.28352  1.0000
  Fe  Fe46      1.0  0.21523  0.70375  0.26927  1.0000
  S   S91       1.0  0.22654  0.72502  0.24703  1.0000
  S   S92       1.0  0.21135  0.67055  0.30771  1.0000
  S   S93       1.0  0.23109  0.72675  0.29065  1.0000
  S   S94       1.0  0.44337  0.85340  0.28583  1.0000
  Fe  Fe47      1.0  0.43553  0.78331  0.28992  1.0000
  S   S95       1.0  0.40904  0.79238  0.27535  1.0000
  S   S96       1.0  0.43474  0.74382  0.29076  1.0000
  Fe  Fe48      1.0  0.40907  0.81824  0.29410  1.0000
  S   S97       1.0  0.37211  0.82039  0.29954  1.0000
  S   S98       1.0  0.43158  0.80535  0.30973  1.0000
  C   C318      1.0  0.06082  0.60782  0.46810  1.0000
  C   C319      1.0  0.30912  0.73728  0.30229  1.0000
  C   C320      1.0  0.30231  0.75767  0.30118  1.0000
  C   C321      1.0  0.32168  0.78343  0.30054  1.0000
  C   C322      1.0  0.34778  0.78861  0.30077  1.0000
  C   C323      1.0  0.35452  0.76825  0.30192  1.0000
  C   C324      1.0  0.33523  0.74265  0.30282  1.0000
  H   H579      1.0  0.28219  0.75367  0.30122  1.0000
  H   H580      1.0  0.31647  0.79927  0.29982  1.0000
  H   H581      1.0  0.37466  0.77229  0.30225  1.0000
  H   H582      1.0  0.34058  0.72702  0.30388  1.0000
  H   H583      1.0  0.01521  0.69259  0.39078  1.0000
  C   C325      1.0  0.44148  0.64236  0.43332  1.0000
  H   H584      1.0  0.37818  0.66110  0.27039  1.0000
  C   C326      1.0  0.37162  0.68409  0.32001  1.0000
  C   C327      1.0  0.37423  0.70942  0.31900  1.0000
  C   C328      1.0  0.39344  0.72776  0.30990  1.0000
  C   C329      1.0  0.41078  0.72118  0.30229  1.0000
  C   C330      1.0  0.40882  0.69612  0.30373  1.0000
  C   C331      1.0  0.38901  0.67748  0.31239  1.0000
  H   H585      1.0  0.36084  0.71458  0.32487  1.0000
  H   H586      1.0  0.47804  0.76851  0.37743  1.0000
  H   H587      1.0  0.42237  0.69098  0.29800  1.0000
  H   H588      1.0  0.38741  0.65811  0.31334  1.0000
  C   C332      1.0  0.21974  0.57017  0.30706  1.0000
  C   C333      1.0  0.23239  0.59682  0.30405  1.0000
  C   C334      1.0  0.21898  0.60896  0.29689  1.0000
  C   C335      1.0  0.19301  0.59434  0.29258  1.0000
  C   C336      1.0  0.18049  0.56770  0.29549  1.0000
  C   C337      1.0  0.19377  0.55568  0.30278  1.0000
  H   H589      1.0  0.25230  0.60822  0.30756  1.0000
  H   H590      1.0  0.22878  0.62959  0.29468  1.0000
  H   H591      1.0  0.16043  0.55637  0.29219  1.0000
  H   H592      1.0  0.18393  0.53508  0.30507  1.0000
  C   C338      1.0  0.34158  0.52434  0.36645  1.0000
  H   H593      1.0  0.46118  0.77360  0.32324  1.0000
  H   H594      1.0  0.45337  0.84175  0.33623  1.0000
  H   H595      1.0  0.44900  0.83901  0.36393  1.0000
  C   C339      1.0  0.43862  0.90020  0.45870  1.0000
  C   C340      1.0  0.44835  0.88958  0.46969  1.0000
  H   H596      1.0  0.17669  0.68197  0.23845  1.0000
  H   H597      1.0  0.44658  0.50512  0.44290  1.0000
  H   H598      1.0  0.02538  0.55579  0.44443  1.0000
  H   H599      1.0  0.46381  0.88453  0.46698  1.0000
  H   H600      1.0  0.34682  0.51294  0.38886  1.0000
  C   C341      1.0  0.48031  0.98233  0.45834  1.0000
  C   C342      1.0  0.18344  0.70743  0.37062  1.0000
  C   C343      1.0  0.16105  0.70760  0.36463  1.0000
  C   C344      1.0  0.15731  0.70685  0.34895  1.0000
  C   C345      1.0  0.17559  0.70539  0.33909  1.0000
  C   C346      1.0  0.19743  0.70407  0.34511  1.0000
  C   C347      1.0  0.20150  0.70549  0.36076  1.0000
  H   H601      1.0  0.14703  0.70919  0.37205  1.0000
  H   H602      1.0  0.14031  0.70780  0.34442  1.0000
  H   H603      1.0  0.21147  0.70263  0.33767  1.0000
  H   H604      1.0  0.21884  0.70527  0.36527  1.0000
  C   C348      1.0  0.21400  0.77941  0.46813  1.0000
  C   C349      1.0  0.40888  0.66931  0.25505  1.0000
  H   H605      1.0  0.43649  0.98883  0.45665  1.0000
  H   H606      1.0  0.28910  0.69657  0.26038  1.0000
  C   C350      1.0  0.35899  0.81764  0.25116  1.0000
  C   C351      1.0  0.21364  0.50461  0.46083  1.0000
  C   C352      1.0  0.32970  0.58669  0.25076  1.0000
  C   C353      1.0  0.35006  0.55168  0.38871  1.0000
  C   C354      1.0  0.34966  0.57139  0.37961  1.0000
  C   C355      1.0  0.34456  0.56740  0.36412  1.0000
  C   C356      1.0  0.34063  0.54390  0.35742  1.0000
  H   H607      1.0  0.35346  0.58996  0.38453  1.0000
  H   H608      1.0  0.34438  0.58280  0.35728  1.0000
  H   H609      1.0  0.33734  0.81164  0.27168  1.0000
  C   C357      1.0  0.41303  0.58120  0.46927  1.0000
  C   C358      1.0  0.43852  0.60120  0.46928  1.0000
  H   H610      1.0  0.39302  0.76683  0.35852  1.0000
  H   H611      1.0  0.26877  0.76849  0.25893  1.0000
  H   H612      1.0  0.40442  0.57074  0.45902  1.0000
  H   H613      1.0  0.44960  0.60588  0.45903  1.0000
  H   H614      1.0  0.05389  0.56900  0.42621  1.0000
  H   H615      1.0  0.24826  0.57666  0.27271  1.0000
  C   C359      1.0  0.15258  0.59389  0.46356  1.0000
  C   C360      1.0  0.14764  0.61481  0.45959  1.0000
  C   C361      1.0  0.13595  0.62447  0.46990  1.0000
  N   N16       1.0  0.24168  0.55145  0.25329  1.0000
  H   H616      1.0  0.46433  0.70040  0.34386  1.0000
  H   H617      1.0  0.13156  0.64015  0.46674  1.0000
  H   H618      1.0  0.37420  0.85979  0.25340  1.0000
  H   H619      1.0  0.22668  0.50546  0.29953  1.0000
  C   C362      1.0  0.46371  0.66754  0.43918  1.0000
  N   N17       1.0  0.05648  0.58669  0.45677  1.0000
  H   H620      1.0  0.43932  0.77132  0.36379  1.0000
  H   H621      1.0  0.25613  0.81689  0.28023  1.0000
  C   C363      1.0  0.01547  0.62667  0.42555  1.0000
  C   C364      1.0  0.03592  0.65072  0.42994  1.0000
  H   H622      1.0  0.37705  0.82517  0.33298  1.0000
  H   H623      1.0  0.01977  0.61332  0.41891  1.0000
  H   H624      1.0  0.35765  0.71196  0.27946  1.0000
  H   H625      1.0  0.44912  0.63258  0.42539  1.0000
  C   C365      1.0  0.47566  0.78637  0.33156  1.0000
  H   H626      1.0  0.39510  0.72642  0.26600  1.0000
  H   H627      1.0  0.42292  0.76428  0.33076  1.0000
  C   C366      1.0  0.02990  0.66764  0.43857  1.0000
  C   C367      1.0  0.24825  0.52185  0.34906  1.0000
  H   H628      1.0  0.46967  0.52407  0.47432  1.0000
  H   H629      1.0  0.06953  0.64278  0.45486  1.0000
  C   C368      1.0  0.05362  0.64673  0.47576  1.0000
  H   H630      1.0  0.32782  0.68349  0.29892  1.0000
  H   H631      1.0  0.41180  0.74086  0.34569  1.0000
  H   H632      1.0  0.33895  0.65940  0.26258  1.0000
  C   C369      1.0  0.42876  0.97706  0.46696  1.0000
  H   H633      1.0  0.08639  0.57449  0.46156  1.0000
  C   C370      1.0  0.42680  0.76023  0.24572  1.0000
  H   H634      1.0  0.48976  0.72144  0.43449  1.0000
  H   H635      1.0  0.32030  0.65576  0.28733  1.0000
  H   H636      1.0  0.22410  0.75348  0.32807  1.0000
  H   H637      1.0  0.01382  0.67967  0.40940  1.0000
  C   C371      1.0  0.35190  0.69077  0.27913  1.0000
  C   C372      1.0  0.43753  0.53418  0.43333  1.0000
  H   H638      1.0  0.38093  0.75843  0.33957  1.0000
  H   H639      1.0  0.39485  0.74699  0.30879  1.0000
  H   H640      1.0  0.12812  0.62472  0.38764  1.0000
  H   H641      1.0  0.41756  0.53021  0.46089  1.0000
  H   H642      1.0  0.43136  0.69475  0.34777  1.0000
  H   H643      1.0  0.18205  0.57251  0.24473  1.0000
  C   C373      1.0  0.22055  0.78636  0.48332  1.0000
  H   H644      1.0  0.16349  0.53768  0.24697  1.0000
  C   C374      1.0  0.42236  0.51375  0.45881  1.0000
  C   C375      1.0  0.00719  0.56340  0.46336  1.0000
  H   H645      1.0  0.35643  0.81791  0.23884  1.0000
  C   C376      1.0  0.40347  0.97884  0.47129  1.0000
  H   H646      1.0  0.38293  0.82341  0.35279  1.0000
  H   H647      1.0  0.09036  0.58181  0.40901  1.0000
  H   H648      1.0  0.27643  0.51402  0.36068  1.0000
  H   H649      1.0  0.27835  0.54568  0.36426  1.0000
  H   H650      1.0  0.26694  0.77339  0.44882  1.0000
  H   H651      1.0  0.19206  0.53885  0.26805  1.0000
  Fe  Fe49      1.0  0.44487  0.82679  0.26753  1.0000
  H   H652      1.0  0.28192  0.64347  0.25849  1.0000
  C   C377      1.0  0.19620  0.50262  0.47243  1.0000
  H   H653      1.0  0.24685  0.60230  0.24904  1.0000
  C   C378      1.0  0.27978  0.56376  0.46626  1.0000
  H   H654      1.0  0.29936  0.81819  0.27775  1.0000
  C   C379      1.0  0.28866  0.58303  0.45331  1.0000
  C   C380      1.0  0.23492  0.52954  0.27972  1.0000
  H   H655      1.0  0.46300  0.53678  0.45147  1.0000
  C   C381      1.0  0.48998  0.85977  0.36845  1.0000
  H   H656      1.0  0.16426  0.55963  0.26167  1.0000
  H   H657      1.0  0.47513  0.80544  0.33056  1.0000
  H   H658      1.0  0.28067  0.54593  0.46237  1.0000
  H   H659      1.0  0.41082  0.91449  0.45372  1.0000
  H   H660      1.0  0.31425  0.78772  0.39362  1.0000
  H   H661      1.0  0.31056  0.68004  0.28149  1.0000
  S   S99       1.0  0.43857  0.83259  0.24276  1.0000
  H   H662      1.0  0.40482  0.49848  0.45328  1.0000
  H   H663      1.0  0.28692  0.60093  0.45632  1.0000
  H   H664      1.0  0.30910  0.58825  0.45040  1.0000
  C   C382      1.0  0.41949  0.76179  0.34291  1.0000
  N   N18       1.0  0.26197  0.51604  0.39171  1.0000
  H   H665      1.0  0.20468  0.63036  0.25483  1.0000
  H   H666      1.0  0.29091  0.50609  0.40125  1.0000
  H   H667      1.0  0.23517  0.52389  0.37817  1.0000
  H   H668      1.0  0.26094  0.52900  0.33909  1.0000
  C   C383      1.0  0.42571  0.66261  0.26579  1.0000
  C   C384      1.0  0.40827  0.90250  0.47677  1.0000
  C   C385      1.0  0.45877  0.71606  0.46787  1.0000
  C   C386      1.0  0.20199  0.68521  0.46791  1.0000
  C   C387      1.0  0.44976  0.61511  0.48247  1.0000
  H   H669      1.0  0.16998  0.70135  0.47794  1.0000
  H   H670      1.0  0.41926  0.51992  0.42792  1.0000
  H   H671      1.0  0.18208  0.50996  0.47080  1.0000
  C   C388      1.0  0.21821  0.67503  0.45904  1.0000
  C   C389      1.0  0.38716  0.97735  0.45744  1.0000
  H   H672      1.0  0.47846  0.66234  0.44417  1.0000
  H   H673      1.0  0.32556  0.61626  0.23793  1.0000
  Fe  Fe50      1.0  0.29450  0.50065  0.44706  1.0000
  C   C390      1.0  0.26489  0.52473  0.36299  1.0000
  H   H674      1.0  0.45333  0.54003  0.42497  1.0000
  H   H675      1.0  0.48874  0.76849  0.42492  1.0000
  H   H676      1.0  0.42686  0.64653  0.42730  1.0000
  H   H677      1.0  0.24168  0.78756  0.26908  1.0000
  H   H678      1.0  0.22508  0.79171  0.44546  1.0000
  C   C391      1.0  0.38017  0.84433  0.25588  1.0000
  H   H679      1.0  0.18279  0.67797  0.46226  1.0000
  H   H680      1.0  0.21149  0.70675  0.46734  1.0000
  H   H681      1.0  0.28561  0.81939  0.25987  1.0000
  H   H682      1.0  0.38319  0.95969  0.45072  1.0000
  H   H683      1.0  0.27646  0.57617  0.26556  1.0000
  Fe  Fe51      1.0  0.48427  0.89700  0.43499  1.0000
  C   C392      1.0  0.06511  0.56741  0.46319  1.0000
  C   C393      1.0  0.02865  0.57315  0.45132  1.0000
  H   H684      1.0  0.17812  0.61767  0.24175  1.0000
  N   N19       1.0  0.46873  0.77608  0.34731  1.0000
  H   H685      1.0  0.39678  0.65143  0.24849  1.0000
  H   H686      1.0  0.43529  0.55170  0.43668  1.0000
  C   C394      1.0  0.26439  0.60197  0.25387  1.0000
  H   H687      1.0  0.20915  0.65345  0.45936  1.0000
  H   H688      1.0  0.21930  0.68102  0.44714  1.0000
  C   C395      1.0  0.25781  0.57600  0.26205  1.0000
  C   C396      1.0  0.35005  0.68105  0.26269  1.0000
  H   H689      1.0  0.21974  0.56444  0.23872  1.0000
  C   C397      1.0  0.19829  0.63300  0.24348  1.0000
  H   H690      1.0  0.43896  0.68009  0.27228  1.0000
  C   C398      1.0  0.39122  0.67850  0.26379  1.0000
  H   H691      1.0  0.22029  0.53607  0.28283  1.0000
  H   H692      1.0  0.44300  0.71937  0.46250  1.0000
  H   H693      1.0  0.39300  0.90770  0.47939  1.0000
  H   H694      1.0  0.04525  0.68620  0.44206  1.0000
  H   H695      1.0  0.25383  0.54357  0.28455  1.0000
  H   H696      1.0  0.46495  0.97300  0.44968  1.0000
  C   C399      1.0  0.24305  0.50486  0.40449  1.0000
  C   C400      1.0  0.34269  0.81346  0.34697  1.0000
  H   H697      1.0  0.36838  0.97656  0.46099  1.0000
  C   C401      1.0  0.22983  0.79642  0.45718  1.0000
  C   C402      1.0  0.25144  0.81999  0.46136  1.0000
  H   H698      1.0  0.40353  0.69299  0.27232  1.0000
  C   C403      1.0  0.40569  0.49915  0.48399  1.0000
  C   C404      1.0  0.07361  0.58062  0.43091  1.0000
  N   N20       1.0  0.47260  0.70756  0.45632  1.0000
  H   H699      1.0  0.26294  0.83315  0.45272  1.0000
  H   H700      1.0  0.32914  0.82821  0.25762  1.0000
  H   H701      1.0  0.36627  0.80326  0.25389  1.0000
  C   C405      1.0  0.00380  0.66103  0.44218  1.0000
  S   S100      1.0  0.47169  0.81598  0.28106  1.0000
  H   H702      1.0  0.15094  0.56740  0.48108  1.0000
  H   H703      1.0  0.23732  0.53349  0.35026  1.0000
  H   H704      1.0  0.36621  0.68713  0.28567  1.0000
  H   H705      1.0  0.09384  0.61159  0.44704  1.0000
  H   H706      1.0  0.47206  0.68028  0.42940  1.0000
  H   H707      1.0  0.03528  0.62210  0.45696  1.0000
  C   C406      1.0  0.27663  0.62505  0.26463  1.0000
  C   C407      1.0  0.30543  0.71646  0.26024  1.0000
  H   H708      1.0  0.47238  0.73511  0.47287  1.0000
  H   H709      1.0  0.33894  0.50625  0.36132  1.0000
  H   H710      1.0  0.33264  0.76498  0.25082  1.0000
  H   H711      1.0  0.25606  0.78748  0.28716  1.0000
  C   C408      1.0  0.31744  0.76443  0.25865  1.0000
  C   C409      1.0  0.19953  0.55508  0.25996  1.0000
  N   N21       1.0  0.17400  0.61534  0.34579  1.0000
  C   C410      1.0  0.17116  0.58891  0.35013  1.0000
  C   C411      1.0  0.15269  0.61180  0.33477  1.0000
  C   C412      1.0  0.19974  0.63131  0.33838  1.0000
  C   C413      1.0  0.22411  0.63224  0.34636  1.0000
  C   C414      1.0  0.17441  0.57251  0.33718  1.0000
  C   C415      1.0  0.14926  0.63651  0.33134  1.0000
  C   C416      1.0  0.24856  0.64877  0.33749  1.0000
  C   C417      1.0  0.17491  0.54788  0.34316  1.0000
  C   C418      1.0  0.13071  0.63194  0.31814  1.0000
  H   H712      1.0  0.15155  0.57692  0.35481  1.0000
  H   H713      1.0  0.18489  0.59065  0.35938  1.0000
  H   H714      1.0  0.13364  0.59649  0.33858  1.0000
  H   H715      1.0  0.15616  0.60446  0.32384  1.0000
  H   H716      1.0  0.19966  0.62454  0.32665  1.0000
  H   H717      1.0  0.20315  0.65185  0.33744  1.0000
  H   H718      1.0  0.22313  0.61262  0.34735  1.0000
  H   H719      1.0  0.15802  0.56656  0.32909  1.0000
  H   H720      1.0  0.19263  0.58341  0.33095  1.0000
  H   H721      1.0  0.16794  0.65306  0.32845  1.0000
  H   H722      1.0  0.14127  0.64230  0.34118  1.0000
  H   H723      1.0  0.26560  0.64808  0.34292  1.0000
  H   H724      1.0  0.24702  0.64121  0.32586  1.0000
  H   H725      1.0  0.25176  0.66929  0.33701  1.0000
  H   H726      1.0  0.17666  0.53624  0.33367  1.0000
  H   H727      1.0  0.19190  0.55295  0.35071  1.0000
  H   H728      1.0  0.15679  0.53582  0.34930  1.0000
  H   H729      1.0  0.11144  0.61556  0.32048  1.0000
  H   H730      1.0  0.12815  0.64973  0.31622  1.0000
  H   H731      1.0  0.13875  0.62770  0.30776  1.0000
  N   N22       1.0  0.34084  0.83537  0.45697  1.0000
  C   C419      1.0  0.31242  0.81666  0.45809  1.0000
  C   C420      1.0  0.34390  0.86248  0.45959  1.0000
  C   C421      1.0  0.35029  0.83264  0.44162  1.0000
  H   H732      1.0  0.41290  0.76766  0.24207  1.0000
  C   C422      1.0  0.35675  0.82974  0.46857  1.0000
  C   C423      1.0  0.30569  0.78739  0.45863  1.0000
  C   C424      1.0  0.37820  0.85309  0.43759  1.0000
  C   C425      1.0  0.33097  0.87277  0.44781  1.0000
  C   C426      1.0  0.33631  0.90068  0.45148  1.0000
  C   C427      1.0  0.38942  0.71840  0.25444  1.0000
  C   C428      1.0  0.27633  0.77056  0.45909  1.0000
  C   C429      1.0  0.38561  0.84828  0.42187  1.0000
  H   H733      1.0  0.30150  0.81914  0.44841  1.0000
  H   H734      1.0  0.30368  0.82117  0.46809  1.0000
  H   H735      1.0  0.33566  0.86378  0.47063  1.0000
  H   H736      1.0  0.36467  0.87647  0.46043  1.0000
  H   H737      1.0  0.33685  0.83307  0.43275  1.0000
  H   H738      1.0  0.35004  0.81329  0.44043  1.0000
  H   H739      1.0  0.35704  0.81090  0.46613  1.0000
  H   H740      1.0  0.45552  0.56000  0.47114  1.0000
  H   H741      1.0  0.23444  0.50116  0.34703  1.0000
  C   C430      1.0  0.01539  0.67624  0.39727  1.0000
  H   H742      1.0  0.31315  0.78152  0.44862  1.0000
  H   H743      1.0  0.31405  0.78291  0.46880  1.0000
  H   H744      1.0  0.39274  0.85227  0.44547  1.0000
  H   H745      1.0  0.38001  0.87309  0.43780  1.0000
  H   H746      1.0  0.33846  0.87270  0.43640  1.0000
  H   H747      1.0  0.30963  0.86081  0.44767  1.0000
  H   H748      1.0  0.32756  0.90154  0.46242  1.0000
  H   H749      1.0  0.35750  0.91347  0.45198  1.0000
  H   H750      1.0  0.32758  0.90800  0.44270  1.0000
  H   H751      1.0  0.25927  0.55905  0.46853  1.0000
  C   C431      1.0  0.24773  0.51383  0.37709  1.0000
  C   C432      1.0  0.46549  0.74864  0.34893  1.0000
  H   H752      1.0  0.27188  0.74972  0.45978  1.0000
  C   C433      1.0  0.45403  0.68037  0.45130  1.0000
  H   H753      1.0  0.42265  0.95656  0.46351  1.0000
  H   H754      1.0  0.40565  0.86316  0.41936  1.0000
  H   H755      1.0  0.38516  0.82881  0.42111  1.0000
  H   H756      1.0  0.37226  0.84979  0.41334  1.0000
  C   C434      1.0  0.29073  0.55186  0.41086  1.0000
  C   C435      1.0  0.30765  0.58115  0.41239  1.0000
  H   H757      1.0  0.30303  0.54213  0.41335  1.0000
  H   H758      1.0  0.27572  0.54620  0.41968  1.0000
  H   H759      1.0  0.31747  0.58557  0.42350  1.0000
  H   H760      1.0  0.32290  0.58814  0.40368  1.0000
  H   H761      1.0  0.29567  0.59174  0.41137  1.0000
  H   H762      1.0  0.43558  0.68009  0.44723  1.0000
  C   C436      1.0  0.07336  0.59942  0.44340  1.0000
  H   H763      1.0  0.44804  0.79848  0.35184  1.0000
  N   N23       1.0  0.30568  0.76617  0.34822  1.0000
  C   C437      1.0  0.33367  0.78396  0.34460  1.0000
  C   C438      1.0  0.29926  0.73839  0.34400  1.0000
  C   C439      1.0  0.28897  0.77476  0.33888  1.0000
  C   C440      1.0  0.29949  0.76804  0.36446  1.0000
  C   C441      1.0  0.31539  0.76146  0.37622  1.0000
  H   H764      1.0  0.44870  0.66662  0.46088  1.0000
  C   C442      1.0  0.25945  0.75610  0.33833  1.0000
  C   C443      1.0  0.32135  0.73004  0.34563  1.0000
  C   C444      1.0  0.31105  0.70064  0.34451  1.0000
  C   C445      1.0  0.30902  0.76678  0.39211  1.0000
  H   H765      1.0  0.22646  0.64083  0.35775  1.0000
  C   C446      1.0  0.24507  0.76726  0.32853  1.0000
  H   H766      1.0  0.33748  0.78117  0.33265  1.0000
  H   H767      1.0  0.34715  0.77896  0.35115  1.0000
  H   H768      1.0  0.28203  0.72451  0.35032  1.0000
  H   H769      1.0  0.29349  0.73466  0.33198  1.0000
  H   H770      1.0  0.29586  0.77802  0.32713  1.0000
  H   H771      1.0  0.29082  0.79385  0.34292  1.0000
  H   H772      1.0  0.30128  0.78769  0.36708  1.0000
  H   H773      1.0  0.27883  0.75458  0.36672  1.0000
  H   H774      1.0  0.33654  0.77320  0.37467  1.0000
  H   H775      1.0  0.31037  0.74048  0.37557  1.0000
  H   H776      1.0  0.05571  0.54858  0.45699  1.0000
  C   C447      1.0  0.32743  0.59844  0.23741  1.0000
  H   H777      1.0  0.25081  0.75300  0.34966  1.0000
  H   H778      1.0  0.25561  0.73692  0.33348  1.0000
  H   H779      1.0  0.33544  0.73870  0.33640  1.0000
  H   H780      1.0  0.33203  0.73640  0.35636  1.0000
  H   H781      1.0  0.30202  0.69346  0.33335  1.0000
  H   H782      1.0  0.32732  0.69546  0.34590  1.0000
  H   H783      1.0  0.29673  0.69087  0.35347  1.0000
  H   H784      1.0  0.28802  0.75505  0.39442  1.0000
  H   H785      1.0  0.32025  0.76141  0.40037  1.0000
  H   H786      1.0  0.16303  0.64045  0.38873  1.0000
  H   H787      1.0  0.24710  0.78599  0.33323  1.0000
  H   H788      1.0  0.25264  0.77033  0.31691  1.0000
  H   H789      1.0  0.08106  0.56716  0.43525  1.0000
  C   C448      1.0  0.34604  0.52809  0.38205  1.0000
  Fe  Fe52      1.0  0.46634  0.83888  0.30038  1.0000
  H   H790      1.0  0.33864  0.81775  0.35852  1.0000
  C   C449      1.0  0.23712  0.52765  0.26249  1.0000
  C   C450      1.0  0.46804  0.84897  0.35901  1.0000
  H   H791      1.0  0.04953  0.59968  0.47843  1.0000
  S   S101      1.0  0.45085  0.90589  0.44040  1.0000
  C   C451      1.0  0.47048  0.85031  0.34327  1.0000
  H   H792      1.0  0.41335  0.64717  0.27369  1.0000
  H   H793      1.0  0.16141  0.58618  0.45555  1.0000
  H   H794      1.0  0.11132  0.60664  0.42181  1.0000
  C   C452      1.0  0.43777  0.88518  0.48418  1.0000
  C   C453      1.0  0.25785  0.79910  0.27693  1.0000
  C   C454      1.0  0.49051  0.79390  0.35754  1.0000
  H   H795      1.0  0.18825  0.63186  0.36775  1.0000
  H   H796      1.0  0.02449  0.58596  0.44355  1.0000
  H   H797      1.0  0.08149  0.61714  0.47183  1.0000
  C   C455      1.0  0.14665  0.58324  0.47799  1.0000
  C   C456      1.0  0.17257  0.62960  0.35972  1.0000
  H   H798      1.0  0.26703  0.55569  0.39309  1.0000
  H   H799      1.0  0.17633  0.64985  0.35697  1.0000
  C   C457      1.0  0.27853  0.54467  0.39488  1.0000
  H   H800      1.0  0.00915  0.57901  0.47132  1.0000
  H   H801      1.0  0.31878  0.71759  0.25103  1.0000
  H   H802      1.0  0.29501  0.55291  0.38690  1.0000
  H   H803      1.0  0.45312  0.73921  0.35880  1.0000
  C   C458      1.0  0.28402  0.80665  0.26945  1.0000
  C   C459      1.0  0.05438  0.62988  0.46269  1.0000
  C   C460      1.0  0.46877  0.97510  0.47429  1.0000
  H   H804      1.0  0.43643  0.73046  0.33071  1.0000
  H   H805      1.0  0.37612  0.72639  0.25046  1.0000
  H   H806      1.0  0.23822  0.68305  0.46367  1.0000
  H   H807      1.0  0.28728  0.77260  0.27539  1.0000
  S   S102      1.0  0.28589  0.85710  0.48103  1.0000
  S   S103      1.0  0.36900  0.51995  0.44236  1.0000
  H   H808      1.0  0.24237  0.49640  0.28482  1.0000
  H   H809      1.0  0.27857  0.60517  0.24480  1.0000
  N   N24       1.0  0.42765  0.50379  0.47339  1.0000
  H   H810      1.0  0.42779  0.68069  0.47733  1.0000
  H   H811      1.0  0.21941  0.51043  0.25850  1.0000
  C   C461      1.0  0.32601  0.67676  0.28712  1.0000
  H   H812      1.0  0.33284  0.55377  0.26008  1.0000
  C   C462      1.0  0.14685  0.61671  0.36859  1.0000
  C   C463      1.0  0.39879  0.57483  0.48254  1.0000
  H   H813      1.0  0.21047  0.57367  0.26608  1.0000
  H   H814      1.0  0.37741  0.84451  0.46810  1.0000
  H   H815      1.0  0.26793  0.77560  0.46904  1.0000
  H   H816      1.0  0.08420  0.60928  0.41304  1.0000
  H   H817      1.0  0.43182  0.62883  0.44267  1.0000
  C   C464      1.0  0.14614  0.63475  0.38102  1.0000
  H   H818      1.0  0.43356  0.76704  0.25732  1.0000
  H   H819      1.0  0.42895  0.72465  0.24936  1.0000
  H   H820      1.0  0.05318  0.52072  0.47891  1.0000
  S   S104      1.0  0.25320  0.49747  0.44744  1.0000
  H   H821      1.0  0.14632  0.65258  0.37616  1.0000
  C   C465      1.0  0.41441  0.73057  0.24496  1.0000
  H   H822      1.0  0.13833  0.71932  0.48042  1.0000
  C   C466      1.0  0.39836  0.77007  0.34650  1.0000
  H   H823      1.0  0.06711  0.61298  0.43784  1.0000
  C   C467      1.0  0.48583  0.78941  0.37463  1.0000
  H   H824      1.0  0.32616  0.76709  0.27010  1.0000
  C   C468      1.0  0.99318  0.65041  0.39224  1.0000
  H   H825      1.0  0.40498  0.79091  0.34378  1.0000
  H   H826      1.0  0.14496  0.59859  0.37398  1.0000
  C   C469      1.0  0.33329  0.81140  0.25943  1.0000
  H   H827      1.0  0.48447  0.74870  0.35144  1.0000
  C   C470      1.0  0.41852  0.90652  0.46227  1.0000
  C   C471      1.0  0.06105  0.56154  0.48022  1.0000
  H   H828      1.0  0.45922  0.95345  0.47482  1.0000
  C   C472      1.0  0.37188  0.82884  0.34443  1.0000
  H   H829      1.0  0.12971  0.61186  0.36127  1.0000
  S   S105      1.0  0.47849  0.85710  0.42891  1.0000
  C   C473      1.0  0.29501  0.73632  0.25784  1.0000
  H   H830      1.0  0.29441  0.62554  0.26970  1.0000
  C   C474      1.0  0.44635  0.69708  0.48106  1.0000
  C   C475      1.0  0.09094  0.59559  0.41792  1.0000
  C   C476      1.0  0.25814  0.82683  0.47655  1.0000
  C   C477      1.0  0.44446  0.77787  0.35204  1.0000
  C   C478      1.0  0.21632  0.55036  0.24797  1.0000
  H   H831      1.0  0.39138  0.96238  0.47866  1.0000
  C   C479      1.0  0.44712  0.70201  0.33935  1.0000
  H   H832      1.0  0.05050  0.66317  0.47138  1.0000
  H   H833      1.0  0.39821  0.84868  0.24961  1.0000
  H   H834      1.0  0.27628  0.57402  0.44331  1.0000
  H   H835      1.0  0.46840  0.73576  0.32601  1.0000
  H   H836      1.0  0.33772  0.68838  0.25678  1.0000
  H   H837      1.0  0.33286  0.82078  0.33886  1.0000
  C   C480      1.0  0.33108  0.56306  0.24992  1.0000
  H   H838      1.0  0.31592  0.72015  0.27113  1.0000
  N   N25       1.0  0.31025  0.78612  0.25523  1.0000
  N   N26       1.0  0.37561  0.68910  0.25482  1.0000
  H   H839      1.0  0.37778  0.84997  0.34560  1.0000
  H   H840      1.0  0.29479  0.51310  0.38208  1.0000
  H   H841      1.0  0.44010  0.68947  0.32920  1.0000
  S   S106      1.0  0.48587  0.85247  0.38793  1.0000
  H   H842      1.0  0.46021  0.72278  0.43740  1.0000
  H   H843      1.0  0.48002  0.76187  0.45241  1.0000
  C   C481      1.0  0.45410  0.73011  0.33523  1.0000
  C   C482      1.0  0.44415  0.52217  0.44694  1.0000
  H   H844      1.0  0.38450  0.84463  0.26805  1.0000
  H   H845      1.0  0.99943  0.67468  0.44847  1.0000
  H   H846      1.0  0.26291  0.62362  0.27370  1.0000
  C   C483      1.0  0.28699  0.78215  0.26465  1.0000
  C   C484      1.0  0.25708  0.55122  0.23966  1.0000
  C   C485      1.0  0.47854  0.72575  0.44317  1.0000
  H   H847      1.0  0.00755  0.54694  0.46957  1.0000
  H   H848      1.0  0.03424  0.67579  0.39544  1.0000
  H   H849      1.0  0.28038  0.73311  0.26665  1.0000
  H   H850      1.0  0.99537  0.64801  0.38010  1.0000
  H   H851      1.0  0.28499  0.73201  0.24682  1.0000
  H   H852      1.0  0.39739  0.99481  0.45037  1.0000
  H   H853      1.0  0.03741  0.63520  0.48341  1.0000
  H   H854      1.0  0.48534  0.98161  0.48225  1.0000
  H   H855      1.0  0.31733  0.57922  0.47668  1.0000
  N   N27       1.0  0.44967  0.98512  0.47890  1.0000
  C   C486      1.0  0.29739  0.57511  0.48026  1.0000
  S   S107      1.0  0.48169  0.64005  0.48192  1.0000
  S   S108      1.0  0.36692  0.54971  0.48299  1.0000
  C   C487      1.0  0.17593  0.55625  0.25281  1.0000
  H   H856      1.0  0.47189  0.79662  0.37847  1.0000
  C   C488      1.0  0.45263  0.52325  0.48054  1.0000
  H   H857      1.0  0.99557  0.63474  0.39822  1.0000
  H   H858      1.0  0.19853  0.65238  0.24303  1.0000
  H   H859      1.0  0.44392  0.76859  0.23830  1.0000
  H   H860      1.0  0.29833  0.59448  0.48275  1.0000
  H   H861      1.0  0.27624  0.55261  0.24320  1.0000
  C   C489      1.0  0.22758  0.50333  0.28719  1.0000
  H   H862      1.0  0.07218  0.65472  0.48212  1.0000
  C   C490      1.0  0.45581  0.55142  0.48220  1.0000
  C   C491      1.0  0.34865  0.82995  0.48510  1.0000
  H   H863      1.0  0.43758  0.65534  0.25933  1.0000
  H   H864      1.0  0.20381  0.53103  0.24287  1.0000
  H   H865      1.0  0.49255  0.95147  0.45740  1.0000
  H   H866      1.0  0.49085  0.77818  0.30304  1.0000
  H   H867      1.0  0.25262  0.49995  0.41403  1.0000
  C   C492      1.0  0.27978  0.50333  0.39068  1.0000
  H   H868      1.0  0.48729  0.79425  0.48238  1.0000
  H   H869      1.0  0.47557  0.88849  0.23629  1.0000
  H   H870      1.0  0.04105  0.55655  0.48376  1.0000
  H   H871      1.0  0.28149  0.52280  0.48174  1.0000
  H   H872      1.0  0.18392  0.65455  0.48401  1.0000
  C   C493      1.0  0.13046  0.61419  0.48442  1.0000
  H   H873      1.0  0.08709  0.54335  0.48138  1.0000
  H   H874      1.0  0.27886  0.80406  0.23696  1.0000
  H   H875      1.0  0.42193  0.68426  0.24723  1.0000
  C   C494      1.0  0.30372  0.78456  0.23873  1.0000
  H   H876      1.0  0.49166  0.68971  0.46965  1.0000
  C   C495      1.0  0.19822  0.67547  0.48432  1.0000
  C   C496      1.0  0.06695  0.53902  0.48453  1.0000
  H   H877      1.0  0.40324  0.51718  0.48533  1.0000
  C   C497      1.0  0.36982  0.67731  0.23927  1.0000
  H   H878      1.0  0.24430  0.72145  0.48541  1.0000
  H   H879      1.0  0.36016  0.65577  0.24013  1.0000
  C   C498      1.0  0.33109  0.55186  0.23580  1.0000
  H   H880      1.0  0.45928  0.68886  0.48511  1.0000
  H   H881      1.0  0.28627  0.76608  0.23611  1.0000
  S   S109      1.0  0.09430  0.51875  0.52678  1.0000
  C   C499      1.0  0.45320  0.68342  0.58081  1.0000
  S   S110      1.0  0.15550  0.53291  0.52251  1.0000
  H   H882      1.0  0.43927  0.74456  0.68333  1.0000
  C   C500      1.0  0.33455  0.81226  0.73010  1.0000
  H   H883      1.0  0.30040  0.52633  0.51453  1.0000
  Fe  Fe53      1.0  0.12600  0.54196  0.51083  1.0000
  H   H884      1.0  0.22165  0.54659  0.68923  1.0000
  C   C501      1.0  0.45504  0.68624  0.59657  1.0000
  Fe  Fe54      1.0  0.35206  0.93487  0.51397  1.0000
  S   S111      1.0  0.36992  0.91699  0.52993  1.0000
  Fe  Fe55      1.0  0.31284  0.87920  0.50112  1.0000
  S   S112      1.0  0.32992  0.85959  0.51619  1.0000
  H   H885      1.0  0.24902  0.53524  0.48925  1.0000
  Fe  Fe56      1.0  0.32939  0.88663  0.53444  1.0000
  S   S113      1.0  0.31503  0.86545  0.55674  1.0000
  Fe  Fe57      1.0  0.36889  0.89175  0.51050  1.0000
  H   H886      1.0  0.43806  0.68269  0.60309  1.0000
  S   S114      1.0  0.31053  0.90556  0.51956  1.0000
  H   H887      1.0  0.45251  0.62697  0.63578  1.0000
  H   H888      1.0  0.48346  0.58910  0.49080  1.0000
  Fe  Fe58      1.0  0.34993  0.86432  0.64227  1.0000
  S   S115      1.0  0.38000  0.87212  0.66042  1.0000
  S   S116      1.0  0.35420  0.89418  0.62435  1.0000
  Fe  Fe59      1.0  0.31574  0.81070  0.65441  1.0000
  S   S117      1.0  0.34290  0.81325  0.67311  1.0000
  S   S118      1.0  0.27697  0.77611  0.65156  1.0000
  Fe  Fe60      1.0  0.34694  0.85342  0.67660  1.0000
  S   S119      1.0  0.34695  0.86974  0.69995  1.0000
  Fe  Fe61      1.0  0.37369  0.83137  0.65572  1.0000
  S   S120      1.0  0.40794  0.82266  0.65428  1.0000
  S   S121      1.0  0.31731  0.84967  0.65899  1.0000
  S   S122      1.0  0.34607  0.82481  0.63652  1.0000
  Fe  Fe62      1.0  0.40888  0.69151  0.65932  1.0000
  S   S123      1.0  0.40681  0.66399  0.67741  1.0000
  S   S124      1.0  0.37762  0.70396  0.66259  1.0000
  Fe  Fe63      1.0  0.41196  0.64105  0.65857  1.0000
  S   S125      1.0  0.38820  0.59816  0.65528  1.0000
  S   S126      1.0  0.41032  0.66659  0.64027  1.0000
  Fe  Fe64      1.0  0.20530  0.59449  0.63005  1.0000
  S   S127      1.0  0.21871  0.63221  0.64299  1.0000
  S   S128      1.0  0.17218  0.58541  0.61331  1.0000
  Fe  Fe65      1.0  0.25007  0.58573  0.64183  1.0000
  S   S129      1.0  0.26724  0.62262  0.65501  1.0000
  S   S130      1.0  0.26835  0.55835  0.64153  1.0000
  Fe  Fe66      1.0  0.22662  0.61186  0.66247  1.0000
  S   S131      1.0  0.22553  0.62615  0.68636  1.0000
  Fe  Fe67      1.0  0.25828  0.64039  0.63498  1.0000
  S   S132      1.0  0.28915  0.67898  0.62716  1.0000
  S   S133      1.0  0.20942  0.57307  0.65037  1.0000
  S   S134      1.0  0.24478  0.60430  0.62089  1.0000
  C   C502      1.0  0.21674  0.60912  0.70359  1.0000
  C   C503      1.0  0.22287  0.62344  0.71708  1.0000
  H   H889      1.0  0.21227  0.66178  0.51074  1.0000
  C   C504      1.0  0.19627  0.56942  0.71816  1.0000
  C   C505      1.0  0.20348  0.58202  0.70420  1.0000
  H   H890      1.0  0.23297  0.64442  0.71673  1.0000
  C   C506      1.0  0.45151  0.61757  0.58892  1.0000
  C   C507      1.0  0.35526  0.58831  0.65090  1.0000
  C   C508      1.0  0.33889  0.56179  0.64908  1.0000
  C   C509      1.0  0.31244  0.55307  0.64602  1.0000
  C   C510      1.0  0.30201  0.57074  0.64469  1.0000
  C   C511      1.0  0.31839  0.59743  0.64629  1.0000
  C   C512      1.0  0.34500  0.60621  0.64950  1.0000
  H   H891      1.0  0.34663  0.54787  0.65019  1.0000
  H   H892      1.0  0.29992  0.53246  0.64482  1.0000
  H   H893      1.0  0.31055  0.61125  0.64517  1.0000
  H   H894      1.0  0.35746  0.62672  0.65103  1.0000
  H   H895      1.0  0.24710  0.81452  0.49922  1.0000
  C   C513      1.0  0.39948  0.78956  0.65602  1.0000
  C   C514      1.0  0.41875  0.78110  0.65545  1.0000
  C   C515      1.0  0.41221  0.75469  0.65730  1.0000
  C   C516      1.0  0.38645  0.73685  0.65979  1.0000
  C   C517      1.0  0.36719  0.74523  0.66002  1.0000
  C   C518      1.0  0.37367  0.77156  0.65819  1.0000
  H   H896      1.0  0.43874  0.79500  0.65366  1.0000
  H   H897      1.0  0.42710  0.74825  0.65678  1.0000
  H   H898      1.0  0.34717  0.73115  0.66131  1.0000
  H   H899      1.0  0.35872  0.77793  0.65842  1.0000
  C   C519      1.0  0.28039  0.74896  0.64516  1.0000
  C   C520      1.0  0.30496  0.75093  0.64218  1.0000
  C   C521      1.0  0.30754  0.72939  0.63662  1.0000
  C   C522      1.0  0.28557  0.70564  0.63432  1.0000
  C   C523      1.0  0.26099  0.70366  0.63742  1.0000
  C   C524      1.0  0.25838  0.72534  0.64273  1.0000
  H   H900      1.0  0.32195  0.76916  0.64391  1.0000
  H   H901      1.0  0.32658  0.73106  0.63422  1.0000
  H   H902      1.0  0.24392  0.68563  0.63532  1.0000
  H   H903      1.0  0.23929  0.72377  0.64485  1.0000
  C   C525      1.0  0.29815  0.59654  0.70947  1.0000
  H   H904      1.0  0.44161  0.77680  0.68386  1.0000
  C   C526      1.0  0.34195  0.85168  0.71669  1.0000
  C   C527      1.0  0.25683  0.75068  0.50257  1.0000
  H   H905      1.0  0.21874  0.54650  0.51310  1.0000
  H   H906      1.0  0.25691  0.58315  0.48991  1.0000
  H   H907      1.0  0.07445  0.57879  0.48683  1.0000
  C   C528      1.0  0.33037  0.87504  0.57460  1.0000
  C   C529      1.0  0.33114  0.85599  0.58414  1.0000
  C   C530      1.0  0.33929  0.86181  0.59922  1.0000
  C   C531      1.0  0.34638  0.88670  0.60503  1.0000
  C   C532      1.0  0.34641  0.90599  0.59538  1.0000
  C   C533      1.0  0.33851  0.90025  0.58024  1.0000
  H   H908      1.0  0.32519  0.83655  0.57984  1.0000
  H   H909      1.0  0.33978  0.84697  0.60641  1.0000
  H   H910      1.0  0.35196  0.92535  0.59972  1.0000
  H   H911      1.0  0.33772  0.91505  0.57312  1.0000
  H   H912      1.0  0.43469  0.67777  0.57530  1.0000
  H   H913      1.0  0.21473  0.58233  0.56682  1.0000
  H   H914      1.0  0.23416  0.49707  0.54744  1.0000
  H   H915      1.0  0.39128  0.79455  0.68733  1.0000
  H   H916      1.0  0.46898  0.75665  0.63107  1.0000
  H   H917      1.0  0.12067  0.71423  0.49763  1.0000
  H   H918      1.0  0.39384  0.56380  0.60254  1.0000
  C   C534      1.0  0.46701  0.62100  0.63142  1.0000
  C   C535      1.0  0.14012  0.52379  0.57575  1.0000
  C   C536      1.0  0.14430  0.54934  0.57323  1.0000
  C   C537      1.0  0.15484  0.56818  0.58470  1.0000
  C   C538      1.0  0.16198  0.56191  0.59865  1.0000
  C   C539      1.0  0.15821  0.53645  0.60106  1.0000
  H   H919      1.0  0.38135  0.70423  0.72691  1.0000
  H   H920      1.0  0.13890  0.55447  0.56256  1.0000
  H   H921      1.0  0.15721  0.58769  0.58283  1.0000
  C   C540      1.0  0.14706  0.51743  0.58972  1.0000
  H   H922      1.0  0.36565  0.70917  0.71057  1.0000
  C   C541      1.0  0.42537  0.61885  0.61073  1.0000
  S   S135      1.0  0.45204  0.71530  0.66037  1.0000
  H   H923      1.0  0.27369  0.74177  0.72135  1.0000
  N   N28       1.0  0.25824  0.80846  0.60820  1.0000
  C   C542      1.0  0.24443  0.80095  0.59321  1.0000
  C   C543      1.0  0.23946  0.79577  0.62087  1.0000
  C   C544      1.0  0.26865  0.83759  0.60989  1.0000
  C   C545      1.0  0.28083  0.80202  0.60913  1.0000
  C   C546      1.0  0.27473  0.77324  0.60670  1.0000
  C   C547      1.0  0.26135  0.81284  0.57916  1.0000
  C   C548      1.0  0.28171  0.84939  0.62518  1.0000
  C   C549      1.0  0.21716  0.76812  0.61803  1.0000
  C   C550      1.0  0.20348  0.75580  0.63262  1.0000
  C   C551      1.0  0.29968  0.77031  0.60528  1.0000
  C   C552      1.0  0.24543  0.80304  0.56474  1.0000
  C   C553      1.0  0.28729  0.87792  0.62644  1.0000
  H   H924      1.0  0.22821  0.80650  0.59296  1.0000
  H   H925      1.0  0.23512  0.77962  0.59148  1.0000
  H   H926      1.0  0.25022  0.79496  0.63111  1.0000
  H   H927      1.0  0.22954  0.80779  0.62413  1.0000
  H   H928      1.0  0.25284  0.84336  0.60788  1.0000
  H   H929      1.0  0.28371  0.84801  0.60136  1.0000
  H   H930      1.0  0.29603  0.81393  0.60108  1.0000
  H   H931      1.0  0.29036  0.80747  0.62034  1.0000
  H   H932      1.0  0.26315  0.76491  0.59639  1.0000
  H   H933      1.0  0.26418  0.76167  0.61653  1.0000
  H   H934      1.0  0.26945  0.83432  0.57911  1.0000
  H   H935      1.0  0.27754  0.80745  0.57856  1.0000
  H   H936      1.0  0.30049  0.84852  0.62622  1.0000
  H   H937      1.0  0.26948  0.83911  0.63484  1.0000
  H   H938      1.0  0.20249  0.76930  0.61033  1.0000
  H   H939      1.0  0.22401  0.75482  0.61289  1.0000
  H   H940      1.0  0.18739  0.73625  0.63025  1.0000
  H   H941      1.0  0.21728  0.75354  0.64053  1.0000
  H   H942      1.0  0.19534  0.76798  0.63798  1.0000
  H   H943      1.0  0.29497  0.74937  0.60469  1.0000
  H   H944      1.0  0.31029  0.78004  0.59499  1.0000
  H   H945      1.0  0.31242  0.77902  0.61518  1.0000
  H   H946      1.0  0.22921  0.80848  0.56452  1.0000
  H   H947      1.0  0.25805  0.81212  0.55494  1.0000
  H   H948      1.0  0.23758  0.78161  0.56370  1.0000
  H   H949      1.0  0.29937  0.88925  0.61692  1.0000
  H   H950      1.0  0.26894  0.87978  0.62656  1.0000
  H   H951      1.0  0.29814  0.88638  0.63700  1.0000
  H   H952      1.0  0.34460  0.59065  0.49576  1.0000
  H   H953      1.0  0.20669  0.72525  0.50871  1.0000
  H   H954      1.0  0.23407  0.52300  0.61259  1.0000
  C   C554      1.0  0.29431  0.53468  0.49099  1.0000
  H   H955      1.0  0.34316  0.58903  0.53024  1.0000
  C   C555      1.0  0.47502  0.68748  0.57211  1.0000
  C   C556      1.0  0.43537  0.58123  0.60751  1.0000
  H   H956      1.0  0.41488  0.79628  0.71848  1.0000
  Fe  Fe68      1.0  0.14273  0.49897  0.50650  1.0000
  H   H957      1.0  0.29871  0.56422  0.51783  1.0000
  H   H958      1.0  0.16298  0.53121  0.61187  1.0000
  H   H959      1.0  0.44418  0.61935  0.50597  1.0000
  H   H960      1.0  0.20834  0.77380  0.49197  1.0000
  C   C557      1.0  0.40447  0.61809  0.59938  1.0000
  H   H961      1.0  0.26229  0.54693  0.69922  1.0000
  H   H962      1.0  0.47658  0.77513  0.61383  1.0000
  H   H963      1.0  0.01672  0.51592  0.53488  1.0000
  C   C558      1.0  0.29953  0.64126  0.69031  1.0000
  H   H964      1.0  0.45745  0.75160  0.70981  1.0000
  Fe  Fe69      1.0  0.45000  0.68640  0.67790  1.0000
  N   N29       1.0  0.26525  0.75373  0.69991  1.0000
  C   C559      1.0  0.24350  0.72694  0.69700  1.0000
  C   C560      1.0  0.26985  0.75756  0.71658  1.0000
  C   C561      1.0  0.25765  0.77352  0.69336  1.0000
  C   C562      1.0  0.29005  0.75698  0.69264  1.0000
  C   C563      1.0  0.29984  0.73684  0.69709  1.0000
  C   C564      1.0  0.23953  0.71755  0.68041  1.0000
  C   C565      1.0  0.27645  0.80249  0.69666  1.0000
  S   S136      1.0  0.48253  0.69724  0.62371  1.0000
  C   C566      1.0  0.30645  0.57406  0.50700  1.0000
  C   C567      1.0  0.32240  0.73962  0.68718  1.0000
  C   C568      1.0  0.21699  0.69036  0.67883  1.0000
  C   C569      1.0  0.26645  0.82051  0.68966  1.0000
  H   H965      1.0  0.22471  0.72597  0.70074  1.0000
  H   H966      1.0  0.24607  0.71210  0.70385  1.0000
  H   H967      1.0  0.14378  0.49770  0.59182  1.0000
  H   H968      1.0  0.44012  0.55195  0.48913  1.0000
  H   H969      1.0  0.23790  0.76982  0.69704  1.0000
  H   H970      1.0  0.25610  0.77150  0.68096  1.0000
  H   H971      1.0  0.28837  0.75720  0.68020  1.0000
  H   H972      1.0  0.30614  0.77622  0.69557  1.0000
  H   H973      1.0  0.28455  0.71656  0.69587  1.0000
  H   H974      1.0  0.30682  0.73999  0.70890  1.0000
  H   H975      1.0  0.23519  0.73078  0.67320  1.0000
  H   H976      1.0  0.25697  0.71650  0.67597  1.0000
  H   H977      1.0  0.29583  0.80785  0.69181  1.0000
  H   H978      1.0  0.27882  0.80669  0.70886  1.0000
  H   H979      1.0  0.18542  0.58374  0.54672  1.0000
  H   H980      1.0  0.45722  0.60875  0.55868  1.0000
  H   H981      1.0  0.33839  0.75969  0.68780  1.0000
  H   H982      1.0  0.33002  0.72590  0.69080  1.0000
  H   H983      1.0  0.31557  0.73507  0.67537  1.0000
  H   H984      1.0  0.22057  0.67623  0.68574  1.0000
  H   H985      1.0  0.19851  0.69030  0.68234  1.0000
  H   H986      1.0  0.21503  0.68387  0.66694  1.0000
  H   H987      1.0  0.26428  0.81750  0.67732  1.0000
  H   H988      1.0  0.24750  0.81698  0.69455  1.0000
  H   H989      1.0  0.28058  0.84106  0.69190  1.0000
  N   N30       1.0  0.18961  0.69020  0.49518  1.0000
  H   H990      1.0  0.31424  0.54058  0.48672  1.0000
  H   H991      1.0  0.42029  0.95364  0.49159  1.0000
  H   H992      1.0  0.35117  0.56570  0.70216  1.0000
  H   H993      1.0  0.27980  0.50619  0.54920  1.0000
  S   S137      1.0  0.45540  0.66040  0.66073  1.0000
  H   H994      1.0  0.41362  0.63297  0.59058  1.0000
  H   H995      1.0  0.22973  0.73925  0.72486  1.0000
  H   H996      1.0  0.27125  0.54272  0.68048  1.0000
  H   H997      1.0  0.49030  0.72732  0.72840  1.0000
  H   H998      1.0  0.42976  0.57621  0.61942  1.0000
  C   C570      1.0  0.43702  0.67095  0.72023  1.0000
  H   H999      1.0  0.16485  0.65599  0.50764  1.0000
  H   H1000     1.0  0.07179  0.50040  0.56840  1.0000
  N   N31       1.0  0.30027  0.59651  0.69256  1.0000
  C   C571      1.0  0.35932  0.58043  0.69318  1.0000
  C   C572      1.0  0.31247  0.66734  0.68221  1.0000
  H   H1001     1.0  0.24268  0.77381  0.72214  1.0000
  H   H1002     1.0  0.23851  0.54024  0.54218  1.0000
  H   H1003     1.0  0.33987  0.81717  0.70614  1.0000
  H   H1004     1.0  0.18184  0.54060  0.55723  1.0000
  H   H1005     1.0  0.43555  0.97440  0.52479  1.0000
  C   C573      1.0  0.21576  0.61086  0.73105  1.0000
  C   C574      1.0  0.21750  0.53957  0.57781  1.0000
  H   H1006     1.0  0.39956  0.75602  0.69238  1.0000
  H   H1007     1.0  0.42226  0.94076  0.51880  1.0000
  H   H1008     1.0  0.42897  0.98507  0.49914  1.0000
  C   C575      1.0  0.38408  0.62408  0.60701  1.0000
  C   C576      1.0  0.18179  0.67531  0.50970  1.0000
  H   H1009     1.0  0.41516  0.60750  0.62079  1.0000
  H   H1010     1.0  0.43542  0.63946  0.61468  1.0000
  C   C577      1.0  0.27289  0.59563  0.71614  1.0000
  H   H1011     1.0  0.24276  0.70939  0.50399  1.0000
  H   H1012     1.0  0.36850  0.62157  0.59886  1.0000
  H   H1013     1.0  0.37516  0.61085  0.61661  1.0000
  H   H1014     1.0  0.39302  0.64452  0.61101  1.0000
  H   H1015     1.0  0.21334  0.50336  0.58865  1.0000
  C   C578      1.0  0.35077  0.59853  0.51932  1.0000
  C   C579      1.0  0.15241  0.70368  0.49865  1.0000
  N   N32       1.0  0.39501  0.73240  0.61174  1.0000
  C   C580      1.0  0.38524  0.70738  0.62044  1.0000
  C   C581      1.0  0.42322  0.74911  0.61563  1.0000
  C   C582      1.0  0.38006  0.74683  0.61695  1.0000
  C   C583      1.0  0.39127  0.72806  0.59498  1.0000
  C   C584      1.0  0.39276  0.70369  0.58844  1.0000
  C   C585      1.0  0.35534  0.69087  0.62057  1.0000
  C   C586      1.0  0.39001  0.77517  0.61140  1.0000
  C   C587      1.0  0.44228  0.73747  0.61253  1.0000
  H   H1016     1.0  0.45399  0.74777  0.73453  1.0000
  C   C588      1.0  0.39422  0.70463  0.57134  1.0000
  C   C589      1.0  0.34742  0.66332  0.62619  1.0000
  C   C590      1.0  0.37035  0.78556  0.61461  1.0000
  H   H1017     1.0  0.39166  0.71162  0.63232  1.0000
  H   H1018     1.0  0.39397  0.69483  0.61646  1.0000
  H   H1019     1.0  0.43101  0.76764  0.60929  1.0000
  H   H1020     1.0  0.42511  0.75470  0.62770  1.0000
  H   H1021     1.0  0.37985  0.74757  0.62941  1.0000
  H   H1022     1.0  0.35933  0.73623  0.61343  1.0000
  H   H1023     1.0  0.37195  0.72620  0.59142  1.0000
  H   H1024     1.0  0.40555  0.74545  0.58893  1.0000
  H   H1025     1.0  0.37519  0.68582  0.59155  1.0000
  H   H1026     1.0  0.40977  0.70161  0.59265  1.0000
  H   H1027     1.0  0.34663  0.69994  0.62830  1.0000
  H   H1028     1.0  0.34680  0.68964  0.60924  1.0000
  H   H1029     1.0  0.39369  0.77650  0.59916  1.0000
  H   H1030     1.0  0.40824  0.78813  0.61738  1.0000
  H   H1031     1.0  0.43607  0.71833  0.61794  1.0000
  H   H1032     1.0  0.44428  0.73563  0.60029  1.0000
  H   H1033     1.0  0.17525  0.68561  0.51795  1.0000
  C   C591      1.0  0.41636  0.88670  0.71986  1.0000
  C   C592      1.0  0.47888  0.69355  0.60385  1.0000
  H   H1034     1.0  0.39443  0.68661  0.56699  1.0000
  H   H1035     1.0  0.37719  0.70616  0.56648  1.0000
  H   H1036     1.0  0.41231  0.72147  0.56767  1.0000
  H   H1037     1.0  0.32593  0.65242  0.62638  1.0000
  H   H1038     1.0  0.35495  0.65284  0.61872  1.0000
  H   H1039     1.0  0.35476  0.66388  0.63777  1.0000
  H   H1040     1.0  0.35209  0.77417  0.60828  1.0000
  H   H1041     1.0  0.36606  0.78448  0.62678  1.0000
  H   H1042     1.0  0.37835  0.80622  0.61114  1.0000
  S   S138      1.0  0.40399  0.88499  0.50577  1.0000
  S   S139      1.0  0.35241  0.91006  0.49439  1.0000
  C   C593      1.0  0.06207  0.50726  0.59068  1.0000
  H   H1043     1.0  0.16909  0.49953  0.54128  1.0000
  H   H1044     1.0  0.42088  0.71242  0.71024  1.0000
  H   H1045     1.0  0.31298  0.66452  0.66991  1.0000
  H   H1046     1.0  0.46107  0.60057  0.63472  1.0000
  C   C594      1.0  0.27441  0.58159  0.68479  1.0000
  Fe  Fe70      1.0  0.45352  0.68732  0.64297  1.0000
  H   H1047     1.0  0.48656  0.76238  0.68794  1.0000
  H   H1048     1.0  0.29977  0.57952  0.71437  1.0000
  H   H1049     1.0  0.30957  0.56395  0.69335  1.0000
  C   C595      1.0  0.20635  0.59001  0.54457  1.0000
  H   H1050     1.0  0.46474  0.58864  0.58197  1.0000
  H   H1051     1.0  0.35654  0.57033  0.68220  1.0000
  H   H1052     1.0  0.38047  0.59200  0.69521  1.0000
  H   H1053     1.0  0.17644  0.49941  0.56785  1.0000
  S   S140      1.0  0.13082  0.58263  0.50707  1.0000
  C   C596      1.0  0.44950  0.76401  0.68859  1.0000
  H   H1054     1.0  0.39431  0.59905  0.59371  1.0000
  C   C597      1.0  0.33891  0.82616  0.71660  1.0000
  H   H1055     1.0  0.40471  0.99216  0.57626  1.0000
  H   H1056     1.0  0.43645  0.90224  0.72138  1.0000
  C   C598      1.0  0.45961  0.69392  0.71780  1.0000
  H   H1057     1.0  0.20882  0.58559  0.53272  1.0000
  H   H1058     1.0  0.21652  0.67543  0.48806  1.0000
  H   H1059     1.0  0.27736  0.75427  0.50155  1.0000
  H   H1060     1.0  0.26046  0.58924  0.68787  1.0000
  H   H1061     1.0  0.48429  0.61742  0.61099  1.0000
  H   H1062     1.0  0.03994  0.50709  0.52642  1.0000
  H   H1063     1.0  0.19868  0.49832  0.53649  1.0000
  C   C599      1.0  0.47283  0.70948  0.73018  1.0000
  C   C600      1.0  0.13607  0.59375  0.48852  1.0000
  H   H1064     1.0  0.19812  0.57084  0.69390  1.0000
  H   H1065     1.0  0.42678  0.65871  0.71081  1.0000
  C   C601      1.0  0.24256  0.80961  0.48750  1.0000
  H   H1066     1.0  0.22445  0.51787  0.68362  1.0000
  H   H1067     1.0  0.31679  0.58054  0.67606  1.0000
  H   H1068     1.0  0.28766  0.77577  0.71900  1.0000
  C   C602      1.0  0.20227  0.58373  0.73166  1.0000
  H   H1069     1.0  0.42696  0.71868  0.49062  1.0000
  H   H1070     1.0  0.38898  0.52170  0.59331  1.0000
  H   H1071     1.0  0.39992  0.74686  0.73273  1.0000
  C   C603      1.0  0.31728  0.58371  0.68839  1.0000
  H   H1072     1.0  0.24152  0.55497  0.60590  1.0000
  C   C604      1.0  0.34625  0.59841  0.69314  1.0000
  S   S141      1.0  0.47113  0.68221  0.55235  1.0000
  H   H1073     1.0  0.38412  0.83034  0.49409  1.0000
  N   N33       1.0  0.28993  0.55823  0.49404  1.0000
  H   H1074     1.0  0.35683  0.61419  0.68501  1.0000
  C   C605      1.0  0.31283  0.62385  0.68649  1.0000
  C   C606      1.0  0.38055  0.70333  0.71450  1.0000
  C   C607      1.0  0.41016  0.86407  0.73103  1.0000
  C   C608      1.0  0.41758  0.89151  0.48773  1.0000
  S   S142      1.0  0.47212  0.70392  0.69958  1.0000
  H   H1075     1.0  0.26792  0.61049  0.71129  1.0000
  H   H1076     1.0  0.34856  0.60713  0.70449  1.0000
  C   C609      1.0  0.28944  0.51596  0.50440  1.0000
  C   C610      1.0  0.43713  0.97298  0.49360  1.0000
  S   S143      1.0  0.37755  0.97844  0.50871  1.0000
  H   H1077     1.0  0.35662  0.79846  0.49314  1.0000
  S   S144      1.0  0.12650  0.49925  0.56178  1.0000
  H   H1078     1.0  0.41539  0.89331  0.69595  1.0000
  H   H1079     1.0  0.20642  0.64917  0.53727  1.0000
  H   H1080     1.0  0.27671  0.58437  0.67243  1.0000
  N   N34       1.0  0.21337  0.53073  0.56161  1.0000
  H   H1081     1.0  0.12192  0.62209  0.49250  1.0000
  C   C611      1.0  0.41327  0.87727  0.70358  1.0000
  C   C612      1.0  0.26130  0.55177  0.68728  1.0000
  H   H1082     1.0  0.34367  0.88308  0.73064  1.0000
  C   C613      1.0  0.36278  0.81936  0.49550  1.0000
  H   H1083     1.0  0.31461  0.62330  0.67406  1.0000
  C   C614      1.0  0.41290  0.79061  0.70649  1.0000
  H   H1084     1.0  0.43402  0.60919  0.58164  1.0000
  C   C615      1.0  0.46932  0.75535  0.61865  1.0000
  H   H1085     1.0  0.17654  0.63239  0.52689  1.0000
  H   H1086     1.0  0.25406  0.76532  0.49571  1.0000
  H   H1087     1.0  0.42333  0.53206  0.59519  1.0000
  H   H1088     1.0  0.40443  0.71814  0.69508  1.0000
  H   H1089     1.0  0.23132  0.54354  0.67031  1.0000
  C   C616      1.0  0.26176  0.54918  0.49787  1.0000
  H   H1090     1.0  0.34951  0.61722  0.51880  1.0000
  C   C617      1.0  0.19094  0.65174  0.53112  1.0000
  C   C618      1.0  0.44652  0.76225  0.70584  1.0000
  H   H1091     1.0  0.48305  0.74745  0.61556  1.0000
  H   H1092     1.0  0.25486  0.55350  0.55923  1.0000
  H   H1093     1.0  0.04166  0.50790  0.55473  1.0000
  H   H1094     1.0  0.23796  0.58335  0.55297  1.0000
  H   H1095     1.0  0.24596  0.50561  0.56618  1.0000
  H   H1096     1.0  0.33844  0.56284  0.50716  1.0000
  H   H1097     1.0  0.37153  0.60282  0.51859  1.0000
  H   H1098     1.0  0.30128  0.67849  0.68426  1.0000
  H   H1099     1.0  0.30122  0.64564  0.70250  1.0000
  H   H1100     1.0  0.21693  0.61136  0.54634  1.0000
  C   C619      1.0  0.24701  0.51344  0.55478  1.0000
  H   H1101     1.0  0.48263  0.56203  0.50123  1.0000
  H   H1102     1.0  0.27880  0.63184  0.68708  1.0000
  H   H1103     1.0  0.45467  0.51688  0.49203  1.0000
  H   H1104     1.0  0.40237  0.82116  0.70039  1.0000
  H   H1105     1.0  0.19931  0.53905  0.58234  1.0000
  S   S145      1.0  0.49097  0.69607  0.51071  1.0000
  C   C620      1.0  0.41979  0.75319  0.72831  1.0000
  H   H1106     1.0  0.26329  0.58348  0.50971  1.0000
  H   H1107     1.0  0.31487  0.61383  0.71429  1.0000
  C   C621      1.0  0.40731  0.72078  0.70744  1.0000
  C   C622      1.0  0.33567  0.58068  0.50634  1.0000
  H   H1108     1.0  0.37000  0.67292  0.69762  1.0000
  H   H1109     1.0  0.35191  0.66289  0.71482  1.0000
  C   C623      1.0  0.37135  0.67493  0.71001  1.0000
  N   N35       1.0  0.41906  0.74928  0.71155  1.0000
  H   H1110     1.0  0.38287  0.75179  0.70945  1.0000
  H   H1111     1.0  0.41828  0.85148  0.72614  1.0000
  C   C624      1.0  0.20206  0.54641  0.55352  1.0000
  C   C625      1.0  0.42798  0.66349  0.73493  1.0000
  H   H1112     1.0  0.20812  0.53136  0.60852  1.0000
  H   H1113     1.0  0.34754  0.74751  0.72954  1.0000
  C   C626      1.0  0.40264  0.76079  0.70458  1.0000
  C   C627      1.0  0.24742  0.75806  0.72586  1.0000
  H   H1114     1.0  0.18567  0.54846  0.71850  1.0000
  C   C628      1.0  0.46964  0.62411  0.61415  1.0000
  C   C629      1.0  0.20996  0.71787  0.49776  1.0000
  C   C630      1.0  0.45412  0.96726  0.50520  1.0000
  C   C631      1.0  0.39421  0.79972  0.69941  1.0000
  C   C632      1.0  0.23293  0.53927  0.68230  1.0000
  H   H1115     1.0  0.06506  0.53601  0.49684  1.0000
  H   H1116     1.0  0.21268  0.54761  0.49328  1.0000
  H   H1117     1.0  0.30548  0.59291  0.50784  1.0000
  C   C633      1.0  0.34127  0.86332  0.73046  1.0000
  C   C634      1.0  0.21701  0.57636  0.55527  1.0000
  H   H1118     1.0  0.08208  0.52252  0.59306  1.0000
  H   H1119     1.0  0.23238  0.56018  0.57878  1.0000
  H   H1120     1.0  0.39924  0.58356  0.50609  1.0000
  H   H1121     1.0  0.45300  0.95555  0.52839  1.0000
  H   H1122     1.0  0.33264  0.67893  0.68632  1.0000
  S   S146      1.0  0.11497  0.50997  0.49368  1.0000
  H   H1123     1.0  0.38873  0.85210  0.73088  1.0000
  C   C635      1.0  0.43555  0.60877  0.49574  1.0000
  H   H1124     1.0  0.16655  0.72347  0.50231  1.0000
  H   H1125     1.0  0.25694  0.53794  0.50847  1.0000
  H   H1126     1.0  0.47312  0.98412  0.50721  1.0000
  C   C636      1.0  0.22393  0.55922  0.50309  1.0000
  H   H1127     1.0  0.14353  0.69173  0.50869  1.0000
  H   H1128     1.0  0.43204  0.80136  0.70108  1.0000
  H   H1129     1.0  0.42831  0.87096  0.70071  1.0000
  C   C637      1.0  0.13055  0.70609  0.49011  1.0000
  H   H1130     1.0  0.20061  0.54216  0.54128  1.0000
  H   H1131     1.0  0.33290  0.63475  0.69077  1.0000
  H   H1132     1.0  0.37516  0.79089  0.70515  1.0000
  C   C638      1.0  0.23879  0.53574  0.55430  1.0000
  H   H1133     1.0  0.39376  0.86085  0.70165  1.0000
  C   C639      1.0  0.25303  0.57086  0.50002  1.0000
  H   H1134     1.0  0.35816  0.82155  0.50734  1.0000
  H   H1135     1.0  0.21762  0.68904  0.52290  1.0000
  H   H1136     1.0  0.18126  0.65943  0.53908  1.0000
  C   C640      1.0  0.48161  0.56909  0.48979  1.0000
  C   C641      1.0  0.44036  0.95909  0.52022  1.0000
  C   C642      1.0  0.20279  0.67049  0.51808  1.0000
  H   H1137     1.0  0.40266  0.89525  0.72159  1.0000
  H   H1138     1.0  0.38499  0.66763  0.71427  1.0000
  C   C643      1.0  0.47798  0.77524  0.68409  1.0000
  H   H1139     1.0  0.25615  0.57643  0.71399  1.0000
  C   C644      1.0  0.44024  0.71049  0.49422  1.0000
  H   H1140     1.0  0.28866  0.53832  0.55653  1.0000
  C   C645      1.0  0.22757  0.53408  0.60488  1.0000
  N   N36       1.0  0.44494  0.60999  0.60512  1.0000
  H   H1141     1.0  0.45835  0.72633  0.49886  1.0000
  Fe  Fe71      1.0  0.12266  0.50664  0.53701  1.0000
  H   H1142     1.0  0.27640  0.52995  0.53751  1.0000
  H   H1143     1.0  0.25302  0.75324  0.51451  1.0000
  C   C646      1.0  0.23882  0.72317  0.49712  1.0000
  H   H1144     1.0  0.05020  0.51692  0.58685  1.0000
  H   H1145     1.0  0.20801  0.73098  0.48920  1.0000
  H   H1146     1.0  0.21821  0.57501  0.50509  1.0000
  H   H1147     1.0  0.47949  0.77664  0.67169  1.0000
  H   H1148     1.0  0.45720  0.78228  0.71052  1.0000
  H   H1149     1.0  0.45916  0.63899  0.58784  1.0000
  C   C647      1.0  0.40669  0.53460  0.59973  1.0000
  C   C648      1.0  0.16555  0.69076  0.48874  1.0000
  H   H1150     1.0  0.41362  0.56759  0.58614  1.0000
  H   H1151     1.0  0.31869  0.50362  0.49797  1.0000
  C   C649      1.0  0.27541  0.59978  0.73313  1.0000
  H   H1152     1.0  0.33186  0.79245  0.72986  1.0000
  H   H1153     1.0  0.40379  0.52856  0.61166  1.0000
  C   C650      1.0  0.41140  0.56283  0.59822  1.0000
  H   H1154     1.0  0.46226  0.61894  0.72464  1.0000
  H   H1155     1.0  0.26848  0.50607  0.50715  1.0000
  C   C651      1.0  0.41013  0.58855  0.49578  1.0000
  H   H1156     1.0  0.43047  0.77420  0.73119  1.0000
  H   H1157     1.0  0.43078  0.69618  0.50326  1.0000
  C   C652      1.0  0.22658  0.52446  0.58877  1.0000
  H   H1158     1.0  0.24652  0.52777  0.58598  1.0000
  C   C653      1.0  0.27470  0.52266  0.54915  1.0000
  C   C654      1.0  0.19351  0.50255  0.56082  1.0000
  H   H1159     1.0  0.44510  0.87668  0.49262  1.0000
  C   C655      1.0  0.02223  0.49988  0.53337  1.0000
  H   H1160     1.0  0.48921  0.79498  0.68895  1.0000
  H   H1161     1.0  0.45131  0.57568  0.60557  1.0000
  H   H1162     1.0  0.45778  0.95089  0.50115  1.0000
  H   H1163     1.0  0.35390  0.85019  0.48869  1.0000
  H   H1164     1.0  0.32757  0.81811  0.48681  1.0000
  C   C656      1.0  0.47152  0.60996  0.58157  1.0000
  H   H1165     1.0  0.47858  0.64533  0.61168  1.0000
  H   H1166     1.0  0.05389  0.49653  0.60121  1.0000
  H   H1167     1.0  0.11610  0.68678  0.48598  1.0000
  H   H1168     1.0  0.15064  0.67074  0.48608  1.0000
  C   C657      1.0  0.47570  0.61809  0.56512  1.0000
  H   H1169     1.0  0.48365  0.63953  0.56417  1.0000
  H   H1170     1.0  0.42395  0.71845  0.73548  1.0000
  H   H1171     1.0  0.49075  0.63468  0.65154  1.0000
  H   H1172     1.0  0.48981  0.61220  0.56002  1.0000
  H   H1173     1.0  0.49073  0.61985  0.58717  1.0000
  Fe  Fe72      1.0  0.33633  0.81923  0.78446  1.0000
  S   S147      1.0  0.31007  0.80858  0.80469  1.0000
  S   S148      1.0  0.32605  0.80471  0.76029  1.0000
  Fe  Fe73      1.0  0.38475  0.83786  0.80389  1.0000
  S   S149      1.0  0.36343  0.82813  0.82565  1.0000
  S   S150      1.0  0.42792  0.85746  0.80109  1.0000
  Fe  Fe74      1.0  0.33530  0.79179  0.81399  1.0000
  S   S151      1.0  0.31984  0.75373  0.82624  1.0000
  Fe  Fe75      1.0  0.33952  0.84582  0.81553  1.0000
  S   S152      1.0  0.32697  0.86986  0.83102  1.0000
  S   S153      1.0  0.35945  0.79956  0.79337  1.0000
  S   S154      1.0  0.36305  0.85840  0.79422  1.0000
  Fe  Fe76      1.0  0.46513  0.74540  0.80131  1.0000
  S   S155      1.0  0.42591  0.71960  0.79188  1.0000
  H   H1174     1.0  0.46077  0.63952  0.81435  1.0000
  Fe  Fe77      1.0  0.41776  0.70215  0.81481  1.0000
  S   S156      1.0  0.38050  0.69229  0.82700  1.0000
  S   S157      1.0  0.45544  0.73095  0.82487  1.0000
  Fe  Fe78      1.0  0.21713  0.62892  0.79476  1.0000
  S   S158      1.0  0.22892  0.60979  0.81311  1.0000
  S   S159      1.0  0.21605  0.66701  0.79871  1.0000
  Fe  Fe79      1.0  0.20422  0.58482  0.77229  1.0000
  S   S160      1.0  0.21363  0.56136  0.78928  1.0000
  S   S161      1.0  0.19221  0.56693  0.74894  1.0000
  Fe  Fe80      1.0  0.19327  0.57407  0.80655  1.0000
  S   S162      1.0  0.16486  0.54869  0.82421  1.0000
  Fe  Fe81      1.0  0.24837  0.59899  0.79452  1.0000
  S   S163      1.0  0.28705  0.59858  0.79531  1.0000
  S   S164      1.0  0.18006  0.59375  0.78904  1.0000
  S   S165      1.0  0.24027  0.62175  0.77670  1.0000
  S   S166      1.0  0.45814  0.63042  0.94866  1.0000
  Fe  Fe82      1.0  0.33730  0.89043  0.92144  1.0000
  S   S167      1.0  0.30364  0.90007  0.92216  1.0000
  S   S168      1.0  0.35430  0.87950  0.90101  1.0000
  Fe  Fe83      1.0  0.34762  0.90085  0.95504  1.0000
  S   S169      1.0  0.31484  0.91139  0.95786  1.0000
  S   S170      1.0  0.37193  0.90522  0.97568  1.0000
  Fe  Fe84      1.0  0.29203  0.87608  0.94344  1.0000
  S   S171      1.0  0.24934  0.84622  0.94701  1.0000
  Fe  Fe85      1.0  0.32980  0.93439  0.93668  1.0000
  S   S172      1.0  0.32430  0.86438  0.94174  1.0000
  S   S173      1.0  0.36382  0.92573  0.93491  1.0000
  Fe  Fe86      1.0  0.16243  0.53379  0.91469  1.0000
  H   H1175     1.0  0.39068  0.93445  0.90565  1.0000
  Fe  Fe87      1.0  0.14246  0.56028  0.93723  1.0000
  S   S174      1.0  0.13195  0.52849  0.95407  1.0000
  S   S175      1.0  0.13514  0.59550  0.94005  1.0000
  Fe  Fe88      1.0  0.17053  0.52883  0.94879  1.0000
  S   S176      1.0  0.19928  0.53424  0.96836  1.0000
  S   S177      1.0  0.18174  0.56287  0.93325  1.0000
  S   S178      1.0  0.12356  0.53371  0.91762  1.0000
  C   C658      1.0  0.22391  0.52491  0.97383  1.0000
  S   S179      1.0  0.43157  0.67247  0.80943  1.0000
  C   C659      1.0  0.28887  0.56289  0.95009  1.0000
  C   C660      1.0  0.44117  0.67908  0.74731  1.0000
  C   C661      1.0  0.36906  0.52611  0.95800  1.0000
  H   H1176     1.0  0.38732  0.60451  0.96281  1.0000
  H   H1177     1.0  0.24957  0.90431  0.93176  1.0000
  H   H1178     1.0  0.10132  0.56012  0.96733  1.0000
  C   C662      1.0  0.15189  0.60143  0.96935  1.0000
  C   C663      1.0  0.13941  0.60873  0.95819  1.0000
  C   C664      1.0  0.12982  0.62663  0.96155  1.0000
  H   H1179     1.0  0.40755  0.91645  0.85507  1.0000
  H   H1180     1.0  0.15932  0.58759  0.96683  1.0000
  H   H1181     1.0  0.11988  0.63208  0.95297  1.0000
  H   H1182     1.0  0.19586  0.81024  0.95157  1.0000
  H   H1183     1.0  0.27198  0.78200  0.74410  1.0000
  H   H1184     1.0  0.27723  0.54974  0.92707  1.0000
  C   C665      1.0  0.23373  0.82340  0.96164  1.0000
  C   C666      1.0  0.34781  0.55477  0.96526  1.0000
  H   H1185     1.0  0.27788  0.54615  0.80912  1.0000
  C   C667      1.0  0.45899  0.61680  0.73693  1.0000
  H   H1186     1.0  0.46318  0.68381  0.90882  1.0000
  C   C668      1.0  0.44406  0.62192  0.96657  1.0000
  N   N37       1.0  0.41983  0.87177  0.74694  1.0000
  H   H1187     1.0  0.05212  0.56046  0.92110  1.0000
  H   H1188     1.0  0.42381  0.63508  0.83684  1.0000
  H   H1189     1.0  0.39549  0.65278  0.86935  1.0000
  C   C669      1.0  0.42930  0.59559  0.97010  1.0000
  C   C670      1.0  0.32676  0.95224  0.89242  1.0000
  H   H1190     1.0  0.34000  0.66412  0.89937  1.0000
  H   H1191     1.0  0.42773  0.58080  0.96209  1.0000
  H   H1192     1.0  0.32302  0.65690  0.76998  1.0000
  H   H1193     1.0  0.40021  0.62238  0.85156  1.0000
  C   C671      1.0  0.40403  0.91116  0.97202  1.0000
  C   C672      1.0  0.41014  0.90179  0.95890  1.0000
  C   C673      1.0  0.43501  0.90341  0.95714  1.0000
  C   C674      1.0  0.40234  0.95587  0.90446  1.0000
  H   H1194     1.0  0.39542  0.89241  0.95038  1.0000
  H   H1195     1.0  0.43944  0.89541  0.94718  1.0000
  C   C675      1.0  0.17157  0.54861  0.84367  1.0000
  H   H1196     1.0  0.44173  0.76517  0.75711  1.0000
  C   C676      1.0  0.15158  0.53266  0.85329  1.0000
  C   C677      1.0  0.18093  0.54667  0.87478  1.0000
  C   C678      1.0  0.20099  0.56246  0.86512  1.0000
  C   C679      1.0  0.19631  0.56366  0.84969  1.0000
  H   H1197     1.0  0.44294  0.98414  0.90901  1.0000
  H   H1198     1.0  0.46149  0.60864  0.81583  1.0000
  H   H1199     1.0  0.26418  0.59194  0.85488  1.0000
  C   C680      1.0  0.24480  0.51510  0.79800  1.0000
  C   C681      1.0  0.08251  0.54453  0.97123  1.0000
  C   C682      1.0  0.35430  0.66652  0.81816  1.0000
  C   C683      1.0  0.32883  0.66246  0.82084  1.0000
  C   C684      1.0  0.30790  0.64205  0.81354  1.0000
  C   C685      1.0  0.31248  0.62526  0.80396  1.0000
  C   C686      1.0  0.33789  0.62925  0.80141  1.0000
  C   C687      1.0  0.35874  0.65005  0.80830  1.0000
  H   H1200     1.0  0.32537  0.67520  0.82846  1.0000
  H   H1201     1.0  0.28830  0.63906  0.81554  1.0000
  H   H1202     1.0  0.34149  0.61633  0.79398  1.0000
  H   H1203     1.0  0.37821  0.65308  0.80606  1.0000
  H   H1204     1.0  0.41719  0.64925  0.88856  1.0000
  C   C688      1.0  0.33527  0.87375  0.85043  1.0000
  C   C689      1.0  0.35647  0.87065  0.85591  1.0000
  C   C690      1.0  0.36214  0.87291  0.87137  1.0000
  C   C691      1.0  0.34682  0.87846  0.88161  1.0000
  C   C692      1.0  0.32593  0.88220  0.87615  1.0000
  C   C693      1.0  0.32029  0.87997  0.86062  1.0000
  H   H1205     1.0  0.36863  0.86663  0.84821  1.0000
  H   H1206     1.0  0.37846  0.87018  0.87543  1.0000
  H   H1207     1.0  0.31397  0.88650  0.88389  1.0000
  H   H1208     1.0  0.30396  0.88263  0.85651  1.0000
  C   C694      1.0  0.44330  0.83718  0.79987  1.0000
  C   C695      1.0  0.46932  0.84816  0.79563  1.0000
  C   C696      1.0  0.15484  0.61209  0.98382  1.0000
  C   C697      1.0  0.46907  0.80592  0.79688  1.0000
  C   C698      1.0  0.44302  0.79479  0.80123  1.0000
  C   C699      1.0  0.43009  0.81046  0.80269  1.0000
  H   H1209     1.0  0.47966  0.86881  0.79358  1.0000
  H   H1210     1.0  0.42488  0.81426  0.77135  1.0000
  H   H1211     1.0  0.43297  0.77423  0.80351  1.0000
  H   H1212     1.0  0.41005  0.80201  0.80608  1.0000
  C   C700      1.0  0.29064  0.72977  0.81896  1.0000
  C   C701      1.0  0.27203  0.73631  0.81279  1.0000
  C   C702      1.0  0.24888  0.71684  0.80686  1.0000
  C   C703      1.0  0.24464  0.69092  0.80672  1.0000
  C   C704      1.0  0.26337  0.68443  0.81280  1.0000
  C   C705      1.0  0.28606  0.70377  0.81923  1.0000
  H   H1213     1.0  0.27532  0.75629  0.81266  1.0000
  H   H1214     1.0  0.23450  0.72195  0.80209  1.0000
  H   H1215     1.0  0.26042  0.66456  0.81258  1.0000
  H   H1216     1.0  0.30039  0.69868  0.82405  1.0000
  C   C706      1.0  0.42847  0.66782  0.89460  1.0000
  C   C707      1.0  0.45034  0.66528  0.90307  1.0000
  H   H1217     1.0  0.47029  0.61769  0.76559  1.0000
  S   S180      1.0  0.33359  0.97556  0.93334  1.0000
  C   C708      1.0  0.06444  0.57431  0.97766  1.0000
  H   H1218     1.0  0.39449  0.96453  0.91294  1.0000
  H   H1219     1.0  0.07604  0.53332  0.94116  1.0000
  H   H1220     1.0  0.32894  0.96841  0.88489  1.0000
  N   N38       1.0  0.42021  0.69395  0.87327  1.0000
  C   C709      1.0  0.40737  0.67064  0.86299  1.0000
  C   C710      1.0  0.39997  0.69857  0.88178  1.0000
  C   C711      1.0  0.43491  0.71738  0.86352  1.0000
  C   C712      1.0  0.43936  0.69127  0.88386  1.0000
  C   C713      1.0  0.42565  0.66406  0.85302  1.0000
  C   C714      1.0  0.44718  0.74426  0.87163  1.0000
  C   C715      1.0  0.46028  0.76634  0.86045  1.0000
  H   H1221     1.0  0.39346  0.67344  0.85535  1.0000
  H   H1222     1.0  0.40868  0.71013  0.89215  1.0000
  H   H1223     1.0  0.39312  0.71057  0.87497  1.0000
  H   H1224     1.0  0.42197  0.71826  0.85441  1.0000
  H   H1225     1.0  0.45112  0.71571  0.85780  1.0000
  H   H1226     1.0  0.45568  0.69080  0.87752  1.0000
  H   H1227     1.0  0.44867  0.70867  0.89123  1.0000
  H   H1228     1.0  0.43596  0.67973  0.84484  1.0000
  H   H1229     1.0  0.44015  0.66101  0.85986  1.0000
  H   H1230     1.0  0.46226  0.74554  0.87980  1.0000
  H   H1231     1.0  0.43239  0.74798  0.87766  1.0000
  H   H1232     1.0  0.46213  0.65997  0.89522  1.0000
  C   C716      1.0  0.36064  0.66161  0.76325  1.0000
  H   H1233     1.0  0.39582  0.64135  0.83661  1.0000
  C   C717      1.0  0.03418  0.52945  0.97035  1.0000
  H   H1234     1.0  0.21989  0.69083  0.95642  1.0000
  H   H1235     1.0  0.37251  0.62598  0.96559  1.0000
  H   H1236     1.0  0.39435  0.75474  0.82014  1.0000
  H   H1237     1.0  0.31441  0.95199  0.90200  1.0000
  H   H1238     1.0  0.25249  0.55234  0.93825  1.0000
  H   H1239     1.0  0.18965  0.66899  0.96421  1.0000
  N   N39       1.0  0.16662  0.62564  0.84289  1.0000
  C   C718      1.0  0.16755  0.63105  0.82624  1.0000
  C   C719      1.0  0.19169  0.62502  0.84726  1.0000
  C   C720      1.0  0.16467  0.64707  0.85180  1.0000
  C   C721      1.0  0.21705  0.64955  0.84334  1.0000
  C   C722      1.0  0.14127  0.62035  0.81762  1.0000
  C   C723      1.0  0.14420  0.63331  0.80236  1.0000
  C   C724      1.0  0.24090  0.64722  0.84916  1.0000
  H   H1240     1.0  0.17838  0.65232  0.82413  1.0000
  H   H1241     1.0  0.17881  0.62236  0.82027  1.0000
  H   H1242     1.0  0.19277  0.60813  0.84173  1.0000
  H   H1243     1.0  0.19245  0.62206  0.85953  1.0000
  H   H1244     1.0  0.16948  0.64608  0.86381  1.0000
  H   H1245     1.0  0.17949  0.66639  0.84800  1.0000
  H   H1246     1.0  0.13571  0.65466  0.83966  1.0000
  H   H1247     1.0  0.21756  0.66737  0.84843  1.0000
  H   H1248     1.0  0.21896  0.65221  0.83104  1.0000
  H   H1249     1.0  0.13395  0.59910  0.81569  1.0000
  H   H1250     1.0  0.12619  0.62321  0.82379  1.0000
  C   C725      1.0  0.35237  0.75294  0.74151  1.0000
  H   H1251     1.0  0.15864  0.63044  0.79543  1.0000
  C   C726      1.0  0.41647  0.58833  0.98393  1.0000
  H   H1252     1.0  0.15429  0.68831  0.85959  1.0000
  H   H1253     1.0  0.25878  0.66441  0.84561  1.0000
  H   H1254     1.0  0.24074  0.64631  0.86159  1.0000
  H   H1255     1.0  0.24142  0.62950  0.84458  1.0000
  C   C727      1.0  0.25517  0.92440  0.93587  1.0000
  H   H1256     1.0  0.41032  0.97105  0.85723  1.0000
  C   C728      1.0  0.26344  0.51119  0.98371  1.0000
  C   C729      1.0  0.37621  0.61355  0.95733  1.0000
  H   H1257     1.0  0.47365  0.71471  0.75422  1.0000
  H   H1258     1.0  0.04182  0.52469  0.93898  1.0000
  H   H1259     1.0  0.38796  0.88063  0.75165  1.0000
  C   C730      1.0  0.27420  0.59667  0.84390  1.0000
  C   C731      1.0  0.35748  0.54364  0.95216  1.0000
  H   H1260     1.0  0.35421  0.50931  0.96414  1.0000
  H   H1261     1.0  0.18876  0.64317  0.92567  1.0000
  H   H1262     1.0  0.33739  0.67918  0.75492  1.0000
  C   C732      1.0  0.43182  0.74411  0.75428  1.0000
  H   H1263     1.0  0.19952  0.87242  0.95516  1.0000
  H   H1264     1.0  0.41629  0.90769  0.74528  1.0000
  C   C733      1.0  0.32567  0.58011  0.97479  1.0000
  H   H1265     1.0  0.46868  0.78530  0.86647  1.0000
  H   H1266     1.0  0.25421  0.54333  0.77993  1.0000
  C   C734      1.0  0.46350  0.70229  0.74485  1.0000
  C   C735      1.0  0.41483  0.99263  0.88639  1.0000
  H   H1267     1.0  0.22038  0.62212  0.74132  1.0000
  H   H1268     1.0  0.28081  0.50228  0.81429  1.0000
  H   H1269     1.0  0.35196  0.64468  0.75549  1.0000
  H   H1270     1.0  0.29368  0.61333  0.84545  1.0000
  H   H1271     1.0  0.45876  0.64136  0.76414  1.0000
  H   H1272     1.0  0.28972  0.53630  0.83252  1.0000
  C   C736      1.0  0.26852  0.54661  0.93841  1.0000
  C   C737      1.0  0.24270  0.92386  0.95103  1.0000
  H   H1273     1.0  0.18721  0.88959  0.96732  1.0000
  H   H1274     1.0  0.21722  0.92693  0.97419  1.0000
  H   H1275     1.0  0.41137  0.73565  0.75805  1.0000
  H   H1276     1.0  0.37880  0.67641  0.75818  1.0000
  H   H1277     1.0  0.12473  0.65054  0.97864  1.0000
  H   H1278     1.0  0.41143  0.64664  0.95031  1.0000
  C   C738      1.0  0.04670  0.58755  0.97434  1.0000
  C   C739      1.0  0.40840  0.84742  0.75629  1.0000
  C   C740      1.0  0.41466  0.93699  0.85157  1.0000
  H   H1279     1.0  0.37329  0.76641  0.74244  1.0000
  C   C741      1.0  0.46303  0.88197  0.76137  1.0000
  H   H1280     1.0  0.30736  0.56438  0.97918  1.0000
  C   C742      1.0  0.41723  0.90092  0.76860  1.0000
  H   H1281     1.0  0.27323  0.92367  0.96451  1.0000
  H   H1282     1.0  0.43303  0.85511  0.97108  1.0000
  H   H1283     1.0  0.24979  0.55084  0.80794  1.0000
  H   H1284     1.0  0.21415  0.75022  0.96149  1.0000
  H   H1285     1.0  0.41544  0.85143  0.76806  1.0000
  H   H1286     1.0  0.37028  0.76552  0.81587  1.0000
  H   H1287     1.0  0.49134  0.63828  0.81683  1.0000
  C   C743      1.0  0.33338  0.82373  0.74383  1.0000
  C   C744      1.0  0.40951  0.89017  0.75247  1.0000
  H   H1288     1.0  0.46032  0.86171  0.76252  1.0000
  H   H1289     1.0  0.36554  0.65500  0.77396  1.0000
  H   H1290     1.0  0.27665  0.93501  0.93680  1.0000
  H   H1291     1.0  0.24864  0.93450  0.92751  1.0000
  H   H1292     1.0  0.41227  0.88516  0.77687  1.0000
  H   H1293     1.0  0.43833  0.91402  0.76924  1.0000
  C   C745      1.0  0.19399  0.70861  0.97790  1.0000
  H   H1294     1.0  0.34150  0.53173  0.94438  1.0000
  H   H1295     1.0  0.39045  0.79713  0.76738  1.0000
  H   H1296     1.0  0.40043  0.92864  0.88110  1.0000
  C   C746      1.0  0.40259  0.95073  0.86118  1.0000
  N   N40       1.0  0.24996  0.52691  0.82663  1.0000
  C   C747      1.0  0.16922  0.84841  0.96993  1.0000
  H   H1297     1.0  0.12532  0.62465  0.79629  1.0000
  N   N41       1.0  0.30800  0.78711  0.86844  1.0000
  C   C748      1.0  0.30233  0.76151  0.87573  1.0000
  C   C749      1.0  0.30764  0.80570  0.88032  1.0000
  C   C750      1.0  0.28776  0.78237  0.85647  1.0000
  C   C751      1.0  0.33434  0.79891  0.86123  1.0000
  C   C752      1.0  0.35753  0.80254  0.87149  1.0000
  C   C753      1.0  0.30535  0.74105  0.86556  1.0000
  C   C754      1.0  0.28929  0.80690  0.84849  1.0000
  C   C755      1.0  0.28091  0.79911  0.88740  1.0000
  C   C756      1.0  0.28343  0.81894  0.89957  1.0000
  C   C757      1.0  0.38291  0.81398  0.86275  1.0000
  C   C758      1.0  0.29989  0.71631  0.87424  1.0000
  C   C759      1.0  0.26628  0.80008  0.83786  1.0000
  H   H1298     1.0  0.28205  0.75210  0.87986  1.0000
  H   H1299     1.0  0.31465  0.76464  0.88590  1.0000
  H   H1300     1.0  0.32091  0.80706  0.88974  1.0000
  H   H1301     1.0  0.31551  0.82576  0.87585  1.0000
  H   H1302     1.0  0.26790  0.77126  0.86105  1.0000
  H   H1303     1.0  0.28931  0.76986  0.84738  1.0000
  H   H1304     1.0  0.33450  0.78753  0.85118  1.0000
  H   H1305     1.0  0.33883  0.81846  0.85684  1.0000
  H   H1306     1.0  0.35505  0.78378  0.87621  1.0000
  H   H1307     1.0  0.35974  0.81610  0.88088  1.0000
  H   H1308     1.0  0.29148  0.73535  0.85600  1.0000
  H   H1309     1.0  0.32525  0.74852  0.86103  1.0000
  H   H1310     1.0  0.30715  0.81583  0.84166  1.0000
  H   H1311     1.0  0.28934  0.82162  0.85654  1.0000
  H   H1312     1.0  0.26701  0.79942  0.87886  1.0000
  H   H1313     1.0  0.27259  0.77968  0.89268  1.0000
  H   H1314     1.0  0.26419  0.81377  0.90463  1.0000
  H   H1315     1.0  0.29696  0.81934  0.90859  1.0000
  H   H1316     1.0  0.29074  0.83870  0.89473  1.0000
  H   H1317     1.0  0.39920  0.81620  0.87026  1.0000
  H   H1318     1.0  0.38193  0.80101  0.85325  1.0000
  H   H1319     1.0  0.38698  0.83346  0.85834  1.0000
  H   H1320     1.0  0.31382  0.72066  0.88372  1.0000
  H   H1321     1.0  0.27977  0.70738  0.87861  1.0000
  H   H1322     1.0  0.30207  0.70207  0.86665  1.0000
  H   H1323     1.0  0.26857  0.81786  0.83185  1.0000
  H   H1324     1.0  0.26535  0.78546  0.82941  1.0000
  H   H1325     1.0  0.24784  0.79234  0.84421  1.0000
  N   N42       1.0  0.33928  0.71309  0.77856  1.0000
  C   C760      1.0  0.31033  0.69802  0.77620  1.0000
  C   C761      1.0  0.35201  0.69511  0.77770  1.0000
  C   C762      1.0  0.34354  0.72443  0.79425  1.0000
  C   C763      1.0  0.35166  0.73531  0.76770  1.0000
  C   C764      1.0  0.34571  0.72857  0.75083  1.0000
  C   C765      1.0  0.29506  0.71444  0.77603  1.0000
  C   C766      1.0  0.37214  0.73777  0.79986  1.0000
  C   C767      1.0  0.34145  0.67286  0.76587  1.0000
  H   H1326     1.0  0.45845  0.59806  0.74043  1.0000
  H   H1327     1.0  0.45748  0.66129  0.97441  1.0000
  C   C768      1.0  0.26723  0.69826  0.77054  1.0000
  C   C769      1.0  0.37436  0.74845  0.81578  1.0000
  H   H1328     1.0  0.30179  0.68297  0.78508  1.0000
  H   H1329     1.0  0.30549  0.68671  0.76561  1.0000
  H   H1330     1.0  0.37327  0.70655  0.77598  1.0000
  H   H1331     1.0  0.35006  0.68503  0.78861  1.0000
  H   H1332     1.0  0.33242  0.70893  0.80248  1.0000
  H   H1333     1.0  0.33593  0.73905  0.79529  1.0000
  H   H1334     1.0  0.34646  0.75124  0.77063  1.0000
  H   H1335     1.0  0.37313  0.74449  0.76884  1.0000
  H   H1336     1.0  0.40879  0.93407  0.76579  1.0000
  H   H1337     1.0  0.32500  0.71549  0.74862  1.0000
  H   H1338     1.0  0.29437  0.72167  0.78745  1.0000
  H   H1339     1.0  0.30386  0.73141  0.76851  1.0000
  H   H1340     1.0  0.38444  0.75416  0.79255  1.0000
  H   H1341     1.0  0.38022  0.72361  0.80019  1.0000
  H   H1342     1.0  0.35760  0.71923  0.74661  1.0000
  C   C770      1.0  0.39342  0.63146  0.94512  1.0000
  H   H1343     1.0  0.47623  0.76434  0.85457  1.0000
  H   H1344     1.0  0.22145  0.91401  0.94942  1.0000
  H   H1345     1.0  0.19310  0.68717  0.93155  1.0000
  C   C771      1.0  0.35322  0.95616  0.89827  1.0000
  H   H1346     1.0  0.25679  0.59778  0.73778  1.0000
  N   N43       1.0  0.06081  0.55157  0.96767  1.0000
  H   H1347     1.0  0.26692  0.69319  0.75850  1.0000
  H   H1348     1.0  0.25772  0.68007  0.77706  1.0000
  H   H1349     1.0  0.25594  0.70949  0.77198  1.0000
  H   H1350     1.0  0.36074  0.73334  0.82340  1.0000
  H   H1351     1.0  0.22028  0.57382  0.86964  1.0000
  H   H1352     1.0  0.26948  0.87874  0.97675  1.0000
  C   C772      1.0  0.27002  0.51969  0.83320  1.0000
  C   C773      1.0  0.25645  0.53592  0.81061  1.0000
  C   C774      1.0  0.41031  0.63915  0.84398  1.0000
  S   S181      1.0  0.48363  0.91308  0.96671  1.0000
  H   H1353     1.0  0.21187  0.57600  0.84245  1.0000
  C   C775      1.0  0.13855  0.64853  0.85100  1.0000
  H   H1354     1.0  0.14697  0.58409  0.83936  1.0000
  H   H1355     1.0  0.36272  0.66562  0.87591  1.0000
  C   C776      1.0  0.20026  0.51009  0.82487  1.0000
  C   C777      1.0  0.14484  0.59918  0.84630  1.0000
  C   C778      1.0  0.13828  0.66881  0.86204  1.0000
  H   H1356     1.0  0.43015  0.95735  0.87902  1.0000
  Fe  Fe89      1.0  0.44290  0.69223  0.78705  1.0000
  H   H1357     1.0  0.14029  0.66340  0.87375  1.0000
  H   H1358     1.0  0.41956  0.93308  0.92680  1.0000
  H   H1359     1.0  0.12576  0.59780  0.84294  1.0000
  C   C779      1.0  0.19876  0.68534  0.95611  1.0000
  C   C780      1.0  0.37067  0.95530  0.88531  1.0000
  H   H1360     1.0  0.22850  0.78010  0.94000  1.0000
  H   H1361     1.0  0.08206  0.57853  0.95023  1.0000
  C   C781      1.0  0.37465  0.67434  0.88613  1.0000
  H   H1362     1.0  0.41607  0.67074  0.90314  1.0000
  H   H1363     1.0  0.37851  0.65918  0.89159  1.0000
  H   H1364     1.0  0.36894  0.68961  0.90748  1.0000
  H   H1365     1.0  0.08488  0.58971  0.97715  1.0000
  H   H1366     1.0  0.08641  0.56987  0.92329  1.0000
  H   H1367     1.0  0.37604  0.51857  0.94845  1.0000
  H   H1368     1.0  0.38137  0.94085  0.85897  1.0000
  H   H1369     1.0  0.45458  0.61736  0.78959  1.0000
  H   H1370     1.0  0.46339  0.74822  0.94603  1.0000
  C   C782      1.0  0.35827  0.68166  0.89679  1.0000
  H   H1371     1.0  0.35322  0.69633  0.89157  1.0000
  C   C783      1.0  0.35018  0.59297  0.95079  1.0000
  H   H1372     1.0  0.12192  0.62976  0.85383  1.0000
  Fe  Fe90      1.0  0.11486  0.50152  0.93429  1.0000
  Fe  Fe91      1.0  0.49192  0.67034  0.94591  1.0000
  H   H1373     1.0  0.27855  0.56150  0.96078  1.0000
  C   C784      1.0  0.06168  0.54095  0.93934  1.0000
  H   H1374     1.0  0.15830  0.58499  0.86572  1.0000
  C   C785      1.0  0.15611  0.53192  0.86880  1.0000
  S   S182      1.0  0.42960  0.66820  0.76560  1.0000
  S   S183      1.0  0.18845  0.54483  0.89393  1.0000
  S   S184      1.0  0.48301  0.71900  0.79528  1.0000
  Fe  Fe92      1.0  0.46999  0.70222  0.81831  1.0000
  C   C786      1.0  0.25707  0.52603  0.78286  1.0000
  N   N44       1.0  0.33393  0.57066  0.96090  1.0000
  C   C787      1.0  0.14257  0.59039  0.86290  1.0000
  H   H1375     1.0  0.14382  0.60587  0.87075  1.0000
  H   H1376     1.0  0.23689  0.55620  0.83092  1.0000
  H   H1377     1.0  0.25942  0.74735  0.74697  1.0000
  H   H1378     1.0  0.32125  0.59655  0.97197  1.0000
  H   H1379     1.0  0.29741  0.58339  0.94643  1.0000
  H   H1380     1.0  0.38330  0.64118  0.93912  1.0000
  H   H1381     1.0  0.44184  0.73447  0.76047  1.0000
  C   C788      1.0  0.19318  0.79073  0.97262  1.0000
  H   H1382     1.0  0.42367  0.96449  0.93349  1.0000
  C   C789      1.0  0.27704  0.57333  0.83766  1.0000
  H   H1383     1.0  0.28716  0.57904  0.82676  1.0000
  H   H1384     1.0  0.29075  0.61953  0.73594  1.0000
  H   H1385     1.0  0.11922  0.70352  0.95921  1.0000
  H   H1386     1.0  0.26795  0.95804  0.97753  1.0000
  H   H1387     1.0  0.41299  0.78861  0.75765  1.0000
  H   H1388     1.0  0.33931  0.60389  0.94740  1.0000
  C   C790      1.0  0.25029  0.54913  0.83592  1.0000
  H   H1389     1.0  0.26019  0.52562  0.94112  1.0000
  H   H1390     1.0  0.38698  0.84004  0.75724  1.0000
  H   H1391     1.0  0.43615  0.94702  0.85252  1.0000
  C   C791      1.0  0.40326  0.91699  0.77322  1.0000
  H   H1392     1.0  0.24284  0.54242  0.84742  1.0000
  C   C792      1.0  0.30973  0.55295  0.95223  1.0000
  C   C793      1.0  0.44919  0.88482  0.74698  1.0000
  H   H1393     1.0  0.23847  0.76283  0.74895  1.0000
  C   C794      1.0  0.19326  0.87387  0.96674  1.0000
  H   H1394     1.0  0.04781  0.56629  0.94873  1.0000
  C   C795      1.0  0.48210  0.83258  0.79404  1.0000
  H   H1395     1.0  0.21939  0.66306  0.93476  1.0000
  H   H1396     1.0  0.36121  0.93460  0.88157  1.0000
  H   H1397     1.0  0.10041  0.57180  0.86466  1.0000
  C   C796      1.0  0.44616  0.64094  0.97703  1.0000
  H   H1398     1.0  0.34098  0.76308  0.74540  1.0000
  H   H1399     1.0  0.02607  0.57294  0.97340  1.0000
  H   H1400     1.0  0.39915  0.62028  0.93701  1.0000
  H   H1401     1.0  0.40916  0.93711  0.83962  1.0000
  C   C797      1.0  0.13374  0.72110  0.95349  1.0000
  H   H1402     1.0  0.12940  0.73761  0.95618  1.0000
  H   H1403     1.0  0.13190  0.71778  0.94117  1.0000
  H   H1404     1.0  0.28004  0.58500  0.73857  1.0000
  C   C798      1.0  0.13262  0.63716  0.97604  1.0000
  C   C799      1.0  0.11673  0.56663  0.86575  1.0000
  H   H1405     1.0  0.25127  0.89246  0.95799  1.0000
  S   S185      1.0  0.48604  0.78725  0.79477  1.0000
  H   H1406     1.0  0.45154  0.95950  0.92903  1.0000
  H   H1407     1.0  0.28954  0.56917  0.84563  1.0000
  C   C800      1.0  0.06668  0.55338  0.92382  1.0000
  H   H1408     1.0  0.11370  0.55077  0.85768  1.0000
  H   H1409     1.0  0.22132  0.86273  0.97491  1.0000
  C   C801      1.0  0.25218  0.91052  0.96304  1.0000
  H   H1410     1.0  0.11669  0.55938  0.87728  1.0000
  C   C802      1.0  0.23611  0.76694  0.93531  1.0000
  H   H1411     1.0  0.16233  0.73214  0.97093  1.0000
  C   C803      1.0  0.45379  0.91424  0.96850  1.0000
  H   H1412     1.0  0.35419  0.58551  0.94009  1.0000
  H   H1413     1.0  0.23480  0.73532  0.95926  1.0000
  H   H1414     1.0  0.36510  0.56611  0.97233  1.0000
  H   H1415     1.0  0.17229  0.77981  0.97211  1.0000
  H   H1416     1.0  0.31484  0.54883  0.94085  1.0000
  C   C804      1.0  0.06339  0.56069  0.95163  1.0000
  C   C805      1.0  0.42328  0.92346  0.98296  1.0000
  H   H1417     1.0  0.22111  0.69183  0.98279  1.0000
  C   C806      1.0  0.23013  0.92478  0.98273  1.0000
  C   C807      1.0  0.43780  0.84549  0.98056  1.0000
  H   H1418     1.0  0.26306  0.60262  0.83593  1.0000
  H   H1419     1.0  0.29978  0.53367  0.95784  1.0000
  C   C808      1.0  0.20663  0.80818  0.96101  1.0000
  C   C809      1.0  0.41315  0.82458  0.75022  1.0000
  C   C810      1.0  0.46976  0.75913  0.93537  1.0000
  H   H1420     1.0  0.33593  0.85842  0.75446  1.0000
  H   H1421     1.0  0.44213  0.64982  0.91166  1.0000
  C   C811      1.0  0.43051  0.96286  0.90952  1.0000
  H   H1422     1.0  0.19866  0.73435  0.93350  1.0000
  H   H1423     1.0  0.11959  0.66992  0.86102  1.0000
  C   C812      1.0  0.41010  0.80494  0.76243  1.0000
  H   H1424     1.0  0.44603  0.76637  0.85203  1.0000
  H   H1425     1.0  0.17676  0.69136  0.98223  1.0000
  H   H1426     1.0  0.16531  0.70126  0.94337  1.0000
  H   H1427     1.0  0.27819  0.53170  0.78314  1.0000
  C   C813      1.0  0.22778  0.50545  0.96640  1.0000
  H   H1428     1.0  0.45553  0.88677  0.77171  1.0000
  C   C814      1.0  0.25485  0.76282  0.74246  1.0000
  C   C815      1.0  0.24729  0.82044  0.97396  1.0000
  H   H1429     1.0  0.23805  0.76989  0.92300  1.0000
  H   H1430     1.0  0.38575  0.53710  0.96560  1.0000
  C   C816      1.0  0.21762  0.73857  0.93869  1.0000
  H   H1431     1.0  0.17471  0.74520  0.95283  1.0000
  C   C817      1.0  0.40873  0.94964  0.87808  1.0000
  H   H1432     1.0  0.16646  0.66193  0.94100  1.0000
  S   S186      1.0  0.48864  0.70621  0.93928  1.0000
  H   H1433     1.0  0.20385  0.52278  0.81496  1.0000
  C   C818      1.0  0.19805  0.65313  0.93632  1.0000
  C   C819      1.0  0.16775  0.70457  0.95564  1.0000
  H   H1434     1.0  0.15232  0.68668  0.96068  1.0000
  N   N45       1.0  0.19409  0.70818  0.96094  1.0000
  C   C820      1.0  0.21558  0.73363  0.95578  1.0000
  C   C821      1.0  0.33701  0.84943  0.74399  1.0000
  H   H1435     1.0  0.15056  0.65450  0.80375  1.0000
  H   H1436     1.0  0.06530  0.53879  0.91523  1.0000
  H   H1437     1.0  0.19216  0.72586  0.98217  1.0000
  C   C822      1.0  0.18796  0.67270  0.94060  1.0000
  H   H1438     1.0  0.22562  0.72638  0.93324  1.0000
  C   C823      1.0  0.16119  0.72749  0.95883  1.0000
  H   H1439     1.0  0.05255  0.59869  0.96373  1.0000
  H   H1440     1.0  0.04005  0.49925  0.95733  1.0000
  H   H1441     1.0  0.25564  0.77236  0.94018  1.0000
  N   N46       1.0  0.39906  0.96380  0.88878  1.0000
  H   H1442     1.0  0.40872  0.92404  0.78493  1.0000
  C   C824      1.0  0.22348  0.50414  0.82819  1.0000
  H   H1443     1.0  0.01945  0.53201  0.96334  1.0000
  H   H1444     1.0  0.24821  0.94430  0.95428  1.0000
  C   C825      1.0  0.48080  0.63956  0.74509  1.0000
  H   H1445     1.0  0.31686  0.93347  0.88628  1.0000
  H   H1446     1.0  0.22082  0.49642  0.83984  1.0000
  H   H1447     1.0  0.26614  0.51532  0.84537  1.0000
  H   H1448     1.0  0.26812  0.83181  0.97464  1.0000
  H   H1449     1.0  0.36859  0.96662  0.87574  1.0000
  H   H1450     1.0  0.45999  0.77186  0.93419  1.0000
  H   H1451     1.0  0.38189  0.90501  0.77269  1.0000
  H   H1452     1.0  0.46392  0.74491  0.92595  1.0000
  H   H1453     1.0  0.42338  0.82471  0.98095  1.0000
  H   H1454     1.0  0.19717  0.52024  0.83467  1.0000
  C   C826      1.0  0.47617  0.63818  0.76226  1.0000
  H   H1455     1.0  0.34983  0.94015  0.90618  1.0000
  H   H1456     1.0  0.14059  0.51942  0.87606  1.0000
  H   H1457     1.0  0.33489  0.53822  0.97242  1.0000
  H   H1458     1.0  0.37286  0.55965  0.94582  1.0000
  H   H1459     1.0  0.17395  0.83172  0.96947  1.0000
  N   N47       1.0  0.23866  0.90459  0.97802  1.0000
  H   H1460     1.0  0.08036  0.52704  0.96492  1.0000
  H   H1461     1.0  0.19321  0.63806  0.94511  1.0000
  C   C827      1.0  0.43125  0.95445  0.92569  1.0000
  H   H1462     1.0  0.43908  0.95285  0.90244  1.0000
  H   H1463     1.0  0.45665  0.90595  0.74466  1.0000
  H   H1464     1.0  0.47421  0.66351  0.78790  1.0000
  H   H1465     1.0  0.13246  0.52069  0.84871  1.0000
  C   C828      1.0  0.24736  0.49870  0.97131  1.0000
  C   C829      1.0  0.44810  0.92488  0.98124  1.0000
  S   S187      1.0  0.49057  0.68732  0.83471  1.0000
  H   H1466     1.0  0.43284  0.83157  0.74542  1.0000
  H   H1467     1.0  0.23460  0.97442  0.97550  1.0000
  H   H1468     1.0  0.15398  0.84520  0.96140  1.0000
  H   H1469     1.0  0.36193  0.97456  0.90470  1.0000
  C   C830      1.0  0.47450  0.62766  0.79438  1.0000
  H   H1470     1.0  0.49042  0.68857  0.76630  1.0000
  H   H1471     1.0  0.48486  0.61591  0.79179  1.0000
  H   H1472     1.0  0.31085  0.50650  0.83531  1.0000
  C   C831      1.0  0.21546  0.87813  0.97790  1.0000
  C   C832      1.0  0.47192  0.62866  0.81138  1.0000
  H   H1473     1.0  0.23612  0.72687  0.98277  1.0000
  C   C833      1.0  0.48847  0.65533  0.78763  1.0000
  H   H1474     1.0  0.16134  0.84909  0.98118  1.0000
  H   H1475     1.0  0.03674  0.61678  0.98386  1.0000
  H   H1476     1.0  0.39883  0.81429  0.74118  1.0000
  H   H1477     1.0  0.45674  0.87730  0.73762  1.0000
  H   H1478     1.0  0.43997  0.61654  0.73932  1.0000
  H   H1479     1.0  0.48100  0.65755  0.74045  1.0000
  H   H1480     1.0  0.22364  0.50877  0.79687  1.0000
  H   H1481     1.0  0.24787  0.51109  0.77396  1.0000
  H   H1482     1.0  0.38861  0.99003  0.93984  1.0000
  C   C834      1.0  0.03088  0.50134  0.96776  1.0000
  H   H1483     1.0  0.45725  0.84660  0.97851  1.0000
  H   H1484     1.0  0.00284  0.65346  0.98420  1.0000
  S   S188      1.0  0.15293  0.49937  0.93004  1.0000
  H   H1485     1.0  0.02792  0.52983  0.98211  1.0000
  C   C835      1.0  0.43318  0.73973  0.73748  1.0000
  H   H1486     1.0  0.41074  0.64546  0.73672  1.0000
  H   H1487     1.0  0.09629  0.50832  0.98442  1.0000
  C   C836      1.0  0.20667  0.78804  0.98506  1.0000
  H   H1488     1.0  0.24755  0.49761  0.80019  1.0000
  C   C837      1.0  0.27265  0.49670  0.82569  1.0000
  H   H1489     1.0  0.49258  0.79316  0.97812  1.0000
  C   C838      1.0  0.49221  0.89959  0.76082  1.0000
  Fe  Fe93      1.0  0.55122  0.37931  0.18767  1.0000
  Fe  Fe94      1.0  0.59688  0.37516  0.17376  1.0000
  S   S189      1.0  0.57466  0.35185  0.15386  1.0000
  S   S190      1.0  0.63794  0.38665  0.18057  1.0000
  Fe  Fe95      1.0  0.55644  0.37921  0.15290  1.0000
  Fe  Fe96      1.0  0.54371  0.33050  0.17070  1.0000
  S   S191      1.0  0.52140  0.28703  0.17089  1.0000
  S   S192      1.0  0.58193  0.40476  0.17157  1.0000
  S   S193      1.0  0.56778  0.35112  0.19062  1.0000
  Fe  Fe97      1.0  0.61973  0.24192  0.14135  1.0000
  S   S194      1.0  0.64324  0.24957  0.12037  1.0000
  S   S195      1.0  0.57625  0.22519  0.14095  1.0000
  Fe  Fe98      1.0  0.66589  0.25767  0.16252  1.0000
  S   S196      1.0  0.69380  0.26619  0.14325  1.0000
  S   S197      1.0  0.67831  0.27142  0.18665  1.0000
  Fe  Fe99      1.0  0.67168  0.28530  0.13249  1.0000
  S   S198      1.0  0.69029  0.32338  0.12023  1.0000
  Fe  Fe100     1.0  0.66363  0.22979  0.13216  1.0000
  S   S199      1.0  0.67395  0.20117  0.11965  1.0000
  S   S200      1.0  0.64600  0.27962  0.15227  1.0000
  S   S201      1.0  0.63789  0.21917  0.15258  1.0000
  S   S202      1.0  0.78795  0.40919  0.15389  1.0000
  Fe  Fe101     1.0  0.64254  0.19297  0.00712  1.0000
  C   C839      1.0  0.73327  0.46469  0.09769  1.0000
  S   S203      1.0  0.60327  0.19286  0.00725  1.0000
  Fe  Fe102     1.0  0.68534  0.19484  0.02762  1.0000
  S   S204      1.0  0.70499  0.18444  0.00858  1.0000
  S   S205      1.0  0.70305  0.19805  0.05095  1.0000
  Fe  Fe103     1.0  0.69799  0.21379  0.99496  1.0000
  C   C840      1.0  0.68055  0.27878  0.08112  1.0000
  Fe  Fe104     1.0  0.66451  0.15425  0.00228  1.0000
  C   C841      1.0  0.54645  0.46258  0.00128  1.0000
  S   S206      1.0  0.68060  0.22582  0.01443  1.0000
  S   S207      1.0  0.64589  0.16317  0.02193  1.0000
  S   S208      1.0  0.51726  0.36151  0.02845  1.0000
  H   H1490     1.0  0.84801  0.40751  0.98651  1.0000
  C   C842      1.0  0.57383  0.12076  0.02493  1.0000
  H   H1491     1.0  0.72432  0.44649  0.10430  1.0000
  C   C843      1.0  0.54964  0.23244  0.19578  1.0000
  C   C844      1.0  0.67444  0.10794  0.06691  1.0000
  Fe  Fe105     1.0  0.79488  0.49455  0.17314  1.0000
  H   H1492     1.0  0.82908  0.45318  0.08497  1.0000
  H   H1493     1.0  0.75468  0.33116  0.09305  1.0000
  C   C845      1.0  0.83534  0.44722  0.11559  1.0000
  C   C846      1.0  0.81524  0.45631  0.09232  1.0000
  H   H1494     1.0  0.82578  0.47677  0.09647  1.0000
  C   C847      1.0  0.62931  0.08082  0.00018  1.0000
  C   C848      1.0  0.61259  0.07734  0.01220  1.0000
  C   C849      1.0  0.59463  0.05204  0.01657  1.0000
  C   C850      1.0  0.59282  0.02977  0.00893  1.0000
  H   H1495     1.0  0.56675  0.24932  0.00442  1.0000
  H   H1496     1.0  0.52845  0.45396  0.00742  1.0000
  H   H1497     1.0  0.61385  0.09410  0.01831  1.0000
  H   H1498     1.0  0.58214  0.04962  0.02605  1.0000
  H   H1499     1.0  0.88607  0.40193  0.99528  1.0000
  C   C851      1.0  0.56824  0.22308  0.03003  1.0000
  C   C852      1.0  0.67941  0.19978  0.10011  1.0000
  C   C853      1.0  0.69516  0.18820  0.09578  1.0000
  C   C854      1.0  0.70154  0.18752  0.08070  1.0000
  C   C855      1.0  0.69168  0.19764  0.06948  1.0000
  C   C856      1.0  0.67522  0.20865  0.07361  1.0000
  C   C857      1.0  0.66925  0.20992  0.08894  1.0000
  H   H1500     1.0  0.70312  0.18032  0.10424  1.0000
  H   H1501     1.0  0.71449  0.17928  0.07773  1.0000
  H   H1502     1.0  0.66757  0.21663  0.06505  1.0000
  H   H1503     1.0  0.65683  0.21865  0.09212  1.0000
  C   C858      1.0  0.71783  0.34717  0.12930  1.0000
  C   C859      1.0  0.73342  0.34015  0.13845  1.0000
  C   C860      1.0  0.75554  0.35938  0.14545  1.0000
  C   C861      1.0  0.76140  0.38564  0.14398  1.0000
  C   C862      1.0  0.74572  0.39265  0.13490  1.0000
  C   C863      1.0  0.72432  0.37347  0.12730  1.0000
  H   H1504     1.0  0.72870  0.31995  0.13997  1.0000
  H   H1505     1.0  0.76771  0.35387  0.15237  1.0000
  H   H1506     1.0  0.74986  0.41278  0.13383  1.0000
  H   H1507     1.0  0.71225  0.37901  0.12031  1.0000
  H   H1508     1.0  0.76343  0.40372  0.09879  1.0000
  H   H1509     1.0  0.60408  0.38241  0.21932  1.0000
  C   C864      1.0  0.66686  0.25304  0.20331  1.0000
  C   C865      1.0  0.67335  0.26598  0.21725  1.0000
  H   H1510     1.0  0.78033  0.37154  0.11450  1.0000
  H   H1511     1.0  0.64734  0.21577  0.19242  1.0000
  H   H1512     1.0  0.68527  0.28675  0.21762  1.0000
  H   H1513     1.0  0.71043  0.31370  0.09034  1.0000
  C   C866      1.0  0.66158  0.09518  0.08192  1.0000
  C   C867      1.0  0.65889  0.41070  0.16861  1.0000
  C   C868      1.0  0.65324  0.41019  0.15330  1.0000
  C   C869      1.0  0.67139  0.42854  0.14371  1.0000
  C   C870      1.0  0.69485  0.44757  0.14953  1.0000
  C   C871      1.0  0.69965  0.44887  0.16494  1.0000
  C   C872      1.0  0.68179  0.43032  0.17445  1.0000
  H   H1514     1.0  0.63532  0.39515  0.14880  1.0000
  H   H1515     1.0  0.66749  0.42769  0.13180  1.0000
  H   H1516     1.0  0.71701  0.46444  0.16959  1.0000
  H   H1517     1.0  0.68560  0.43134  0.18638  1.0000
  C   C873      1.0  0.53728  0.27081  0.16223  1.0000
  C   C874      1.0  0.52291  0.24466  0.15827  1.0000
  C   C875      1.0  0.53510  0.23107  0.15153  1.0000
  C   C876      1.0  0.56174  0.24348  0.14876  1.0000
  C   C877      1.0  0.57613  0.26979  0.15251  1.0000
  C   C878      1.0  0.56393  0.28342  0.15934  1.0000
  H   H1518     1.0  0.60583  0.13774  0.05370  1.0000
  H   H1519     1.0  0.52386  0.21078  0.14857  1.0000
  H   H1520     1.0  0.59663  0.27958  0.15028  1.0000
  H   H1521     1.0  0.57519  0.30354  0.16256  1.0000
  H   H1522     1.0  0.55346  0.35663  0.21966  1.0000
  Fe  Fe106     1.0  0.78964  0.44903  0.15342  1.0000
  Fe  Fe107     1.0  0.52093  0.40127  0.02347  1.0000
  H   H1523     1.0  0.53923  0.30223  0.02486  1.0000
  H   H1524     1.0  0.52970  0.46833  0.07891  1.0000
  C   C879      1.0  0.49600  0.28172  0.12977  1.0000
  H   H1525     1.0  0.58483  0.28057  0.19759  1.0000
  N   N48       1.0  0.74627  0.29252  0.10071  1.0000
  H   H1526     1.0  0.51024  0.18134  0.00530  1.0000
  H   H1527     1.0  0.81325  0.37598  0.11365  1.0000
  C   C880      1.0  0.63312  0.07735  0.05362  1.0000
  H   H1528     1.0  0.66449  0.14386  0.05143  1.0000
  H   H1529     1.0  0.82451  0.43254  0.00471  1.0000
  H   H1530     1.0  0.73929  0.40952  0.08922  1.0000
  H   H1531     1.0  0.59773  0.02584  0.04792  1.0000
  C   C881      1.0  0.81113  0.43780  0.10566  1.0000
  N   N49       1.0  0.79125  0.45283  0.08369  1.0000
  C   C882      1.0  0.63758  0.45564  0.19328  1.0000
  C   C883      1.0  0.51846  0.29134  0.02164  1.0000
  C   C884      1.0  0.52427  0.28599  0.21240  1.0000
  H   H1532     1.0  0.80708  0.41828  0.10131  1.0000
  H   H1533     1.0  0.70114  0.12153  0.01340  1.0000
  H   H1534     1.0  0.50325  0.23388  0.18984  1.0000
  C   C885      1.0  0.54791  0.23254  0.00711  1.0000
  N   N50       1.0  0.55914  0.31351  0.10554  1.0000
  H   H1535     1.0  0.73844  0.35731  0.17341  1.0000
  C   C886      1.0  0.57326  0.30040  0.11363  1.0000
  C   C887      1.0  0.56974  0.34164  0.11020  1.0000
  C   C888      1.0  0.59871  0.35911  0.10696  1.0000
  C   C889      1.0  0.59752  0.30082  0.10585  1.0000
  C   C890      1.0  0.61309  0.29253  0.11659  1.0000
  C   C891      1.0  0.60619  0.38749  0.11080  1.0000
  H   H1536     1.0  0.58066  0.31986  0.08476  1.0000
  H   H1537     1.0  0.57895  0.30870  0.12515  1.0000
  H   H1538     1.0  0.55818  0.35065  0.10512  1.0000
  H   H1539     1.0  0.56762  0.34329  0.12243  1.0000
  H   H1540     1.0  0.60330  0.35824  0.09499  1.0000
  H   H1541     1.0  0.61097  0.35323  0.11411  1.0000
  H   H1542     1.0  0.55264  0.34312  0.08112  1.0000
  H   H1543     1.0  0.53107  0.31680  0.13225  1.0000
  H   H1544     1.0  0.59131  0.28700  0.09622  1.0000
  H   H1545     1.0  0.61079  0.32018  0.10151  1.0000
  H   H1546     1.0  0.60105  0.27245  0.12061  1.0000
  H   H1547     1.0  0.63022  0.29302  0.11069  1.0000
  H   H1548     1.0  0.62015  0.30600  0.12635  1.0000
  H   H1549     1.0  0.59485  0.39480  0.10384  1.0000
  H   H1550     1.0  0.60262  0.38963  0.12284  1.0000
  H   H1551     1.0  0.62714  0.39955  0.10858  1.0000
  H   H1552     1.0  0.53797  0.32680  0.05566  1.0000
  H   H1553     1.0  0.75809  0.31614  0.19705  1.0000
  H   H1554     1.0  0.66549  0.47266  0.13781  1.0000
  C   C892      1.0  0.74488  0.37779  0.08051  1.0000
  C   C893      1.0  0.70877  0.29497  0.08585  1.0000
  H   H1555     1.0  0.59289  0.12086  0.02684  1.0000
  H   H1556     1.0  0.71010  0.34732  0.21704  1.0000
  C   C894      1.0  0.69431  0.35241  0.21408  1.0000
  C   C895      1.0  0.72313  0.34686  0.18180  1.0000
  H   H1557     1.0  0.53507  0.48681  0.98780  1.0000
  H   H1558     1.0  0.72109  0.29919  0.07575  1.0000
  C   C896      1.0  0.54251  0.39635  0.10051  1.0000
  C   C897      1.0  0.75583  0.40489  0.08758  1.0000
  C   C898      1.0  0.56040  0.19855  0.21953  1.0000
  H   H1559     1.0  0.62795  0.31762  0.19396  1.0000
  H   H1560     1.0  0.62240  0.46562  0.16700  1.0000
  C   C899      1.0  0.71251  0.12886  0.02393  1.0000
  H   H1561     1.0  0.51054  0.45020  0.06310  1.0000
  H   H1562     1.0  0.80319  0.38923  0.21135  1.0000
  S   S209      1.0  0.65903  0.18254  0.98699  1.0000
  H   H1563     1.0  0.63565  0.12129  0.04226  1.0000
  S   S210      1.0  0.56149  0.43126  0.01786  1.0000
  S   S211      1.0  0.85814  0.49199  0.00581  1.0000
  H   H1564     1.0  0.54719  0.27675  0.00463  1.0000
  C   C900      1.0  0.64774  0.12439  0.05254  1.0000
  H   H1565     1.0  0.52163  0.27984  0.10505  1.0000
  H   H1566     1.0  0.55830  0.41579  0.10022  1.0000
  H   H1567     1.0  0.51034  0.34703  0.12474  1.0000
  H   H1568     1.0  0.54948  0.21541  0.00241  1.0000
  C   C901      1.0  0.56126  0.17913  0.98863  1.0000
  H   H1569     1.0  0.74336  0.32468  0.11170  1.0000
  H   H1570     1.0  0.60951  0.02774  0.06699  1.0000
  H   H1571     1.0  0.73029  0.26459  0.07128  1.0000
  C   C902      1.0  0.75961  0.34696  0.98924  1.0000
  C   C903      1.0  0.78428  0.33636  0.10937  1.0000
  H   H1572     1.0  0.51129  0.25553  0.22875  1.0000
  C   C904      1.0  0.64366  0.47176  0.16637  1.0000
  H   H1573     1.0  0.74119  0.44691  0.07831  1.0000
  H   H1574     1.0  0.73524  0.37740  0.06963  1.0000
  C   C905      1.0  0.63839  0.05341  0.05122  1.0000
  H   H1575     1.0  0.54977  0.24310  0.20624  1.0000
  H   H1576     1.0  0.62196  0.07441  0.06410  1.0000
  C   C906      1.0  0.60196  0.27669  0.19678  1.0000
  S   S212      1.0  0.71819  0.46994  0.13766  1.0000
  H   H1577     1.0  0.51438  0.30118  0.01201  1.0000
  H   H1578     1.0  0.49993  0.43679  0.09646  1.0000
  H   H1579     1.0  0.59566  0.11566  0.99865  1.0000
  H   H1580     1.0  0.74924  0.35374  0.20134  1.0000
  H   H1581     1.0  0.74356  0.48135  0.10549  1.0000
  C   C907      1.0  0.77477  0.46033  0.09383  1.0000
  H   H1582     1.0  0.67474  0.28991  0.07306  1.0000
  H   H1583     1.0  0.64471  0.09861  0.08469  1.0000
  H   H1584     1.0  0.70889  0.32870  0.17624  1.0000
  H   H1585     1.0  0.72282  0.24044  0.11068  1.0000
  H   H1586     1.0  0.83191  0.43326  0.12488  1.0000
  C   C908      1.0  0.78888  0.35411  0.98796  1.0000
  C   C909      1.0  0.56593  0.45511  0.00437  1.0000
  H   H1587     1.0  0.78623  0.38934  0.00831  1.0000
  H   H1588     1.0  0.57541  0.36961  0.99488  1.0000
  C   C910      1.0  0.62711  0.05861  0.99233  1.0000
  C   C911      1.0  0.75019  0.32349  0.18783  1.0000
  H   H1589     1.0  0.68608  0.12921  0.06897  1.0000
  C   C912      1.0  0.74540  0.24133  0.12988  1.0000
  H   H1590     1.0  0.65498  0.05486  0.05819  1.0000
  H   H1591     1.0  0.75347  0.24221  0.06001  1.0000
  H   H1592     1.0  0.53316  0.30753  0.21190  1.0000
  H   H1593     1.0  0.55765  0.38506  0.00338  1.0000
  C   C913      1.0  0.82601  0.41712  0.01145  1.0000
  N   N51       1.0  0.65673  0.10349  0.05352  1.0000
  H   H1594     1.0  0.66764  0.27407  0.09100  1.0000
  H   H1595     1.0  0.64296  0.05203  0.03925  1.0000
  C   C914      1.0  0.49975  0.21375  0.00373  1.0000
  H   H1596     1.0  0.54828  0.06443  0.99133  1.0000
  H   H1597     1.0  0.66329  0.31432  0.21982  1.0000
  C   C915      1.0  0.52232  0.20912  0.19400  1.0000
  H   H1598     1.0  0.76291  0.37950  0.22413  1.0000
  H   H1599     1.0  0.72889  0.14820  0.02169  1.0000
  C   C916      1.0  0.60897  0.03331  0.99660  1.0000
  N   N52       1.0  0.57288  0.22672  0.19552  1.0000
  C   C917      1.0  0.56769  0.20392  0.18526  1.0000
  C   C918      1.0  0.77994  0.39724  0.22789  1.0000
  C   C919      1.0  0.59552  0.25014  0.18912  1.0000
  C   C920      1.0  0.58036  0.22259  0.21114  1.0000
  C   C921      1.0  0.56059  0.10457  0.01104  1.0000
  C   C922      1.0  0.58970  0.19557  0.18402  1.0000
  H   H1600     1.0  0.76051  0.37186  0.07868  1.0000
  H   H1601     1.0  0.62131  0.41698  0.21723  1.0000
  C   C923      1.0  0.58214  0.17263  0.17320  1.0000
  H   H1602     1.0  0.56319  0.20825  0.17373  1.0000
  H   H1603     1.0  0.55028  0.18628  0.18871  1.0000
  H   H1604     1.0  0.76626  0.30507  0.07945  1.0000
  H   H1605     1.0  0.59221  0.25190  0.17696  1.0000
  H   H1606     1.0  0.61370  0.24791  0.18981  1.0000
  H   H1607     1.0  0.59928  0.22174  0.21104  1.0000
  H   H1608     1.0  0.55393  0.18057  0.21271  1.0000
  H   H1609     1.0  0.73720  0.24587  0.08482  1.0000
  H   H1610     1.0  0.60765  0.21156  0.17970  1.0000
  H   H1611     1.0  0.59390  0.18945  0.19507  1.0000
  H   H1612     1.0  0.51962  0.20158  0.18230  1.0000
  H   H1613     1.0  0.64578  0.13547  0.07581  1.0000
  H   H1614     1.0  0.53612  0.27901  0.20571  1.0000
  H   H1615     1.0  0.76110  0.43969  0.20164  1.0000
  C   C924      1.0  0.61457  0.02812  0.05497  1.0000
  H   H1616     1.0  0.56465  0.15551  0.17722  1.0000
  H   H1617     1.0  0.57824  0.17795  0.16182  1.0000
  H   H1618     1.0  0.59832  0.16721  0.17238  1.0000
  H   H1619     1.0  0.61482  0.30041  0.17670  1.0000
  H   H1620     1.0  0.63987  0.29570  0.18648  1.0000
  N   N53       1.0  0.71049  0.36377  0.18640  1.0000
  C   C925      1.0  0.70007  0.37044  0.17231  1.0000
  C   C926      1.0  0.73099  0.38883  0.19291  1.0000
  C   C927      1.0  0.72220  0.41027  0.19579  1.0000
  C   C928      1.0  0.68106  0.34702  0.16272  1.0000
  C   C929      1.0  0.66682  0.35519  0.15099  1.0000
  C   C930      1.0  0.74109  0.43163  0.20615  1.0000
  H   H1621     1.0  0.68952  0.38201  0.17511  1.0000
  H   H1622     1.0  0.71631  0.38302  0.16485  1.0000
  H   H1623     1.0  0.74799  0.39734  0.18524  1.0000
  H   H1624     1.0  0.83840  0.48537  0.03863  1.0000
  H   H1625     1.0  0.75973  0.48168  0.07964  1.0000
  H   H1626     1.0  0.70249  0.40231  0.20066  1.0000
  H   H1627     1.0  0.72160  0.41942  0.18500  1.0000
  H   H1628     1.0  0.69183  0.33814  0.15663  1.0000
  H   H1629     1.0  0.66633  0.33193  0.16981  1.0000
  H   H1630     1.0  0.65221  0.35989  0.15646  1.0000
  H   H1631     1.0  0.68061  0.37233  0.14463  1.0000
  H   H1632     1.0  0.65655  0.33895  0.14296  1.0000
  H   H1633     1.0  0.61613  0.10850  0.06921  1.0000
  H   H1634     1.0  0.74085  0.42398  0.21758  1.0000
  C   C931      1.0  0.51566  0.35764  0.11432  1.0000
  C   C932      1.0  0.79595  0.49287  0.21355  1.0000
  C   C933      1.0  0.65219  0.48167  0.13962  1.0000
  N   N54       1.0  0.80732  0.38247  0.99025  1.0000
  H   H1635     1.0  0.61931  0.07645  0.04461  1.0000
  C   C934      1.0  0.54737  0.23049  0.02439  1.0000
  S   S213      1.0  0.52397  0.35645  0.16884  1.0000
  H   H1636     1.0  0.81769  0.42230  0.21818  1.0000
  H   H1637     1.0  0.52718  0.43662  0.07476  1.0000
  H   H1638     1.0  0.73710  0.30662  0.18084  1.0000
  C   C935      1.0  0.62231  0.45348  0.11898  1.0000
  H   H1639     1.0  0.73954  0.22015  0.12913  1.0000
  H   H1640     1.0  0.73026  0.36355  0.08813  1.0000
  H   H1641     1.0  0.63639  0.16493  0.05854  1.0000
  H   H1642     1.0  0.61829  0.45550  0.19408  1.0000
  C   C936      1.0  0.52878  0.38493  0.08716  1.0000
  H   H1643     1.0  0.63492  0.43622  0.18944  1.0000
  H   H1644     1.0  0.76657  0.44632  0.10310  1.0000
  C   C937      1.0  0.76444  0.25996  0.06689  1.0000
  C   C938      1.0  0.80545  0.38978  0.00631  1.0000
  C   C939      1.0  0.82275  0.48563  0.04573  1.0000
  H   H1645     1.0  0.51591  0.25418  0.02757  1.0000
  C   C940      1.0  0.67037  0.33502  0.22313  1.0000
  C   C941      1.0  0.84579  0.37251  0.99693  1.0000
  C   C942      1.0  0.74309  0.25142  0.11440  1.0000
  C   C943      1.0  0.73536  0.33746  0.19440  1.0000
  H   H1646     1.0  0.85229  0.44878  0.10904  1.0000
  H   H1647     1.0  0.68739  0.12688  0.09646  1.0000
  C   C944      1.0  0.82221  0.42236  0.02783  1.0000
  H   H1648     1.0  0.72061  0.11543  0.02738  1.0000
  H   H1649     1.0  0.54106  0.10378  0.01020  1.0000
  H   H1650     1.0  0.60795  0.01651  0.99059  1.0000
  H   H1651     1.0  0.56428  0.20338  0.02591  1.0000
  H   H1652     1.0  0.80626  0.37514  0.01414  1.0000
  H   H1653     1.0  0.65808  0.49567  0.18719  1.0000
  C   C945      1.0  0.57205  0.19418  0.23405  1.0000
  H   H1654     1.0  0.64551  0.45422  0.16255  1.0000
  C   C946      1.0  0.74612  0.26358  0.07793  1.0000
  H   H1655     1.0  0.67806  0.26054  0.07556  1.0000
  N   N55       1.0  0.52582  0.23552  0.99970  1.0000
  H   H1656     1.0  0.58161  0.13731  0.99635  1.0000
  H   H1657     1.0  0.76655  0.42557  0.06682  1.0000
  H   H1658     1.0  0.61228  0.14965  0.07275  1.0000
  H   H1659     1.0  0.54980  0.17343  0.99872  1.0000
  H   H1660     1.0  0.53505  0.28756  0.13287  1.0000
  H   H1661     1.0  0.82146  0.47838  0.20442  1.0000
  H   H1662     1.0  0.67900  0.32839  0.19430  1.0000
  H   H1663     1.0  0.60988  0.27738  0.20823  1.0000
  H   H1664     1.0  0.53414  0.39551  0.07673  1.0000
  S   S214      1.0  0.82411  0.48540  0.16101  1.0000
  H   H1665     1.0  0.73230  0.24422  0.13795  1.0000
  C   C947      1.0  0.52206  0.27703  0.22868  1.0000
  H   H1666     1.0  0.63654  0.44611  0.11606  1.0000
  C   C948      1.0  0.62216  0.39987  0.22239  1.0000
  H   H1667     1.0  0.82399  0.40777  0.03524  1.0000
  H   H1668     1.0  0.83740  0.44196  0.03111  1.0000
  H   H1669     1.0  0.80294  0.42198  0.02938  1.0000
  C   C949      1.0  0.75208  0.46330  0.08612  1.0000
  C   C950      1.0  0.85886  0.48268  0.98705  1.0000
  H   H1670     1.0  0.57668  0.14107  0.02366  1.0000
  C   C951      1.0  0.67177  0.10493  0.03941  1.0000
  H   H1671     1.0  0.87376  0.45567  0.99298  1.0000
  H   H1672     1.0  0.65473  0.07384  0.08133  1.0000
  H   H1673     1.0  0.52854  0.21554  0.02852  1.0000
  C   C952      1.0  0.69549  0.13140  0.03629  1.0000
  H   H1674     1.0  0.69801  0.10209  0.09294  1.0000
  C   C953      1.0  0.68088  0.10567  0.09496  1.0000
  H   H1675     1.0  0.77239  0.28979  0.11747  1.0000
  H   H1676     1.0  0.58777  0.23724  0.02616  1.0000
  C   C954      1.0  0.71734  0.28114  0.09805  1.0000
  C   C955      1.0  0.52671  0.26160  0.00353  1.0000
  H   H1677     1.0  0.56013  0.27933  0.11532  1.0000
  C   C956      1.0  0.52505  0.29746  0.12699  1.0000
  H   H1678     1.0  0.68904  0.10066  0.06457  1.0000
  H   H1679     1.0  0.65883  0.10002  0.02937  1.0000
  H   H1680     1.0  0.67936  0.09024  0.03971  1.0000
  C   C957      1.0  0.75134  0.28091  0.11477  1.0000
  H   H1681     1.0  0.78006  0.25754  0.07298  1.0000
  H   H1682     1.0  0.62587  0.47064  0.11195  1.0000
  C   C958      1.0  0.76064  0.28873  0.08750  1.0000
  N   N56       1.0  0.65610  0.49351  0.15516  1.0000
  C   C959      1.0  0.50177  0.34633  0.10101  1.0000
  H   H1683     1.0  0.70775  0.13935  0.04644  1.0000
  H   H1684     1.0  0.68885  0.14572  0.03240  1.0000
  H   H1685     1.0  0.75586  0.24715  0.10676  1.0000
  H   H1686     1.0  0.79494  0.43586  0.11291  1.0000
  H   H1687     1.0  0.79086  0.41142  0.20519  1.0000
  C   C960      1.0  0.57688  0.11630  0.99672  1.0000
  H   H1688     1.0  0.67428  0.47648  0.18256  1.0000
  C   C961      1.0  0.66492  0.25216  0.23076  1.0000
  H   H1689     1.0  0.83976  0.47906  0.06554  1.0000
  C   C962      1.0  0.79914  0.40557  0.21491  1.0000
  H   H1690     1.0  0.64658  0.45943  0.20462  1.0000
  H   H1691     1.0  0.70890  0.26021  0.09514  1.0000
  H   H1692     1.0  0.76568  0.25135  0.13412  1.0000
  H   H1693     1.0  0.55468  0.00163  0.17219  1.0000
  H   H1694     1.0  0.67144  0.09576  0.10548  1.0000
  S   S215      1.0  0.65355  0.11221  0.99468  1.0000
  C   C963      1.0  0.55372  0.36868  0.22897  1.0000
  S   S216      1.0  0.78276  0.46651  0.13261  1.0000
  C   C964      1.0  0.51644  0.44854  0.07476  1.0000
  H   H1695     1.0  0.54151  0.29776  0.05933  1.0000
  H   H1696     1.0  0.55158  0.24961  0.02945  1.0000
  H   H1697     1.0  0.79502  0.37178  0.09654  1.0000
  H   H1698     1.0  0.52434  0.31203  0.08113  1.0000
  H   H1699     1.0  0.55073  0.24565  0.18640  1.0000
  S   S217      1.0  0.54323  0.39835  0.20819  1.0000
  C   C965      1.0  0.75602  0.32133  0.10350  1.0000
  H   H1700     1.0  0.76658  0.33697  0.18086  1.0000
  H   H1701     1.0  0.52013  0.31007  0.10524  1.0000
  H   H1702     1.0  0.72201  0.31311  0.98823  1.0000
  C   C966      1.0  0.56036  0.31063  0.08875  1.0000
  H   H1703     1.0  0.79770  0.33123  0.10284  1.0000
  C   C967      1.0  0.62245  0.29896  0.18792  1.0000
  H   H1704     1.0  0.73546  0.44771  0.20692  1.0000
  H   H1705     1.0  0.71990  0.32326  0.20158  1.0000
  C   C968      1.0  0.79370  0.36571  0.10842  1.0000
  C   C969      1.0  0.53620  0.38274  0.11415  1.0000
  H   H1706     1.0  0.77318  0.27683  0.05924  1.0000
  S   S218      1.0  0.55446  0.39795  0.13058  1.0000
  H   H1707     1.0  0.82977  0.46314  0.22898  1.0000
  H   H1708     1.0  0.60467  0.46124  0.99904  1.0000
  C   C970      1.0  0.68820  0.34953  0.19698  1.0000
  Fe  Fe108     1.0  0.75742  0.47754  0.14676  1.0000
  H   H1709     1.0  0.63872  0.39741  0.21766  1.0000
  H   H1710     1.0  0.74181  0.28523  0.12451  1.0000
  H   H1711     1.0  0.56160  0.11223  0.03493  1.0000
  C   C971      1.0  0.54550  0.32202  0.07899  1.0000
  C   C972      1.0  0.54901  0.31867  0.06228  1.0000
  C   C973      1.0  0.51176  0.26316  0.01764  1.0000
  H   H1712     1.0  0.56978  0.32922  0.05918  1.0000
  C   C974      1.0  0.53089  0.29986  0.10992  1.0000
  H   H1713     1.0  0.55268  0.28963  0.08577  1.0000
  H   H1714     1.0  0.78298  0.46925  0.06371  1.0000
  C   C975      1.0  0.76829  0.49403  0.99399  1.0000
  H   H1715     1.0  0.50647  0.29182  0.03124  1.0000
  H   H1716     1.0  0.56836  0.22284  0.04248  1.0000
  C   C976      1.0  0.63247  0.12725  0.06605  1.0000
  H   H1717     1.0  0.73886  0.38541  0.20353  1.0000
  C   C977      1.0  0.79988  0.47179  0.07081  1.0000
  S   S219      1.0  0.76138  0.45663  0.16695  1.0000
  C   C978      1.0  0.65193  0.22606  0.20303  1.0000
  C   C979      1.0  0.54892  0.39009  0.22657  1.0000
  H   H1718     1.0  0.61867  0.01133  0.05265  1.0000
  C   C980      1.0  0.50829  0.35981  0.08733  1.0000
  H   H1719     1.0  0.67264  0.35578  0.19528  1.0000
  C   C981      1.0  0.62108  0.14604  0.06250  1.0000
  H   H1720     1.0  0.70029  0.37264  0.21792  1.0000
  H   H1721     1.0  0.79287  0.34200  0.99630  1.0000
  H   H1722     1.0  0.80436  0.47705  0.03919  1.0000
  H   H1723     1.0  0.78536  0.33182  0.12138  1.0000
  C   C982      1.0  0.64369  0.21221  0.21656  1.0000
  H   H1724     1.0  0.58387  0.23957  0.21843  1.0000
  H   H1725     1.0  0.51947  0.19299  0.20166  1.0000
  H   H1726     1.0  0.63253  0.19128  0.21623  1.0000
  H   H1727     1.0  0.88189  0.37010  0.00066  1.0000
  H   H1728     1.0  0.77937  0.28946  0.09136  1.0000
  H   H1729     1.0  0.78697  0.47928  0.09948  1.0000
  C   C983      1.0  0.58941  0.46673  0.99655  1.0000
  H   H1730     1.0  0.61944  0.44248  0.14203  1.0000
  C   C984      1.0  0.49545  0.18581  0.99978  1.0000
  H   H1731     1.0  0.83977  0.46649  0.12062  1.0000
  H   H1732     1.0  0.55828  0.08463  0.01302  1.0000
  H   H1733     1.0  0.84486  0.37704  0.00892  1.0000
  H   H1734     1.0  0.70733  0.28178  0.10860  1.0000
  H   H1735     1.0  0.81520  0.44992  0.05691  1.0000
  H   H1736     1.0  0.84598  0.41913  0.01044  1.0000
  S   S220      1.0  0.49852  0.40235  0.04372  1.0000
  H   H1737     1.0  0.65456  0.34076  0.22129  1.0000
  C   C985      1.0  0.55798  0.37299  0.99375  1.0000
  H   H1738     1.0  0.74678  0.48364  0.99430  1.0000
  H   H1739     1.0  0.50229  0.23489  0.16039  1.0000
  H   H1740     1.0  0.49614  0.18324  0.98751  1.0000
  H   H1741     1.0  0.79085  0.41800  0.07423  1.0000
  C   C986      1.0  0.87429  0.38074  0.99334  1.0000
  H   H1742     1.0  0.83509  0.35113  0.99534  1.0000
  C   C987      1.0  0.81173  0.48021  0.21437  1.0000
  C   C988      1.0  0.82032  0.47030  0.06009  1.0000
  C   C989      1.0  0.62438  0.46058  0.13561  1.0000
  C   C990      1.0  0.81631  0.47147  0.22829  1.0000
  H   H1743     1.0  0.51033  0.28501  0.23466  1.0000
  H   H1744     1.0  0.77171  0.26512  0.99429  1.0000
  C   C991      1.0  0.65511  0.47672  0.18254  1.0000
  C   C992      1.0  0.55027  0.48124  0.99022  1.0000
  C   C993      1.0  0.50095  0.21730  0.19707  1.0000
  H   H1745     1.0  0.77399  0.41290  0.22985  1.0000
  C   C994      1.0  0.77681  0.42553  0.07744  1.0000
  H   H1746     1.0  0.54048  0.35393  0.99411  1.0000
  H   H1747     1.0  0.74807  0.30608  0.99420  1.0000
  C   C995      1.0  0.65018  0.22513  0.23051  1.0000
  C   C996      1.0  0.58829  0.18886  0.98959  1.0000
  H   H1748     1.0  0.75507  0.35154  0.00061  1.0000
  H   H1749     1.0  0.54335  0.20163  0.22260  1.0000
  H   H1750     1.0  0.60250  0.43811  0.11641  1.0000
  H   H1751     1.0  0.51817  0.26819  0.99419  1.0000
  H   H1752     1.0  0.71758  0.46748  0.09194  1.0000
  H   H1753     1.0  0.50141  0.22298  0.20900  1.0000
  S   S221      1.0  0.57112  0.99831  0.01584  1.0000
  C   C997      1.0  0.83436  0.38650  0.98658  1.0000
  H   H1754     1.0  0.60946  0.46721  0.13801  1.0000
  H   H1755     1.0  0.80808  0.49204  0.07515  1.0000
  H   H1756     1.0  0.50467  0.27823  0.20719  1.0000
  H   H1757     1.0  0.49570  0.21383  0.01584  1.0000
  C   C998      1.0  0.78373  0.49540  0.22664  1.0000
  H   H1758     1.0  0.56120  0.28042  0.22888  1.0000
  H   H1759     1.0  0.53851  0.12031  0.98668  1.0000
  H   H1760     1.0  0.81567  0.30013  0.98849  1.0000
  H   H1761     1.0  0.77623  0.48402  0.00156  1.0000
  H   H1762     1.0  0.69332  0.49387  0.15828  1.0000
  H   H1763     1.0  0.58825  0.18934  0.23151  1.0000
  H   H1764     1.0  0.55828  0.30821  0.23529  1.0000
  H   H1765     1.0  0.52326  0.08578  0.98658  1.0000
  C   C999      1.0  0.74273  0.31800  0.98644  1.0000
  H   H1766     1.0  0.67531  0.33697  0.23527  1.0000
  H   H1767     1.0  0.53865  0.40830  0.98569  1.0000
  H   H1768     1.0  0.58078  0.07619  0.98565  1.0000
  H   H1769     1.0  0.58518  0.14170  0.45582  1.0000
  H   H1770     1.0  0.63431  0.46282  0.25094  1.0000
  Fe  Fe109     1.0  0.68254  0.17387  0.44430  1.0000
  S   S222      1.0  0.67277  0.20022  0.43001  1.0000
  S   S223      1.0  0.71501  0.18938  0.46235  1.0000
  Fe  Fe110     1.0  0.63527  0.12371  0.43154  1.0000
  S   S224      1.0  0.62267  0.14833  0.41707  1.0000
  S   S225      1.0  0.60550  0.08012  0.43060  1.0000
  Fe  Fe111     1.0  0.66469  0.17111  0.41131  1.0000
  S   S226      1.0  0.68139  0.18402  0.38782  1.0000
  Fe  Fe112     1.0  0.63173  0.17492  0.43701  1.0000
  S   S227      1.0  0.60874  0.19522  0.44570  1.0000
  S   S228      1.0  0.67749  0.14584  0.42507  1.0000
  S   S229      1.0  0.64138  0.14930  0.45192  1.0000
  Fe  Fe113     1.0  0.55198  0.39498  0.32847  1.0000
  S   S230      1.0  0.56296  0.41895  0.30723  1.0000
  Fe  Fe114     1.0  0.59601  0.38051  0.32574  1.0000
  S   S231      1.0  0.61162  0.40358  0.30492  1.0000
  S   S232      1.0  0.61534  0.35861  0.33672  1.0000
  Fe  Fe115     1.0  0.60377  0.43393  0.31619  1.0000
  S   S233      1.0  0.63119  0.47658  0.31527  1.0000
  Fe  Fe116     1.0  0.57035  0.38699  0.29695  1.0000
  S   S234      1.0  0.59226  0.41260  0.33796  1.0000
  Fe  Fe117     1.0  0.64261  0.21172  0.30549  1.0000
  S   S235      1.0  0.61390  0.20924  0.28749  1.0000
  S   S236      1.0  0.62807  0.18175  0.32443  1.0000
  Fe  Fe118     1.0  0.68280  0.26308  0.29326  1.0000
  S   S237      1.0  0.65724  0.26558  0.27487  1.0000
  S   S238      1.0  0.72345  0.29443  0.29709  1.0000
  Fe  Fe119     1.0  0.62639  0.25128  0.29239  1.0000
  S   S239      1.0  0.59503  0.26414  0.29368  1.0000
  Fe  Fe120     1.0  0.64681  0.22357  0.27103  1.0000
  S   S240      1.0  0.63962  0.20671  0.24724  1.0000
  S   S241      1.0  0.65287  0.25318  0.31124  1.0000
  S   S242      1.0  0.67460  0.22168  0.28849  1.0000
  H   H1771     1.0  0.62429  0.49061  0.47307  1.0000
  C   C1000     1.0  0.80461  0.47455  0.24141  1.0000
  Fe  Fe121     1.0  0.75494  0.43863  0.30342  1.0000
  S   S243      1.0  0.71941  0.40113  0.30697  1.0000
  C   C1001     1.0  0.72286  0.32424  0.30001  1.0000
  C   C1002     1.0  0.74592  0.34700  0.30233  1.0000
  C   C1003     1.0  0.74525  0.37098  0.30420  1.0000
  C   C1004     1.0  0.72144  0.37196  0.30410  1.0000
  C   C1005     1.0  0.69848  0.34908  0.30203  1.0000
  C   C1006     1.0  0.69921  0.32537  0.29981  1.0000
  H   H1772     1.0  0.76423  0.34605  0.30268  1.0000
  H   H1773     1.0  0.76301  0.38852  0.30608  1.0000
  H   H1774     1.0  0.67997  0.34954  0.30232  1.0000
  H   H1775     1.0  0.68139  0.30789  0.29806  1.0000
  C   C1007     1.0  0.78761  0.46775  0.45426  1.0000
  H   H1776     1.0  0.57571  0.46608  0.42578  1.0000
  H   H1777     1.0  0.62520  0.17423  0.47977  1.0000
  H   H1778     1.0  0.73459  0.38658  0.23984  1.0000
  H   H1779     1.0  0.60946  0.34004  0.39532  1.0000
  H   H1780     1.0  0.63716  0.32153  0.38489  1.0000
  C   C1008     1.0  0.58534  0.37289  0.37279  1.0000
  C   C1009     1.0  0.52138  0.29852  0.28702  1.0000
  C   C1010     1.0  0.67494  0.47080  0.30763  1.0000
  H   H1781     1.0  0.59432  0.37081  0.36219  1.0000
  H   H1782     1.0  0.73506  0.48787  0.26062  1.0000
  H   H1783     1.0  0.71040  0.46806  0.30274  1.0000
  H   H1784     1.0  0.66387  0.45041  0.31005  1.0000
  C   C1011     1.0  0.60968  0.33142  0.32558  1.0000
  C   C1012     1.0  0.58490  0.31611  0.31975  1.0000
  C   C1013     1.0  0.58049  0.29496  0.31039  1.0000
  C   C1014     1.0  0.60090  0.28930  0.30655  1.0000
  C   C1015     1.0  0.62562  0.30422  0.31265  1.0000
  C   C1016     1.0  0.62997  0.32523  0.32225  1.0000
  H   H1785     1.0  0.56900  0.32030  0.32262  1.0000
  H   H1786     1.0  0.56119  0.28285  0.30619  1.0000
  H   H1787     1.0  0.64141  0.29987  0.30978  1.0000
  H   H1788     1.0  0.64916  0.33719  0.32669  1.0000
  H   H1789     1.0  0.55304  0.41041  0.26316  1.0000
  C   C1017     1.0  0.85055  0.43076  0.47114  1.0000
  H   H1790     1.0  0.66165  0.36698  0.28408  1.0000
  C   C1018     1.0  0.67359  0.22655  0.46929  1.0000
  C   C1019     1.0  0.85725  0.46601  0.45396  1.0000
  C   C1020     1.0  0.84098  0.44191  0.46032  1.0000
  H   H1791     1.0  0.53200  0.15054  0.44211  1.0000
  H   H1792     1.0  0.82087  0.43183  0.45688  1.0000
  C   C1021     1.0  0.59922  0.04658  0.43062  1.0000
  C   C1022     1.0  0.57338  0.02710  0.42948  1.0000
  H   H1793     1.0  0.65567  0.41496  0.32981  1.0000
  H   H1794     1.0  0.82231  0.28163  0.46644  1.0000
  C   C1023     1.0  0.61293  0.01205  0.43158  1.0000
  C   C1024     1.0  0.61899  0.03880  0.43160  1.0000
  H   H1795     1.0  0.55785  0.03272  0.42865  1.0000
  H   H1796     1.0  0.55710  0.17766  0.24030  1.0000
  H   H1797     1.0  0.72877  0.44731  0.36641  1.0000
  H   H1798     1.0  0.63896  0.05337  0.43243  1.0000
  C   C1025     1.0  0.66583  0.18366  0.37049  1.0000
  C   C1026     1.0  0.63906  0.17518  0.36922  1.0000
  C   C1027     1.0  0.62775  0.17497  0.35509  1.0000
  C   C1028     1.0  0.64312  0.18379  0.34216  1.0000
  C   C1029     1.0  0.66983  0.19219  0.34348  1.0000
  C   C1030     1.0  0.68107  0.19202  0.35753  1.0000
  H   H1799     1.0  0.62705  0.16868  0.37908  1.0000
  H   H1800     1.0  0.60700  0.16808  0.35416  1.0000
  H   H1801     1.0  0.68175  0.19819  0.33356  1.0000
  H   H1802     1.0  0.70173  0.19823  0.35835  1.0000
  C   C1031     1.0  0.74002  0.21700  0.47179  1.0000
  H   H1803     1.0  0.80943  0.45695  0.47746  1.0000
  H   H1804     1.0  0.59766  0.40032  0.39179  1.0000
  H   H1805     1.0  0.79767  0.48644  0.37712  1.0000
  H   H1806     1.0  0.53660  0.19617  0.27186  1.0000
  C   C1032     1.0  0.74589  0.24319  0.46902  1.0000
  C   C1033     1.0  0.79230  0.39299  0.24242  1.0000
  H   H1807     1.0  0.50383  0.12291  0.43493  1.0000
  H   H1808     1.0  0.62286  0.35404  0.37730  1.0000
  C   C1034     1.0  0.53227  0.23278  0.46637  1.0000
  H   H1809     1.0  0.53146  0.34511  0.37638  1.0000
  H   H1810     1.0  0.53174  0.26803  0.28257  1.0000
  C   C1035     1.0  0.95552  0.29240  0.46664  1.0000
  H   H1811     1.0  0.61466  0.48413  0.26712  1.0000
  C   C1036     1.0  0.92299  0.35182  0.47089  1.0000
  Fe  Fe122     1.0  0.80590  0.48192  0.31513  1.0000
  H   H1812     1.0  0.68199  0.48105  0.24915  1.0000
  H   H1813     1.0  0.67018  0.26229  0.24140  1.0000
  C   C1037     1.0  0.49635  0.20819  0.43985  1.0000
  C   C1038     1.0  0.58496  0.17867  0.45920  1.0000
  C   C1039     1.0  0.57678  0.15228  0.46196  1.0000
  H   H1814     1.0  0.80489  0.38358  0.23939  1.0000
  N   N57       1.0  0.77398  0.37779  0.25475  1.0000
  S   S244      1.0  0.76420  0.47211  0.31915  1.0000
  H   H1815     1.0  0.68444  0.26736  0.46481  1.0000
  C   C1040     1.0  0.79031  0.37598  0.26760  1.0000
  C   C1041     1.0  0.75844  0.39141  0.26029  1.0000
  H   H1816     1.0  0.67937  0.41985  0.35322  1.0000
  H   H1817     1.0  0.61947  0.38656  0.38817  1.0000
  C   C1042     1.0  0.81135  0.40217  0.27390  1.0000
  C   C1043     1.0  0.72118  0.40318  0.25716  1.0000
  C   C1044     1.0  0.82224  0.39846  0.28887  1.0000
  C   C1045     1.0  0.57382  0.19215  0.46717  1.0000
  H   H1818     1.0  0.63369  0.48203  0.43168  1.0000
  H   H1819     1.0  0.80025  0.36399  0.26430  1.0000
  H   H1820     1.0  0.77775  0.36579  0.27722  1.0000
  H   H1821     1.0  0.75345  0.38711  0.27236  1.0000
  H   H1822     1.0  0.77047  0.41286  0.25990  1.0000
  H   H1823     1.0  0.50546  0.16838  0.46518  1.0000
  C   C1046     1.0  0.65324  0.40442  0.26756  1.0000
  C   C1047     1.0  0.60866  0.33641  0.38308  1.0000
  H   H1824     1.0  0.66223  0.39497  0.26029  1.0000
  H   H1825     1.0  0.58051  0.21267  0.46521  1.0000
  C   C1048     1.0  0.53617  0.24870  0.25226  1.0000
  C   C1049     1.0  0.54871  0.40515  0.23902  1.0000
  H   H1826     1.0  0.57356  0.42530  0.43953  1.0000
  S   S245      1.0  0.51492  0.43596  0.48300  1.0000
  H   H1827     1.0  0.58732  0.27934  0.24989  1.0000
  H   H1828     1.0  0.71785  0.36481  0.25470  1.0000
  H   H1829     1.0  0.56617  0.38257  0.44887  1.0000
  H   H1830     1.0  0.80678  0.39101  0.29746  1.0000
  H   H1831     1.0  0.83078  0.38467  0.28760  1.0000
  N   N58       1.0  0.61619  0.09143  0.37532  1.0000
  C   C1050     1.0  0.60354  0.09909  0.38789  1.0000
  C   C1051     1.0  0.64528  0.10565  0.37733  1.0000
  C   C1052     1.0  0.60947  0.10084  0.36088  1.0000
  C   C1053     1.0  0.60702  0.06237  0.37426  1.0000
  C   C1054     1.0  0.59926  0.04681  0.38918  1.0000
  C   C1055     1.0  0.57387  0.08974  0.38607  1.0000
  C   C1056     1.0  0.62357  0.09863  0.34659  1.0000
  C   C1057     1.0  0.65675  0.09929  0.39154  1.0000
  C   C1058     1.0  0.68609  0.11612  0.39243  1.0000
  H   H1832     1.0  0.70718  0.42148  0.34335  1.0000
  C   C1059     1.0  0.56108  0.08993  0.40100  1.0000
  C   C1060     1.0  0.61153  0.10385  0.33247  1.0000
  H   H1833     1.0  0.61259  0.12065  0.38898  1.0000
  H   H1834     1.0  0.60716  0.09235  0.39887  1.0000
  H   H1835     1.0  0.65522  0.10129  0.36788  1.0000
  H   H1836     1.0  0.65182  0.12708  0.37714  1.0000
  H   H1837     1.0  0.61357  0.12162  0.36200  1.0000
  H   H1838     1.0  0.58831  0.08999  0.35848  1.0000
  H   H1839     1.0  0.58966  0.05313  0.36681  1.0000
  H   H1840     1.0  0.62205  0.05821  0.36873  1.0000
  H   H1841     1.0  0.58064  0.04551  0.39337  1.0000
  H   H1842     1.0  0.61374  0.05586  0.39822  1.0000
  H   H1843     1.0  0.57033  0.10293  0.37832  1.0000
  H   H1844     1.0  0.56404  0.06983  0.38128  1.0000
  H   H1845     1.0  0.62267  0.07901  0.34555  1.0000
  H   H1846     1.0  0.64421  0.11342  0.34686  1.0000
  H   H1847     1.0  0.64818  0.10268  0.40191  1.0000
  H   H1848     1.0  0.65361  0.07882  0.39114  1.0000
  H   H1849     1.0  0.69081  0.13707  0.39280  1.0000
  H   H1850     1.0  0.69388  0.11142  0.40278  1.0000
  H   H1851     1.0  0.69580  0.11246  0.38262  1.0000
  H   H1852     1.0  0.68562  0.45890  0.27493  1.0000
  H   H1853     1.0  0.72867  0.29741  0.24609  1.0000
  H   H1854     1.0  0.63323  0.34696  0.26202  1.0000
  H   H1855     1.0  0.56990  0.10974  0.40600  1.0000
  H   H1856     1.0  0.54007  0.08374  0.39919  1.0000
  H   H1857     1.0  0.56324  0.07623  0.40898  1.0000
  H   H1858     1.0  0.61227  0.12348  0.33306  1.0000
  H   H1859     1.0  0.62257  0.10310  0.32246  1.0000
  H   H1860     1.0  0.59106  0.08902  0.33108  1.0000
  H   H1861     1.0  0.54567  0.18968  0.48386  1.0000
  H   H1862     1.0  0.59226  0.39728  0.46229  1.0000
  H   H1863     1.0  0.53044  0.26198  0.48127  1.0000
  H   H1864     1.0  0.59897  0.39982  0.44234  1.0000
  H   H1865     1.0  0.70511  0.31002  0.24826  1.0000
  H   H1866     1.0  0.51488  0.24127  0.25377  1.0000
  H   H1867     1.0  0.70257  0.39800  0.25121  1.0000
  H   H1868     1.0  0.53829  0.34439  0.42263  1.0000
  H   H1869     1.0  0.57948  0.21175  0.24135  1.0000
  H   H1870     1.0  0.61416  0.01907  0.38358  1.0000
  H   H1871     1.0  0.68274  0.47371  0.36323  1.0000
  C   C1061     1.0  0.69116  0.42718  0.34298  1.0000
  C   C1062     1.0  0.69915  0.46999  0.36712  1.0000
  H   H1872     1.0  0.61747  0.31132  0.36814  1.0000
  H   H1873     1.0  0.59773  0.32504  0.24456  1.0000
  C   C1063     1.0  0.60806  0.44885  0.45364  1.0000
  H   H1874     1.0  0.59467  0.44926  0.42092  1.0000
  H   H1875     1.0  0.65690  0.47666  0.46205  1.0000
  H   H1876     1.0  0.94482  0.27088  0.46585  1.0000
  C   C1064     1.0  0.50421  0.37525  0.37400  1.0000
  C   C1065     1.0  0.59432  0.31820  0.25632  1.0000
  S   S246      1.0  0.51109  0.37604  0.45545  1.0000
  C   C1066     1.0  0.63003  0.49465  0.46107  1.0000
  H   H1877     1.0  0.58503  0.32863  0.26240  1.0000
  C   C1067     1.0  0.59564  0.01903  0.38697  1.0000
  C   C1068     1.0  0.69542  0.47276  0.25198  1.0000
  N   N59       1.0  0.71760  0.47355  0.35442  1.0000
  H   H1878     1.0  0.88415  0.43492  0.48371  1.0000
  H   H1879     1.0  0.50743  0.12911  0.45482  1.0000
  H   H1880     1.0  0.62129  0.48484  0.40383  1.0000
  H   H1881     1.0  0.93571  0.34663  0.46377  1.0000
  C   C1069     1.0  0.54926  0.28672  0.23608  1.0000
  C   C1070     1.0  0.83075  0.26852  0.46287  1.0000
  H   H1882     1.0  0.61535  0.46496  0.28286  1.0000
  H   H1883     1.0  0.65678  0.17655  0.47997  1.0000
  H   H1884     1.0  0.56345  0.34675  0.24502  1.0000
  H   H1885     1.0  0.54504  0.22320  0.46537  1.0000
  C   C1071     1.0  0.65115  0.42514  0.24412  1.0000
  C   C1072     1.0  0.55422  0.17922  0.47772  1.0000
  H   H1886     1.0  0.49312  0.36652  0.39724  1.0000
  H   H1887     1.0  0.91497  0.30269  0.46065  1.0000
  H   H1888     1.0  0.69312  0.23092  0.47360  1.0000
  H   H1889     1.0  0.56207  0.42216  0.36214  1.0000
  H   H1890     1.0  0.52754  0.19704  0.25258  1.0000
  H   H1891     1.0  0.69024  0.25000  0.44961  1.0000
  H   H1892     1.0  0.57989  0.46940  0.46750  1.0000
  H   H1893     1.0  0.66936  0.39220  0.32992  1.0000
  H   H1894     1.0  0.86138  0.25884  0.46895  1.0000
  C   C1073     1.0  0.65481  0.37921  0.29054  1.0000
  H   H1895     1.0  0.78500  0.46209  0.36258  1.0000
  C   C1074     1.0  0.61405  0.46529  0.27044  1.0000
  H   H1896     1.0  0.68466  0.46070  0.33912  1.0000
  S   S247      1.0  0.49897  0.42216  0.44203  1.0000
  C   C1075     1.0  0.67403  0.41312  0.32957  1.0000
  H   H1897     1.0  0.58050  0.00868  0.37835  1.0000
  N   N60       1.0  0.60900  0.47525  0.45101  1.0000
  C   C1076     1.0  0.54789  0.32427  0.40470  1.0000
  H   H1898     1.0  0.55541  0.30961  0.40395  1.0000
  H   H1899     1.0  0.73111  0.33918  0.26877  1.0000
  H   H1900     1.0  0.68987  0.44941  0.37081  1.0000
  C   C1077     1.0  0.87666  0.44347  0.47539  1.0000
  H   H1901     1.0  0.83744  0.27300  0.45111  1.0000
  S   S248      1.0  0.56556  0.36850  0.27372  1.0000
  H   H1902     1.0  0.50098  0.20150  0.47819  1.0000
  C   C1078     1.0  0.60225  0.48280  0.40782  1.0000
  H   H1903     1.0  0.90607  0.34990  0.46407  1.0000
  H   H1904     1.0  0.53534  0.24554  0.45654  1.0000
  C   C1079     1.0  0.74072  0.33077  0.26128  1.0000
  H   H1905     1.0  0.71756  0.40142  0.26944  1.0000
  H   H1906     1.0  0.58941  0.00827  0.39769  1.0000
  H   H1907     1.0  0.69756  0.44149  0.26340  1.0000
  H   H1908     1.0  0.59522  0.44940  0.26671  1.0000
  H   H1909     1.0  0.55849  0.30041  0.28223  1.0000
  H   H1910     1.0  0.94440  0.39256  0.46499  1.0000
  C   C1080     1.0  0.54268  0.33480  0.37239  1.0000
  H   H1911     1.0  0.54644  0.24206  0.27538  1.0000
  C   C1081     1.0  0.65738  0.49576  0.45957  1.0000
  C   C1082     1.0  0.87401  0.30049  0.47402  1.0000
  C   C1083     1.0  0.55888  0.36274  0.24347  1.0000
  H   H1912     1.0  0.62335  0.44680  0.44700  1.0000
  Fe  Fe123     1.0  0.79636  0.47050  0.28102  1.0000
  N   N61       1.0  0.54954  0.27823  0.25207  1.0000
  C   C1084     1.0  0.75717  0.35047  0.24919  1.0000
  H   H1913     1.0  0.57272  0.38195  0.36944  1.0000
  H   H1914     1.0  0.90382  0.27424  0.47156  1.0000
  C   C1085     1.0  0.93824  0.38046  0.47524  1.0000
  H   H1915     1.0  0.68419  0.42117  0.31888  1.0000
  H   H1916     1.0  0.80570  0.41296  0.24632  1.0000
  S   S249      1.0  0.81267  0.46510  0.25878  1.0000
  H   H1917     1.0  0.62140  0.38404  0.24413  1.0000
  H   H1918     1.0  0.61211  0.42726  0.36922  1.0000
  H   H1919     1.0  0.66212  0.38098  0.30221  1.0000
  S   S250      1.0  0.75422  0.46013  0.28274  1.0000
  H   H1920     1.0  0.63328  0.36938  0.29093  1.0000
  H   H1921     1.0  0.68638  0.41444  0.28308  1.0000
  H   H1922     1.0  0.72358  0.47927  0.38724  1.0000
  H   H1923     1.0  0.56965  0.42729  0.38960  1.0000
  C   C1086     1.0  0.55125  0.41286  0.38530  1.0000
  H   H1924     1.0  0.66034  0.41869  0.29108  1.0000
  C   C1087     1.0  0.62384  0.41788  0.37369  1.0000
  H   H1925     1.0  0.63931  0.43213  0.38101  1.0000
  C   C1088     1.0  0.77956  0.47157  0.37189  1.0000
  H   H1926     1.0  0.54985  0.35510  0.35069  1.0000
  H   H1927     1.0  0.61696  0.42074  0.26718  1.0000
  H   H1928     1.0  0.53832  0.24071  0.24123  1.0000
  C   C1089     1.0  0.68385  0.45030  0.26352  1.0000
  H   H1929     1.0  0.80338  0.41625  0.27570  1.0000
  C   C1090     1.0  0.66326  0.48746  0.30904  1.0000
  C   C1091     1.0  0.89310  0.46730  0.46878  1.0000
  C   C1092     1.0  0.62443  0.40301  0.23945  1.0000
  H   H1930     1.0  0.84973  0.47457  0.44566  1.0000
  H   H1931     1.0  0.52717  0.18919  0.45148  1.0000
  C   C1093     1.0  0.63699  0.43682  0.26830  1.0000
  H   H1932     1.0  0.82789  0.41083  0.26603  1.0000
  H   H1933     1.0  0.53140  0.31415  0.37575  1.0000
  C   C1094     1.0  0.57751  0.28835  0.25690  1.0000
  H   H1934     1.0  0.58456  0.35786  0.40227  1.0000
  H   H1935     1.0  0.95420  0.32432  0.47829  1.0000
  H   H1936     1.0  0.55290  0.32544  0.34992  1.0000
  H   H1937     1.0  0.52409  0.47434  0.39500  1.0000
  N   N62       1.0  0.56929  0.34649  0.37964  1.0000
  S   S251      1.0  0.55520  0.36143  0.31722  1.0000
  N   N63       1.0  0.70907  0.27809  0.35122  1.0000
  C   C1095     1.0  0.73124  0.28866  0.36233  1.0000
  C   C1096     1.0  0.70898  0.30045  0.34245  1.0000
  C   C1097     1.0  0.68415  0.26367  0.35973  1.0000
  C   C1098     1.0  0.71198  0.25951  0.34031  1.0000
  C   C1099     1.0  0.73848  0.26949  0.33229  1.0000
  C   C1100     1.0  0.73576  0.26803  0.37143  1.0000
  C   C1101     1.0  0.65881  0.25387  0.35034  1.0000
  C   C1102     1.0  0.70217  0.31971  0.35143  1.0000
  C   C1103     1.0  0.70192  0.34084  0.34121  1.0000
  C   C1104     1.0  0.73830  0.24933  0.32102  1.0000
  C   C1105     1.0  0.75963  0.28094  0.38158  1.0000
  C   C1106     1.0  0.63496  0.24155  0.36034  1.0000
  H   H1938     1.0  0.72806  0.30121  0.37077  1.0000
  H   H1939     1.0  0.74966  0.30167  0.35667  1.0000
  H   H1940     1.0  0.72835  0.31227  0.33743  1.0000
  H   H1941     1.0  0.69556  0.29322  0.33262  1.0000
  H   H1942     1.0  0.68292  0.27569  0.36921  1.0000
  H   H1943     1.0  0.68372  0.24601  0.36506  1.0000
  H   H1944     1.0  0.70852  0.24118  0.34599  1.0000
  H   H1945     1.0  0.69685  0.25375  0.33137  1.0000
  H   H1946     1.0  0.75443  0.27331  0.34041  1.0000
  H   H1947     1.0  0.74306  0.28765  0.32611  1.0000
  H   H1948     1.0  0.71896  0.25675  0.37874  1.0000
  H   H1949     1.0  0.73885  0.25417  0.36403  1.0000
  H   H1950     1.0  0.65779  0.23880  0.34223  1.0000
  H   H1951     1.0  0.65740  0.26981  0.34411  1.0000
  H   H1952     1.0  0.68272  0.30975  0.35657  1.0000
  H   H1953     1.0  0.71668  0.32947  0.36043  1.0000
  H   H1954     1.0  0.69684  0.35436  0.34775  1.0000
  H   H1955     1.0  0.72126  0.35218  0.33609  1.0000
  H   H1956     1.0  0.68725  0.33196  0.33217  1.0000
  H   H1957     1.0  0.72307  0.24527  0.31233  1.0000
  H   H1958     1.0  0.75735  0.25689  0.31533  1.0000
  H   H1959     1.0  0.73466  0.23092  0.32676  1.0000
  H   H1960     1.0  0.77733  0.29176  0.37481  1.0000
  H   H1961     1.0  0.75725  0.29448  0.38964  1.0000
  H   H1962     1.0  0.76221  0.26580  0.38808  1.0000
  H   H1963     1.0  0.63401  0.25632  0.36803  1.0000
  H   H1964     1.0  0.61717  0.23335  0.35324  1.0000
  H   H1965     1.0  0.63543  0.22554  0.36704  1.0000
  C   C1107     1.0  0.94221  0.30297  0.47761  1.0000
  H   H1966     1.0  0.49951  0.16293  0.43065  1.0000
  C   C1108     1.0  0.55712  0.13933  0.47243  1.0000
  H   H1967     1.0  0.61263  0.44695  0.46561  1.0000
  H   H1968     1.0  0.52645  0.31874  0.28360  1.0000
  C   C1109     1.0  0.71993  0.30597  0.25413  1.0000
  C   C1110     1.0  0.58370  0.47499  0.45555  1.0000
  H   H1969     1.0  0.75330  0.32504  0.26828  1.0000
  H   H1970     1.0  0.79923  0.45781  0.45054  1.0000
  C   C1111     1.0  0.73754  0.46434  0.35880  1.0000
  H   H1971     1.0  0.77007  0.28372  0.47521  1.0000
  C   C1112     1.0  0.55352  0.39891  0.25366  1.0000
  H   H1972     1.0  0.56696  0.45989  0.44939  1.0000
  H   H1973     1.0  0.64067  0.43909  0.28058  1.0000
  H   H1974     1.0  0.91336  0.47706  0.47199  1.0000
  H   H1975     1.0  0.74368  0.35011  0.24023  1.0000
  S   S252      1.0  0.82891  0.40151  0.47950  1.0000
  H   H1976     1.0  0.51355  0.32142  0.33679  1.0000
  Fe  Fe124     1.0  0.76712  0.49431  0.29818  1.0000
  C   C1113     1.0  0.58196  0.42452  0.45051  1.0000
  C   C1114     1.0  0.91406  0.29581  0.47239  1.0000
  H   H1977     1.0  0.73473  0.42364  0.25447  1.0000
  Fe  Fe125     1.0  0.50674  0.39031  0.43254  1.0000
  C   C1115     1.0  0.75450  0.21194  0.48284  1.0000
  H   H1978     1.0  0.54083  0.30979  0.25875  1.0000
  C   C1116     1.0  0.80275  0.47127  0.48145  1.0000
  H   H1979     1.0  0.61884  0.32156  0.27571  1.0000
  H   H1980     1.0  0.74386  0.45718  0.34876  1.0000
  H   H1981     1.0  0.95663  0.30084  0.45533  1.0000
  H   H1982     1.0  0.63226  0.39039  0.26822  1.0000
  C   C1117     1.0  0.54560  0.15267  0.48020  1.0000
  H   H1983     1.0  0.56823  0.30838  0.38045  1.0000
  H   H1984     1.0  0.54009  0.48284  0.44924  1.0000
  C   C1118     1.0  0.56733  0.00036  0.42945  1.0000
  H   H1985     1.0  0.51388  0.27888  0.25912  1.0000
  C   C1119     1.0  0.53503  0.28914  0.26160  1.0000
  H   H1986     1.0  0.64000  0.12844  0.48358  1.0000
  H   H1987     1.0  0.76794  0.45303  0.45750  1.0000
  H   H1988     1.0  0.60755  0.12598  0.48263  1.0000
  H   H1989     1.0  0.76875  0.45691  0.38052  1.0000
  H   H1990     1.0  0.50632  0.06312  0.47966  1.0000
  C   C1120     1.0  0.63658  0.46228  0.26325  1.0000
  H   H1991     1.0  0.77872  0.48861  0.25052  1.0000
  C   C1121     1.0  0.70129  0.48086  0.30360  1.0000
  H   H1992     1.0  0.57885  0.28245  0.26856  1.0000
  C   C1122     1.0  0.85319  0.27169  0.47323  1.0000
  C   C1123     1.0  0.51703  0.45662  0.40202  1.0000
  H   H1993     1.0  0.51689  0.25633  0.42509  1.0000
  C   C1124     1.0  0.54589  0.23483  0.26384  1.0000
  C   C1125     1.0  0.53807  0.28817  0.27877  1.0000
  C   C1126     1.0  0.66492  0.40615  0.28351  1.0000
  H   H1994     1.0  0.63306  0.41254  0.36424  1.0000
  H   H1995     1.0  0.55755  0.36350  0.39787  1.0000
  H   H1996     1.0  0.87808  0.30761  0.46229  1.0000
  C   C1127     1.0  0.58518  0.39958  0.45105  1.0000
  S   S253      1.0  0.83491  0.48998  0.33436  1.0000
  C   C1128     1.0  0.53175  0.39753  0.39533  1.0000
  C   C1129     1.0  0.52368  0.39072  0.36395  1.0000
  C   C1130     1.0  0.71097  0.48640  0.38142  1.0000
  C   C1131     1.0  0.49544  0.24497  0.42462  1.0000
  H   H1997     1.0  0.71021  0.29143  0.26301  1.0000
  H   H1998     1.0  0.66633  0.20830  0.46265  1.0000
  S   S254      1.0  0.51810  0.38595  0.34435  1.0000
  S   S255      1.0  0.53835  0.40163  0.41482  1.0000
  C   C1132     1.0  0.54708  0.40982  0.36971  1.0000
  H   H1999     1.0  0.81524  0.24819  0.46333  1.0000
  C   C1133     1.0  0.68980  0.48392  0.39247  1.0000
  H   H2000     1.0  0.62844  0.00642  0.43240  1.0000
  H   H2001     1.0  0.63534  0.21782  0.47661  1.0000
  S   S256      1.0  0.79623  0.44619  0.30080  1.0000
  N   N64       1.0  0.65633  0.42969  0.26075  1.0000
  H   H2002     1.0  0.52641  0.44444  0.39835  1.0000
  C   C1134     1.0  0.51083  0.13844  0.44363  1.0000
  H   H2003     1.0  0.83763  0.41744  0.29288  1.0000
  C   C1135     1.0  0.60674  0.39386  0.38277  1.0000
  H   H2004     1.0  0.66635  0.42075  0.23898  1.0000
  C   C1136     1.0  0.80099  0.48618  0.46736  1.0000
  H   H2005     1.0  0.54893  0.49035  0.46875  1.0000
  C   C1137     1.0  0.67655  0.24850  0.45870  1.0000
  C   C1138     1.0  0.55869  0.37761  0.25590  1.0000
  H   H2006     1.0  0.58316  0.32634  0.36432  1.0000
  H   H2007     1.0  0.60404  0.29689  0.38605  1.0000
  C   C1139     1.0  0.61725  0.31516  0.38036  1.0000
  H   H2008     1.0  0.73524  0.24764  0.46043  1.0000
  C   C1140     1.0  0.58123  0.32836  0.37659  1.0000
  H   H2009     1.0  0.56754  0.42295  0.45912  1.0000
  H   H2010     1.0  0.65757  0.24455  0.45353  1.0000
  H   H2011     1.0  0.78575  0.47908  0.44467  1.0000
  C   C1141     1.0  0.73241  0.38493  0.25212  1.0000
  C   C1142     1.0  0.54180  0.33495  0.35497  1.0000
  C   C1143     1.0  0.76576  0.26373  0.47740  1.0000
  C   C1144     1.0  0.51388  0.32049  0.34922  1.0000
  C   C1145     1.0  0.56573  0.34938  0.39620  1.0000
  C   C1146     1.0  0.88337  0.47872  0.45817  1.0000
  H   H2012     1.0  0.86463  0.31175  0.47912  1.0000
  H   H2013     1.0  0.50864  0.20127  0.26759  1.0000
  H   H2014     1.0  0.71346  0.46257  0.33095  1.0000
  H   H2015     1.0  0.76941  0.34229  0.24386  1.0000
  H   H2016     1.0  0.50047  0.28608  0.28468  1.0000
  H   H2017     1.0  0.52478  0.29857  0.29929  1.0000
  C   C1147     1.0  0.50811  0.37877  0.38962  1.0000
  H   H2018     1.0  0.63070  0.31516  0.25819  1.0000
  H   H2019     1.0  0.58967  0.99843  0.47807  1.0000
  H   H2020     1.0  0.67848  0.46339  0.39596  1.0000
  C   C1148     1.0  0.54626  0.33010  0.42130  1.0000
  H   H2021     1.0  0.70001  0.46543  0.24141  1.0000
  H   H2022     1.0  0.56580  0.23787  0.26101  1.0000
  H   H2023     1.0  0.95585  0.38370  0.48183  1.0000
  C   C1149     1.0  0.62089  0.32586  0.26350  1.0000
  H   H2024     1.0  0.56570  0.33801  0.42672  1.0000
  C   C1150     1.0  0.70178  0.45708  0.34139  1.0000
  C   C1151     1.0  0.76338  0.48458  0.36594  1.0000
  H   H2025     1.0  0.60863  0.40752  0.24330  1.0000
  C   C1152     1.0  0.49632  0.15500  0.44218  1.0000
  H   H2026     1.0  0.65469  0.47920  0.26699  1.0000
  C   C1153     1.0  0.72055  0.49494  0.25780  1.0000
  C   C1154     1.0  0.78785  0.48609  0.24050  1.0000
  H   H2027     1.0  0.54474  0.42164  0.23733  1.0000
  C   C1155     1.0  0.54130  0.25027  0.48026  1.0000
  C   C1156     1.0  0.50629  0.17733  0.45398  1.0000
  H   H2028     1.0  0.55054  0.11879  0.47434  1.0000
  H   H2029     1.0  0.97557  0.29773  0.47061  1.0000
  H   H2030     1.0  0.52780  0.31572  0.40019  1.0000
  N   N65       1.0  0.89896  0.30567  0.48212  1.0000
  H   H2031     1.0  0.53317  0.31197  0.42716  1.0000
  H   H2032     1.0  0.84496  0.26479  0.48450  1.0000
  H   H2033     1.0  0.65268  0.44284  0.23840  1.0000
  C   C1157     1.0  0.61594  0.48373  0.43498  1.0000
  C   C1158     1.0  0.50335  0.21262  0.46762  1.0000
  H   H2034     1.0  0.56226  0.26378  0.47935  1.0000
  H   H2035     1.0  0.52280  0.46255  0.41386  1.0000
  H   H2036     1.0  0.51737  0.21792  0.43709  1.0000
  C   C1159     1.0  0.59533  0.46862  0.42281  1.0000
  C   C1160     1.0  0.65453  0.22374  0.48214  1.0000
  H   H2037     1.0  0.58720  0.47157  0.39932  1.0000
  H   H2038     1.0  0.49674  0.31628  0.47715  1.0000
  H   H2039     1.0  0.50186  0.32953  0.35370  1.0000
  H   H2040     1.0  0.85102  0.48843  0.47992  1.0000
  H   H2041     1.0  0.50523  0.29974  0.35253  1.0000
  Fe  Fe126     1.0  0.49909  0.40557  0.46460  1.0000
  H   H2042     1.0  0.86025  0.49184  0.36251  1.0000
  C   C1161     1.0  0.52852  0.20553  0.26390  1.0000
  H   H2043     1.0  0.92601  0.38692  0.48199  1.0000
  H   H2044     1.0  0.54908  0.41105  0.48414  1.0000
  H   H2045     1.0  0.67652  0.49097  0.38735  1.0000
  H   H2046     1.0  0.76036  0.49560  0.37527  1.0000
  H   H2047     1.0  0.75043  0.19203  0.48514  1.0000
  C   C1162     1.0  0.91398  0.33447  0.48501  1.0000
  H   H2048     1.0  0.78259  0.45959  0.48555  1.0000
  Fe  Fe127     1.0  0.79836  0.39462  0.66883  1.0000
  S   S257      1.0  0.77309  0.35763  0.65627  1.0000
  S   S258      1.0  0.81048  0.40510  0.69329  1.0000
  Fe  Fe128     1.0  0.79981  0.42886  0.64212  1.0000
  S   S259      1.0  0.77449  0.39525  0.62758  1.0000
  S   S260      1.0  0.81542  0.47023  0.63430  1.0000
  Fe  Fe129     1.0  0.75125  0.37925  0.64831  1.0000
  S   S261      1.0  0.70861  0.36708  0.64744  1.0000
  Fe  Fe130     1.0  0.79845  0.37637  0.63616  1.0000
  S   S262      1.0  0.81248  0.35490  0.61981  1.0000
  S   S263      1.0  0.77442  0.41462  0.66207  1.0000
  S   S264      1.0  0.82589  0.41151  0.64944  1.0000
  H   H2049     1.0  0.79309  0.34994  0.70004  1.0000
  S   S265      1.0  0.66295  0.40974  0.67426  1.0000
  Fe  Fe131     1.0  0.58892  0.24640  0.65652  1.0000
  S   S266      1.0  0.56815  0.25991  0.63986  1.0000
  S   S267      1.0  0.62890  0.24920  0.65392  1.0000
  Fe  Fe132     1.0  0.54552  0.22797  0.67923  1.0000
  Fe  Fe133     1.0  0.53318  0.22249  0.64507  1.0000
  Fe  Fe134     1.0  0.55718  0.27572  0.66028  1.0000
  S   S268      1.0  0.55509  0.31389  0.66111  1.0000
  S   S269      1.0  0.55489  0.20771  0.66027  1.0000
  S   S270      1.0  0.58112  0.26563  0.67647  1.0000
  C   C1163     1.0  0.57806  0.43660  0.69359  1.0000
  C   C1164     1.0  0.62403  0.12905  0.49023  1.0000
  Fe  Fe135     1.0  0.82816  0.32601  0.50545  1.0000
  S   S271      1.0  0.80930  0.35194  0.50969  1.0000
  H   H2050     1.0  0.56020  0.38089  0.62490  1.0000
  Fe  Fe136     1.0  0.88316  0.37073  0.51309  1.0000
  S   S272      1.0  0.86734  0.39961  0.51742  1.0000
  S   S273      1.0  0.92533  0.37728  0.51738  1.0000
  Fe  Fe137     1.0  0.83515  0.36736  0.52996  1.0000
  S   S274      1.0  0.81667  0.37793  0.54982  1.0000
  Fe  Fe138     1.0  0.84256  0.38202  0.49695  1.0000
  H   H2051     1.0  0.86770  0.40731  0.60276  1.0000
  S   S275      1.0  0.85201  0.33918  0.52690  1.0000
  H   H2052     1.0  0.57920  0.39992  0.73267  1.0000
  C   C1165     1.0  0.95705  0.40278  0.51359  1.0000
  C   C1166     1.0  0.96109  0.42545  0.50592  1.0000
  H   H2053     1.0  0.54927  0.41404  0.63687  1.0000
  H   H2054     1.0  0.94459  0.42813  0.50216  1.0000
  H   H2055     1.0  0.83076  0.45079  0.60965  1.0000
  H   H2056     1.0  0.87553  0.40252  0.56478  1.0000
  H   H2057     1.0  0.81248  0.43597  0.57669  1.0000
  H   H2058     1.0  0.91220  0.29603  0.50286  1.0000
  Fe  Fe139     1.0  0.66710  0.44847  0.66657  1.0000
  C   C1167     1.0  0.53216  0.20400  0.60299  1.0000
  H   H2059     1.0  0.54873  0.21204  0.61049  1.0000
  H   H2060     1.0  0.55503  0.20693  0.58335  1.0000
  H   H2061     1.0  0.51087  0.06597  0.49968  1.0000
  C   C1168     1.0  0.53049  0.24547  0.71867  1.0000
  C   C1169     1.0  0.77428  0.23217  0.49095  1.0000
  C   C1170     1.0  0.63257  0.38328  0.67144  1.0000
  C   C1171     1.0  0.63119  0.35858  0.66955  1.0000
  C   C1172     1.0  0.60740  0.33717  0.66642  1.0000
  C   C1173     1.0  0.58478  0.34031  0.66558  1.0000
  C   C1174     1.0  0.58596  0.36486  0.66812  1.0000
  C   C1175     1.0  0.60991  0.38644  0.67088  1.0000
  H   H2062     1.0  0.64872  0.35617  0.66996  1.0000
  H   H2063     1.0  0.60662  0.31833  0.66445  1.0000
  H   H2064     1.0  0.56837  0.36721  0.66771  1.0000
  H   H2065     1.0  0.61080  0.40542  0.67246  1.0000
  C   C1176     1.0  0.81237  0.35964  0.60016  1.0000
  C   C1177     1.0  0.82728  0.35205  0.59072  1.0000
  C   C1178     1.0  0.82831  0.35670  0.57514  1.0000
  C   C1179     1.0  0.81434  0.36893  0.56891  1.0000
  C   C1180     1.0  0.79883  0.37572  0.57830  1.0000
  C   C1181     1.0  0.79778  0.37101  0.59379  1.0000
  H   H2066     1.0  0.83847  0.34298  0.59550  1.0000
  H   H2067     1.0  0.84028  0.35130  0.56802  1.0000
  H   H2068     1.0  0.78779  0.38498  0.57357  1.0000
  H   H2069     1.0  0.78580  0.37642  0.60079  1.0000
  H   H2070     1.0  0.89354  0.48701  0.58841  1.0000
  C   C1182     1.0  0.77113  0.47118  0.64507  1.0000
  H   H2071     1.0  0.74824  0.49313  0.71123  1.0000
  H   H2072     1.0  0.69078  0.20605  0.49324  1.0000
  H   H2073     1.0  0.70054  0.35687  0.72505  1.0000
  H   H2074     1.0  0.52847  0.29647  0.61571  1.0000
  H   H2075     1.0  0.76202  0.45021  0.64424  1.0000
  H   H2076     1.0  0.73720  0.47262  0.65409  1.0000
  H   H2077     1.0  0.72779  0.34750  0.67635  1.0000
  H   H2078     1.0  0.64525  0.26321  0.72192  1.0000
  C   C1183     1.0  0.68714  0.33399  0.64841  1.0000
  C   C1184     1.0  0.69599  0.31529  0.65069  1.0000
  C   C1185     1.0  0.67810  0.28903  0.65222  1.0000
  C   C1186     1.0  0.65143  0.28163  0.65140  1.0000
  C   C1187     1.0  0.64273  0.30031  0.64874  1.0000
  C   C1188     1.0  0.66056  0.32639  0.64716  1.0000
  H   H2079     1.0  0.71653  0.32112  0.65155  1.0000
  H   H2080     1.0  0.68483  0.27452  0.65423  1.0000
  H   H2081     1.0  0.62222  0.29465  0.64789  1.0000
  H   H2082     1.0  0.65361  0.34067  0.64506  1.0000
  C   C1189     1.0  0.80174  0.38694  0.71009  1.0000
  C   C1190     1.0  0.80413  0.40024  0.72370  1.0000
  C   C1191     1.0  0.66395  0.42970  0.71284  1.0000
  C   C1192     1.0  0.49628  0.05702  0.49059  1.0000
  C   C1193     1.0  0.79411  0.36019  0.71038  1.0000
  H   H2083     1.0  0.81032  0.42099  0.72362  1.0000
  S   S276      1.0  0.52068  0.23940  0.66450  1.0000
  H   H2084     1.0  0.85140  0.44022  0.57090  1.0000
  S   S277      1.0  0.63100  0.47680  0.50521  1.0000
  C   C1194     1.0  0.87238  0.47993  0.59020  1.0000
  N   N66       1.0  0.71095  0.36615  0.70182  1.0000
  H   H2085     1.0  0.87211  0.45784  0.61749  1.0000
  C   C1195     1.0  0.98659  0.44462  0.50288  1.0000
  H   H2086     1.0  0.67299  0.31361  0.70439  1.0000
  C   C1196     1.0  0.98268  0.43325  0.55956  1.0000
  H   H2087     1.0  0.84917  0.49324  0.60445  1.0000
  H   H2088     1.0  0.98932  0.46191  0.49683  1.0000
  H   H2089     1.0  0.64993  0.15720  0.50586  1.0000
  C   C1197     1.0  0.86627  0.41931  0.61212  1.0000
  C   C1198     1.0  0.86798  0.27977  0.52113  1.0000
  Fe  Fe140     1.0  0.49493  0.17398  0.53717  1.0000
  H   H2090     1.0  0.73270  0.48112  0.61419  1.0000
  H   H2091     1.0  0.89581  0.45722  0.60520  1.0000
  H   H2092     1.0  0.56879  0.39862  0.57404  1.0000
  C   C1199     1.0  0.58524  0.48025  0.50158  1.0000
  H   H2093     1.0  0.74427  0.35827  0.70274  1.0000
  C   C1200     1.0  0.54992  0.30787  0.61572  1.0000
  H   H2094     1.0  0.94069  0.41140  0.55945  1.0000
  H   H2095     1.0  0.69976  0.40743  0.69496  1.0000
  H   H2096     1.0  0.62653  0.29208  0.73061  1.0000
  Fe  Fe141     1.0  0.65738  0.48332  0.64395  1.0000
  H   H2097     1.0  0.70156  0.38670  0.71933  1.0000
  H   H2098     1.0  0.53745  0.19401  0.73247  1.0000
  H   H2099     1.0  0.88450  0.27896  0.52716  1.0000
  C   C1201     1.0  0.66481  0.32774  0.70415  1.0000
  C   C1202     1.0  0.75694  0.48390  0.65046  1.0000
  H   H2100     1.0  0.64924  0.44651  0.72944  1.0000
  H   H2101     1.0  0.66005  0.43880  0.70283  1.0000
  H   H2102     1.0  0.78790  0.44935  0.60387  1.0000
  C   C1203     1.0  0.71159  0.37418  0.71799  1.0000
  H   H2103     1.0  0.97622  0.38228  0.52404  1.0000
  H   H2104     1.0  0.85459  0.26010  0.51685  1.0000
  H   H2105     1.0  0.75317  0.44072  0.68146  1.0000
  H   H2106     1.0  0.75364  0.32681  0.68716  1.0000
  C   C1204     1.0  0.68315  0.35352  0.69636  1.0000
  C   C1205     1.0  0.72296  0.34766  0.70075  1.0000
  C   C1206     1.0  0.72616  0.38932  0.69201  1.0000
  H   H2107     1.0  0.77532  0.48092  0.69866  1.0000
  H   H2108     1.0  0.62584  0.29628  0.70172  1.0000
  C   C1207     1.0  0.71929  0.33331  0.68553  1.0000
  H   H2109     1.0  0.60119  0.40150  0.57484  1.0000
  C   C1208     1.0  0.63869  0.31463  0.69601  1.0000
  H   H2110     1.0  0.64239  0.22620  0.51078  1.0000
  C   C1209     1.0  0.55934  0.47073  0.49682  1.0000
  C   C1210     1.0  0.73238  0.31536  0.68568  1.0000
  C   C1211     1.0  0.69839  0.47981  0.60347  1.0000
  H   H2111     1.0  0.59764  0.17856  0.49594  1.0000
  H   H2112     1.0  0.67408  0.36683  0.69783  1.0000
  H   H2113     1.0  0.68230  0.35005  0.68401  1.0000
  C   C1212     1.0  0.54641  0.44599  0.49020  1.0000
  S   S278      1.0  0.50174  0.19755  0.62825  1.0000
  H   H2114     1.0  0.61745  0.37574  0.72331  1.0000
  H   H2115     1.0  0.59682  0.21509  0.52097  1.0000
  H   H2116     1.0  0.84009  0.44504  0.52474  1.0000
  C   C1213     1.0  0.61085  0.38598  0.71500  1.0000
  C   C1214     1.0  0.63350  0.15502  0.49852  1.0000
  C   C1215     1.0  0.87768  0.29911  0.50825  1.0000
  H   H2117     1.0  0.88217  0.42919  0.63480  1.0000
  H   H2118     1.0  0.57089  0.36695  0.59168  1.0000
  H   H2119     1.0  0.72872  0.30468  0.67485  1.0000
  C   C1216     1.0  0.73180  0.43283  0.68174  1.0000
  H   H2120     1.0  0.74750  0.37423  0.72625  1.0000
  H   H2121     1.0  0.71685  0.23160  0.52379  1.0000
  H   H2122     1.0  0.64130  0.30985  0.68424  1.0000
  H   H2123     1.0  0.73250  0.26418  0.51646  1.0000
  H   H2124     1.0  0.71566  0.33286  0.70977  1.0000
  H   H2125     1.0  0.66246  0.44432  0.60445  1.0000
  S   S279      1.0  0.86041  0.35539  0.49150  1.0000
  S   S280      1.0  0.51429  0.19376  0.51578  1.0000
  H   H2126     1.0  0.72456  0.30093  0.69483  1.0000
  H   H2127     1.0  0.52362  0.27294  0.73223  1.0000
  N   N67       1.0  0.72197  0.30607  0.59992  1.0000
  C   C1217     1.0  0.72038  0.32956  0.60647  1.0000
  C   C1218     1.0  0.74081  0.29983  0.60892  1.0000
  C   C1219     1.0  0.73254  0.31300  0.58421  1.0000
  C   C1220     1.0  0.69570  0.28272  0.59880  1.0000
  C   C1221     1.0  0.67904  0.27484  0.61318  1.0000
  C   C1222     1.0  0.70332  0.33945  0.59763  1.0000
  C   C1223     1.0  0.73930  0.29289  0.57608  1.0000
  C   C1224     1.0  0.74200  0.30454  0.62609  1.0000
  C   C1225     1.0  0.75767  0.29264  0.63401  1.0000
  C   C1226     1.0  0.65171  0.25358  0.60981  1.0000
  C   C1227     1.0  0.69906  0.35986  0.60661  1.0000
  C   C1228     1.0  0.75008  0.30236  0.56045  1.0000
  H   H2128     1.0  0.74020  0.34607  0.60735  1.0000
  H   H2129     1.0  0.71324  0.32612  0.61816  1.0000
  H   H2130     1.0  0.73707  0.27932  0.60691  1.0000
  H   H2131     1.0  0.76111  0.31199  0.60512  1.0000
  H   H2132     1.0  0.75041  0.33186  0.58435  1.0000
  H   H2133     1.0  0.71851  0.31592  0.57679  1.0000
  H   H2134     1.0  0.68385  0.28551  0.58975  1.0000
  H   H2135     1.0  0.69783  0.26522  0.59527  1.0000
  H   H2136     1.0  0.67678  0.29134  0.61821  1.0000
  H   H2137     1.0  0.68767  0.26672  0.62152  1.0000
  H   H2138     1.0  0.71295  0.34868  0.58701  1.0000
  H   H2139     1.0  0.68395  0.32343  0.59497  1.0000
  H   H2140     1.0  0.72183  0.27399  0.57471  1.0000
  H   H2141     1.0  0.75426  0.28963  0.58233  1.0000
  H   H2142     1.0  0.75158  0.32576  0.62845  1.0000
  H   H2143     1.0  0.72260  0.29624  0.63115  1.0000
  H   H2144     1.0  0.77761  0.30060  0.62943  1.0000
  H   H2145     1.0  0.75911  0.29737  0.64617  1.0000
  H   H2146     1.0  0.74806  0.27117  0.63266  1.0000
  H   H2147     1.0  0.64038  0.24794  0.62036  1.0000
  H   H2148     1.0  0.64146  0.26066  0.60185  1.0000
  H   H2149     1.0  0.65242  0.23604  0.60505  1.0000
  H   H2150     1.0  0.68856  0.36806  0.59962  1.0000
  H   H2151     1.0  0.68710  0.35082  0.61663  1.0000
  H   H2152     1.0  0.71786  0.37595  0.61027  1.0000
  H   H2153     1.0  0.73561  0.30515  0.55340  1.0000
  H   H2154     1.0  0.76808  0.32100  0.56119  1.0000
  H   H2155     1.0  0.75491  0.28779  0.55487  1.0000
  C   C1229     1.0  0.89372  0.29177  0.49694  1.0000
  S   S281      1.0  0.80581  0.28227  0.49963  1.0000
  H   H2156     1.0  0.93109  0.33884  0.49239  1.0000
  H   H2157     1.0  0.87570  0.42752  0.55252  1.0000
  H   H2158     1.0  0.70014  0.25318  0.49654  1.0000
  C   C1230     1.0  0.60538  0.23828  0.71691  1.0000
  H   H2159     1.0  0.66106  0.33161  0.71586  1.0000
  H   H2160     1.0  0.69850  0.32101  0.68293  1.0000
  H   H2161     1.0  0.69210  0.48648  0.59329  1.0000
  H   H2162     1.0  0.55814  0.43500  0.69336  1.0000
  C   C1231     1.0  0.61001  0.23145  0.70097  1.0000
  H   H2163     1.0  0.54822  0.34343  0.61056  1.0000
  C   C1232     1.0  0.58619  0.40427  0.58132  1.0000
  H   H2164     1.0  0.98227  0.44502  0.56932  1.0000
  H   H2165     1.0  0.88321  0.41017  0.72136  1.0000
  H   H2166     1.0  0.58265  0.33087  0.71684  1.0000
  H   H2167     1.0  0.72684  0.44919  0.68353  1.0000
  H   H2168     1.0  0.90578  0.42750  0.55803  1.0000
  H   H2169     1.0  0.89995  0.46093  0.57233  1.0000
  H   H2170     1.0  0.94238  0.29460  0.48875  1.0000
  H   H2171     1.0  0.50822  0.28726  0.49290  1.0000
  H   H2172     1.0  0.60059  0.25489  0.71610  1.0000
  C   C1233     1.0  0.72815  0.48897  0.60374  1.0000
  H   H2173     1.0  0.59363  0.42515  0.58433  1.0000
  H   H2174     1.0  0.82267  0.41386  0.51571  1.0000
  H   H2175     1.0  0.62899  0.32751  0.69599  1.0000
  N   N68       1.0  0.85995  0.45151  0.59423  1.0000
  C   C1234     1.0  0.62974  0.24537  0.72696  1.0000
  H   H2176     1.0  0.80497  0.42786  0.52574  1.0000
  C   C1235     1.0  0.52709  0.25595  0.73232  1.0000
  H   H2177     1.0  0.66364  0.38521  0.64397  1.0000
  H   H2178     1.0  0.59206  0.45745  0.69264  1.0000
  H   H2179     1.0  0.61417  0.21438  0.70101  1.0000
  H   H2180     1.0  0.59236  0.22637  0.69402  1.0000
  H   H2181     1.0  0.62637  0.24818  0.69569  1.0000
  H   H2182     1.0  0.95694  0.39519  0.55010  1.0000
  Fe  Fe142     1.0  0.66076  0.49454  0.67810  1.0000
  H   H2183     1.0  0.68456  0.24572  0.51452  1.0000
  H   H2184     1.0  0.57898  0.43613  0.71761  1.0000
  C   C1236     1.0  0.59815  0.46480  0.50007  1.0000
  C   C1237     1.0  0.88607  0.42345  0.56191  1.0000
  C   C1238     1.0  0.60642  0.19777  0.50161  1.0000
  H   H2185     1.0  0.56932  0.19025  0.51133  1.0000
  H   H2186     1.0  0.51295  0.15260  0.66809  1.0000
  C   C1239     1.0  0.78014  0.25825  0.48847  1.0000
  C   C1240     1.0  0.53567  0.20107  0.58758  1.0000
  C   C1241     1.0  0.69177  0.44676  0.71803  1.0000
  H   H2187     1.0  0.61733  0.11293  0.49843  1.0000
  C   C1242     1.0  0.88804  0.44040  0.57557  1.0000
  H   H2188     1.0  0.89839  0.43537  0.58452  1.0000
  H   H2189     1.0  0.78357  0.32637  0.72432  1.0000
  C   C1243     1.0  0.58258  0.36741  0.71040  1.0000
  H   H2190     1.0  0.62318  0.44934  0.71092  1.0000
  C   C1244     1.0  0.61050  0.42817  0.70923  1.0000
  C   C1245     1.0  0.83203  0.44228  0.59868  1.0000
  C   C1246     1.0  0.97898  0.39980  0.51825  1.0000
  C   C1247     1.0  0.88328  0.41792  0.62492  1.0000
  H   H2191     1.0  0.86561  0.37520  0.72168  1.0000
  H   H2192     1.0  0.84603  0.41041  0.61619  1.0000
  H   H2193     1.0  0.86060  0.29964  0.50291  1.0000
  H   H2194     1.0  0.74745  0.39619  0.69342  1.0000
  C   C1248     1.0  0.55742  0.33639  0.61914  1.0000
  N   N69       1.0  0.59796  0.38210  0.62086  1.0000
  C   C1249     1.0  0.57991  0.38917  0.62990  1.0000
  C   C1250     1.0  0.58737  0.35281  0.61981  1.0000
  C   C1251     1.0  0.62363  0.39260  0.62915  1.0000
  C   C1252     1.0  0.58816  0.41857  0.63205  1.0000
  C   C1253     1.0  0.56897  0.42301  0.64199  1.0000
  H   H2195     1.0  0.57721  0.38023  0.64117  1.0000
  H   H2196     1.0  0.59581  0.34736  0.60999  1.0000
  H   H2197     1.0  0.59339  0.34524  0.62986  1.0000
  H   H2198     1.0  0.62038  0.38640  0.64105  1.0000
  H   H2199     1.0  0.60735  0.42859  0.63757  1.0000
  H   H2200     1.0  0.63661  0.36320  0.62217  1.0000
  H   H2201     1.0  0.57536  0.44422  0.64328  1.0000
  H   H2202     1.0  0.56823  0.41467  0.65329  1.0000
  H   H2203     1.0  0.67611  0.41609  0.63480  1.0000
  C   C1254     1.0  0.55915  0.43035  0.48894  1.0000
  H   H2204     1.0  0.77784  0.41739  0.59568  1.0000
  H   H2205     1.0  0.95700  0.39679  0.57040  1.0000
  C   C1255     1.0  0.81639  0.47020  0.50727  1.0000
  H   H2206     1.0  0.61589  0.38846  0.59905  1.0000
  H   H2207     1.0  0.65045  0.39279  0.61154  1.0000
  H   H2208     1.0  0.73185  0.23757  0.50554  1.0000
  C   C1256     1.0  0.81443  0.44716  0.58717  1.0000
  C   C1257     1.0  0.51441  0.19050  0.57761  1.0000
  N   N70       1.0  0.65251  0.20473  0.49424  1.0000
  H   H2209     1.0  0.90377  0.42556  0.62129  1.0000
  C   C1258     1.0  0.87458  0.44783  0.60736  1.0000
  S   S282      1.0  0.52006  0.13525  0.49256  1.0000
  H   H2210     1.0  0.61372  0.41587  0.60656  1.0000
  H   H2211     1.0  0.56364  0.39077  0.60119  1.0000
  H   H2212     1.0  0.53831  0.23849  0.49055  1.0000
  C   C1259     1.0  0.64180  0.49307  0.59118  1.0000
  C   C1260     1.0  0.57891  0.38752  0.59541  1.0000
  S   S283      1.0  0.68727  0.46842  0.64555  1.0000
  H   H2213     1.0  0.80302  0.43107  0.49765  1.0000
  H   H2214     1.0  0.88411  0.27033  0.49517  1.0000
  C   C1261     1.0  0.86074  0.43597  0.58075  1.0000
  H   H2215     1.0  0.58883  0.42793  0.62110  1.0000
  C   C1262     1.0  0.64415  0.38461  0.62286  1.0000
  H   H2216     1.0  0.77508  0.44256  0.58502  1.0000
  H   H2217     1.0  0.58103  0.28350  0.73066  1.0000
  H   H2218     1.0  0.77351  0.48921  0.59421  1.0000
  C   C1263     1.0  0.53418  0.22306  0.71867  1.0000
  H   H2219     1.0  0.56749  0.40498  0.70887  1.0000
  H   H2220     1.0  0.83758  0.45018  0.49730  1.0000
  H   H2221     1.0  0.62223  0.38795  0.70464  1.0000
  H   H2222     1.0  0.54949  0.48283  0.49792  1.0000
  C   C1264     1.0  0.60294  0.39431  0.60554  1.0000
  H   H2223     1.0  0.87633  0.39733  0.62834  1.0000
  H   H2224     1.0  0.63325  0.41421  0.62933  1.0000
  S   S284      1.0  0.63515  0.46004  0.66394  1.0000
  H   H2225     1.0  0.68355  0.39100  0.62763  1.0000
  C   C1265     1.0  0.58245  0.42537  0.70823  1.0000
  H   H2226     1.0  0.82276  0.42109  0.60071  1.0000
  H   H2227     1.0  0.54891  0.33710  0.63019  1.0000
  H   H2228     1.0  0.56855  0.36509  0.71939  1.0000
  H   H2229     1.0  0.73222  0.47881  0.59424  1.0000
  H   H2230     1.0  0.67642  0.19878  0.51109  1.0000
  H   H2231     1.0  0.88991  0.31863  0.51314  1.0000
  H   H2232     1.0  0.58922  0.18110  0.52311  1.0000
  H   H2233     1.0  0.58810  0.22158  0.72130  1.0000
  C   C1266     1.0  0.53506  0.21162  0.73241  1.0000
  C   C1267     1.0  0.57970  0.34027  0.70666  1.0000
  H   H2234     1.0  0.57721  0.37474  0.70012  1.0000
  N   N71       1.0  0.61590  0.41241  0.72106  1.0000
  C   C1268     1.0  0.73897  0.38805  0.72525  1.0000
  H   H2235     1.0  0.72973  0.42331  0.70505  1.0000
  H   H2236     1.0  0.84904  0.41486  0.58274  1.0000
  C   C1269     1.0  0.78902  0.34696  0.72417  1.0000
  H   H2237     1.0  0.66301  0.41069  0.70953  1.0000
  H   H2238     1.0  0.68715  0.44183  0.59317  1.0000
  H   H2239     1.0  0.72347  0.42362  0.67075  1.0000
  H   H2240     1.0  0.61593  0.42381  0.69797  1.0000
  H   H2241     1.0  0.69231  0.48720  0.61344  1.0000
  H   H2242     1.0  0.72227  0.38360  0.67997  1.0000
  H   H2243     1.0  0.86471  0.48291  0.57928  1.0000
  C   C1270     1.0  0.50721  0.19592  0.60872  1.0000
  C   C1271     1.0  0.81999  0.44551  0.50404  1.0000
  H   H2244     1.0  0.69404  0.46587  0.72212  1.0000
  H   H2245     1.0  0.55796  0.29976  0.62445  1.0000
  H   H2246     1.0  0.59386  0.34130  0.69800  1.0000
  H   H2247     1.0  0.63627  0.23003  0.72524  1.0000
  H   H2248     1.0  0.51544  0.14389  0.59869  1.0000
  C   C1272     1.0  0.72074  0.41319  0.69441  1.0000
  C   C1273     1.0  0.78717  0.43857  0.59337  1.0000
  C   C1274     1.0  0.69510  0.23974  0.50620  1.0000
  C   C1275     1.0  0.72058  0.24340  0.51346  1.0000
  C   C1276     1.0  0.68357  0.45021  0.60363  1.0000
  C   C1277     1.0  0.58956  0.19602  0.51513  1.0000
  H   H2249     1.0  0.58029  0.42580  0.68381  1.0000
  H   H2250     1.0  0.52966  0.25439  0.70816  1.0000
  H   H2251     1.0  0.63511  0.19424  0.51622  1.0000
  C   C1278     1.0  0.82207  0.43241  0.51850  1.0000
  H   H2252     1.0  0.50162  0.15012  0.64901  1.0000
  H   H2253     1.0  0.70514  0.45028  0.70848  1.0000
  H   H2254     1.0  0.75234  0.40487  0.71855  1.0000
  H   H2255     1.0  0.59483  0.42764  0.49284  1.0000
  H   H2256     1.0  0.62663  0.47359  0.58929  1.0000
  C   C1279     1.0  0.66826  0.39489  0.63292  1.0000
  H   H2257     1.0  0.61733  0.15380  0.50568  1.0000
  H   H2258     1.0  0.55721  0.30570  0.60456  1.0000
  C   C1280     1.0  0.63498  0.20603  0.50638  1.0000
  C   C1281     1.0  0.58498  0.43974  0.49389  1.0000
  C   C1282     1.0  0.67871  0.21111  0.50110  1.0000
  C   C1283     1.0  0.64428  0.42644  0.72544  1.0000
  H   H2259     1.0  0.85713  0.28594  0.52918  1.0000
  H   H2260     1.0  0.79645  0.46340  0.51182  1.0000
  H   H2261     1.0  0.82950  0.48082  0.51668  1.0000
  H   H2262     1.0  0.68961  0.44234  0.61341  1.0000
  C   C1284     1.0  0.95790  0.40754  0.55993  1.0000
  H   H2263     1.0  0.55989  0.32795  0.70219  1.0000
  S   S285      1.0  0.53599  0.20768  0.70180  1.0000
  H   H2264     1.0  0.82225  0.46799  0.58432  1.0000
  S   S286      1.0  0.52018  0.18598  0.55846  1.0000
  C   C1285     1.0  0.60028  0.40892  0.73515  1.0000
  H   H2265     1.0  0.50054  0.11053  0.60477  1.0000
  N   N72       1.0  0.82012  0.48774  0.49402  1.0000
  H   H2266     1.0  0.78508  0.22746  0.49935  1.0000
  H   H2267     1.0  0.49891  0.02104  0.49117  1.0000
  S   S287      1.0  0.69151  0.48150  0.68167  1.0000
  H   H2268     1.0  0.79550  0.47429  0.67560  1.0000
  H   H2269     1.0  0.87081  0.48909  0.50368  1.0000
  H   H2270     1.0  0.90202  0.34155  0.49152  1.0000
  H   H2271     1.0  0.98195  0.44306  0.54900  1.0000
  C   C1286     1.0  0.79699  0.48560  0.64074  1.0000
  S   S288      1.0  0.63803  0.47912  0.62097  1.0000
  H   H2272     1.0  0.60538  0.21231  0.49385  1.0000
  Fe  Fe143     1.0  0.49924  0.15406  0.50558  1.0000
  H   H2273     1.0  0.64848  0.41647  0.73501  1.0000
  H   H2274     1.0  0.69726  0.43703  0.72712  1.0000
  C   C1287     1.0  0.49701  0.12562  0.59887  1.0000
  H   H2275     1.0  0.50348  0.11506  0.57674  1.0000
  C   C1288     1.0  0.64192  0.17793  0.48735  1.0000
  H   H2276     1.0  0.65974  0.24329  0.48703  1.0000
  C   C1289     1.0  0.49535  0.14595  0.66087  1.0000
  H   H2277     1.0  0.74568  0.45824  0.72922  1.0000
  C   C1290     1.0  0.86851  0.39337  0.72755  1.0000
  H   H2278     1.0  0.78932  0.49282  0.72411  1.0000
  H   H2279     1.0  0.85003  0.39492  0.72738  1.0000
  C   C1291     1.0  0.80526  0.49255  0.68222  1.0000
  H   H2280     1.0  0.81940  0.49055  0.68996  1.0000
  Fe  Fe144     1.0  0.78878  0.36520  0.77672  1.0000
  S   S289      1.0  0.78765  0.34881  0.79996  1.0000
  S   S290      1.0  0.78619  0.34343  0.75496  1.0000
  Fe  Fe145     1.0  0.78979  0.41475  0.78866  1.0000
  S   S291      1.0  0.78974  0.40349  0.81267  1.0000
  S   S292      1.0  0.78510  0.45001  0.78198  1.0000
  Fe  Fe146     1.0  0.81822  0.38898  0.80605  1.0000
  S   S293      1.0  0.85321  0.39958  0.82154  1.0000
  Fe  Fe147     1.0  0.75928  0.36470  0.80502  1.0000
  S   S294      1.0  0.72384  0.34886  0.81948  1.0000
  S   S295      1.0  0.82156  0.40423  0.78234  1.0000
  S   S296      1.0  0.75737  0.37686  0.78147  1.0000
  S   S297      1.0  0.52271  0.25628  0.80830  1.0000
  S   S298      1.0  0.58084  0.42372  0.79619  1.0000
  Fe  Fe148     1.0  0.58798  0.25510  0.79915  1.0000
  S   S299      1.0  0.57670  0.25830  0.82275  1.0000
  S   S300      1.0  0.62535  0.25607  0.79109  1.0000
  Fe  Fe149     1.0  0.53911  0.25354  0.78566  1.0000
  Fe  Fe150     1.0  0.56315  0.28641  0.81358  1.0000
  S   S301      1.0  0.57327  0.32220  0.82766  1.0000
  Fe  Fe151     1.0  0.53704  0.22782  0.81636  1.0000
  S   S302      1.0  0.57842  0.28618  0.79061  1.0000
  S   S303      1.0  0.54952  0.22207  0.79307  1.0000
  Fe  Fe152     1.0  0.85925  0.37779  0.91109  1.0000
  S   S304      1.0  0.88245  0.36326  0.92543  1.0000
  S   S305      1.0  0.84182  0.35792  0.88869  1.0000
  Fe  Fe153     1.0  0.86202  0.41696  0.93521  1.0000
  S   S306      1.0  0.88506  0.40502  0.95096  1.0000
  S   S307      1.0  0.85047  0.44920  0.93954  1.0000
  Fe  Fe154     1.0  0.90886  0.40573  0.93074  1.0000
  S   S308      1.0  0.95305  0.43239  0.92799  1.0000
  Fe  Fe155     1.0  0.85649  0.36381  0.94439  1.0000
  S   S309      1.0  0.83755  0.33336  0.96304  1.0000
  S   S310      1.0  0.88652  0.41962  0.91525  1.0000
  S   S311      1.0  0.83235  0.37621  0.92975  1.0000
  S   S312      1.0  0.54945  0.18102  0.94388  1.0000
  H   H2281     1.0  0.64579  0.39535  0.83103  1.0000
  Fe  Fe156     1.0  0.61905  0.45791  0.80195  1.0000
  H   H2282     1.0  0.64356  0.36526  0.83835  1.0000
  C   C1292     1.0  0.66971  0.35540  0.76765  1.0000
  H   H2283     1.0  0.59463  0.45685  0.93787  1.0000
  C   C1293     1.0  0.54902  0.17662  0.97464  1.0000
  C   C1294     1.0  0.56383  0.18359  0.96158  1.0000
  H   H2284     1.0  0.89806  0.40293  0.77021  1.0000
  H   H2285     1.0  0.57669  0.20882  0.75023  1.0000
  H   H2286     1.0  0.52819  0.16912  0.97394  1.0000
  C   C1295     1.0  0.93501  0.43076  0.88637  1.0000
  H   H2287     1.0  0.62229  0.35650  0.81423  1.0000
  C   C1296     1.0  0.79508  0.40897  0.85406  1.0000
  C   C1297     1.0  0.78532  0.30069  0.95593  1.0000
  C   C1298     1.0  0.80555  0.30795  0.96643  1.0000
  H   H2288     1.0  0.79305  0.42028  0.86364  1.0000
  H   H2289     1.0  0.71711  0.27600  0.75170  1.0000
  H   H2290     1.0  0.78891  0.31041  0.94523  1.0000
  H   H2291     1.0  0.89859  0.38059  0.89350  1.0000
  H   H2292     1.0  0.61753  0.47981  0.87959  1.0000
  H   H2293     1.0  0.54610  0.20444  0.87677  1.0000
  H   H2294     1.0  0.94217  0.39248  0.90069  1.0000
  C   C1299     1.0  0.88664  0.35313  0.76342  1.0000
  C   C1300     1.0  0.68790  0.48411  0.88971  1.0000
  C   C1301     1.0  0.84864  0.48315  0.96064  1.0000
  C   C1302     1.0  0.85546  0.46304  0.95768  1.0000
  H   H2295     1.0  0.99210  0.48241  0.97740  1.0000
  C   C1303     1.0  0.55320  0.25440  0.95902  1.0000
  H   H2296     1.0  0.67369  0.38874  0.83053  1.0000
  H   H2297     1.0  0.52175  0.38564  0.93932  1.0000
  S   S313      1.0  0.51711  0.19434  0.83286  1.0000
  C   C1304     1.0  0.79555  0.46779  0.92584  1.0000
  C   C1305     1.0  0.57727  0.39507  0.80512  1.0000
  C   C1306     1.0  0.56268  0.37070  0.79837  1.0000
  C   C1307     1.0  0.56110  0.34799  0.80518  1.0000
  C   C1308     1.0  0.57340  0.34964  0.81899  1.0000
  C   C1309     1.0  0.58706  0.37387  0.82595  1.0000
  C   C1310     1.0  0.58932  0.39650  0.81893  1.0000
  H   H2298     1.0  0.55293  0.36943  0.78779  1.0000
  H   H2299     1.0  0.55016  0.32923  0.79989  1.0000
  H   H2300     1.0  0.59635  0.37517  0.83669  1.0000
  H   H2301     1.0  0.59991  0.41501  0.82438  1.0000
  C   C1311     1.0  0.84952  0.38840  0.84032  1.0000
  C   C1312     1.0  0.86164  0.40595  0.85220  1.0000
  C   C1313     1.0  0.85969  0.39711  0.86713  1.0000
  C   C1314     1.0  0.84620  0.37052  0.87022  1.0000
  C   C1315     1.0  0.83499  0.35301  0.85826  1.0000
  C   C1316     1.0  0.83640  0.36186  0.84345  1.0000
  H   H2302     1.0  0.87219  0.42649  0.84987  1.0000
  H   H2303     1.0  0.86831  0.41082  0.87623  1.0000
  H   H2304     1.0  0.82506  0.33239  0.86049  1.0000
  H   H2305     1.0  0.82778  0.34812  0.83437  1.0000
  C   C1317     1.0  0.75955  0.44969  0.79277  1.0000
  C   C1318     1.0  0.74595  0.42870  0.80222  1.0000
  C   C1319     1.0  0.72652  0.42856  0.81151  1.0000
  C   C1320     1.0  0.71956  0.44884  0.81090  1.0000
  H   H2306     1.0  0.72681  0.48516  0.80042  1.0000
  C   C1321     1.0  0.75266  0.47014  0.79211  1.0000
  H   H2307     1.0  0.75009  0.41228  0.80234  1.0000
  H   H2308     1.0  0.71636  0.41221  0.81882  1.0000
  H   H2309     1.0  0.75471  0.37698  0.87077  1.0000
  H   H2310     1.0  0.89656  0.39299  0.74340  1.0000
  C   C1322     1.0  0.69678  0.32291  0.81155  1.0000
  C   C1323     1.0  0.69951  0.30804  0.79988  1.0000
  C   C1324     1.0  0.67749  0.28709  0.79388  1.0000
  C   C1325     1.0  0.65274  0.28158  0.79917  1.0000
  C   C1326     1.0  0.65007  0.29665  0.81074  1.0000
  C   C1327     1.0  0.67212  0.31694  0.81712  1.0000
  H   H2311     1.0  0.71858  0.31245  0.79567  1.0000
  H   H2312     1.0  0.67959  0.27516  0.78512  1.0000
  H   H2313     1.0  0.63105  0.29253  0.81488  1.0000
  H   H2314     1.0  0.67004  0.32826  0.82626  1.0000
  H   H2315     1.0  0.63983  0.06094  0.98297  1.0000
  H   H2316     1.0  0.67884  0.36551  0.79078  1.0000
  H   H2317     1.0  0.65115  0.35247  0.81284  1.0000
  Fe  Fe157     1.0  0.50755  0.17308  0.94244  1.0000
  C   C1328     1.0  0.65804  0.39861  0.77467  1.0000
  H   H2318     1.0  0.80226  0.38382  0.86874  1.0000
  N   N73       1.0  0.75251  0.33859  0.86912  1.0000
  C   C1329     1.0  0.76031  0.36540  0.86282  1.0000
  C   C1330     1.0  0.72351  0.32489  0.87187  1.0000
  C   C1331     1.0  0.76620  0.34192  0.88408  1.0000
  C   C1332     1.0  0.76076  0.32239  0.85918  1.0000
  C   C1333     1.0  0.75155  0.31908  0.84268  1.0000
  C   C1334     1.0  0.78941  0.38156  0.85903  1.0000
  C   C1335     1.0  0.75892  0.31669  0.89324  1.0000
  C   C1336     1.0  0.70568  0.33114  0.86119  1.0000
  C   C1337     1.0  0.67706  0.31262  0.86359  1.0000
  C   C1338     1.0  0.76223  0.30331  0.83375  1.0000
  C   C1339     1.0  0.77211  0.32285  0.90865  1.0000
  H   H2319     1.0  0.74975  0.36447  0.85222  1.0000
  H   H2320     1.0  0.71646  0.30342  0.87183  1.0000
  H   H2321     1.0  0.71902  0.32977  0.88326  1.0000
  H   H2322     1.0  0.76273  0.35592  0.89129  1.0000
  H   H2323     1.0  0.78756  0.35042  0.88263  1.0000
  H   H2324     1.0  0.78221  0.33051  0.85919  1.0000
  H   H2325     1.0  0.75366  0.30242  0.86370  1.0000
  H   H2326     1.0  0.75838  0.33817  0.83715  1.0000
  H   H2327     1.0  0.73016  0.30831  0.84198  1.0000
  H   H2328     1.0  0.79478  0.37220  0.84970  1.0000
  H   H2329     1.0  0.76546  0.30363  0.88739  1.0000
  H   H2330     1.0  0.73773  0.30591  0.89508  1.0000
  H   H2331     1.0  0.70832  0.35123  0.86333  1.0000
  H   H2332     1.0  0.70993  0.32977  0.84928  1.0000
  H   H2333     1.0  0.67316  0.29234  0.86087  1.0000
  H   H2334     1.0  0.67140  0.31370  0.87536  1.0000
  H   H2335     1.0  0.66491  0.31807  0.85604  1.0000
  H   H2336     1.0  0.75497  0.30100  0.82201  1.0000
  H   H2337     1.0  0.78373  0.31344  0.83359  1.0000
  H   H2338     1.0  0.75573  0.28368  0.83865  1.0000
  H   H2339     1.0  0.81528  0.41913  0.84986  1.0000
  H   H2340     1.0  0.76606  0.33560  0.91524  1.0000
  H   H2341     1.0  0.76667  0.30455  0.91497  1.0000
  H   H2342     1.0  0.79353  0.33259  0.90746  1.0000
  C   C1340     1.0  0.89964  0.32360  0.74800  1.0000
  H   H2343     1.0  0.68986  0.42936  0.85064  1.0000
  C   C1341     1.0  0.64360  0.36697  0.81409  1.0000
  C   C1342     1.0  0.65227  0.38000  0.82943  1.0000
  H   H2344     1.0  0.61052  0.34507  0.79156  1.0000
  H   H2345     1.0  0.64806  0.33871  0.78795  1.0000
  H   H2346     1.0  0.67418  0.39869  0.80321  1.0000
  H   H2347     1.0  0.67537  0.25060  0.73818  1.0000
  H   H2348     1.0  0.60616  0.23376  0.87589  1.0000
  H   H2349     1.0  0.66487  0.31611  0.77116  1.0000
  C   C1343     1.0  0.66343  0.45163  0.86127  1.0000
  H   H2350     1.0  0.88764  0.35079  0.73877  1.0000
  H   H2351     1.0  0.97777  0.43448  0.89919  1.0000
  H   H2352     1.0  0.81126  0.29873  0.78969  1.0000
  C   C1344     1.0  0.59076  0.19274  0.96253  1.0000
  H   H2353     1.0  0.87648  0.37607  0.98151  1.0000
  H   H2354     1.0  0.61380  0.41994  0.85040  1.0000
  H   H2355     1.0  0.81871  0.39846  0.95877  1.0000
  H   H2356     1.0  0.60230  0.19810  0.95245  1.0000
  N   N74       1.0  0.69088  0.45875  0.86626  1.0000
  H   H2357     1.0  0.52723  0.21134  0.90800  1.0000
  C   C1345     1.0  0.56801  0.21949  0.90612  1.0000
  H   H2358     1.0  0.80853  0.46461  0.93392  1.0000
  H   H2359     1.0  0.54582  0.02200  0.95897  1.0000
  C   C1346     1.0  0.66098  0.35849  0.78365  1.0000
  H   H2360     1.0  0.93453  0.37393  0.85885  1.0000
  H   H2361     1.0  0.78169  0.40831  0.84490  1.0000
  H   H2362     1.0  0.51579  0.34555  0.96369  1.0000
  C   C1347     1.0  0.90100  0.34510  0.88891  1.0000
  H   H2363     1.0  0.80409  0.46985  0.91450  1.0000
  C   C1348     1.0  0.58202  0.11906  0.96957  1.0000
  C   C1349     1.0  0.65307  0.38712  0.80121  1.0000
  H   H2364     1.0  0.64499  0.13860  0.95637  1.0000
  H   H2365     1.0  0.65365  0.34936  0.75942  1.0000
  H   H2366     1.0  0.61568  0.12737  0.94528  1.0000
  C   C1350     1.0  0.86495  0.45354  0.96935  1.0000
  C   C1351     1.0  0.85038  0.49303  0.97528  1.0000
  H   H2367     1.0  0.49934  0.30027  0.96837  1.0000
  H   H2368     1.0  0.87077  0.43851  0.96715  1.0000
  C   C1352     1.0  0.79902  0.39335  0.96313  1.0000
  H   H2369     1.0  0.57700  0.16482  0.91568  1.0000
  H   H2370     1.0  0.49865  0.24064  0.87434  1.0000
  S   S314      1.0  0.63813  0.46585  0.82462  1.0000
  C   C1353     1.0  0.94946  0.41562  0.86415  1.0000
  C   C1354     1.0  0.79894  0.38703  0.73747  1.0000
  S   S315      1.0  0.52349  0.25826  0.76295  1.0000
  C   C1355     1.0  0.61894  0.36131  0.78347  1.0000
  C   C1356     1.0  0.52789  0.10412  0.96481  1.0000
  C   C1357     1.0  0.49753  0.17616  0.86089  1.0000
  C   C1358     1.0  0.72778  0.41663  0.85888  1.0000
  C   C1359     1.0  0.73238  0.46956  0.80107  1.0000
  C   C1360     1.0  0.53262  0.22264  0.74608  1.0000
  H   H2371     1.0  0.65154  0.27331  0.76159  1.0000
  H   H2372     1.0  0.91466  0.42052  0.88221  1.0000
  H   H2373     1.0  0.61117  0.49384  0.97926  1.0000
  C   C1361     1.0  0.51466  0.12534  0.89497  1.0000
  C   C1362     1.0  0.90935  0.37383  0.88576  1.0000
  H   H2374     1.0  0.64185  0.42927  0.88086  1.0000
  H   H2375     1.0  0.76292  0.48633  0.78470  1.0000
  C   C1363     1.0  0.64175  0.42713  0.86850  1.0000
  N   N75       1.0  0.64800  0.37610  0.78545  1.0000
  C   C1364     1.0  0.60878  0.34857  0.76793  1.0000
  H   H2376     1.0  0.60987  0.37437  0.78611  1.0000
  H   H2377     1.0  0.64431  0.40076  0.80286  1.0000
  C   C1365     1.0  0.60816  0.26011  0.74683  1.0000
  S   S316      1.0  0.69357  0.44661  0.82183  1.0000
  H   H2378     1.0  0.60915  0.10153  0.96854  1.0000
  C   C1366     1.0  0.57968  0.34008  0.76622  1.0000
  H   H2379     1.0  0.68771  0.43165  0.78668  1.0000
  H   H2380     1.0  0.70650  0.29695  0.74199  1.0000
  H   H2381     1.0  0.60840  0.21347  0.89650  1.0000
  H   H2382     1.0  0.66183  0.44855  0.84889  1.0000
  H   H2383     1.0  0.56735  0.21330  0.91794  1.0000
  H   H2384     1.0  0.68284  0.44448  0.88900  1.0000
  H   H2385     1.0  0.74489  0.31292  0.97470  1.0000
  H   H2386     1.0  0.68612  0.33312  0.75590  1.0000
  H   H2387     1.0  0.66811  0.48092  0.88656  1.0000
  H   H2388     1.0  0.71744  0.45117  0.76582  1.0000
  H   H2389     1.0  0.92705  0.42136  0.79189  1.0000
  H   H2390     1.0  0.72957  0.41198  0.74079  1.0000
  H   H2391     1.0  0.53798  0.15153  0.87808  1.0000
  H   H2392     1.0  0.68541  0.44702  0.76109  1.0000
  S   S317      1.0  0.65228  0.45598  0.79028  1.0000
  H   H2393     1.0  0.74509  0.27502  0.95091  1.0000
  C   C1367     1.0  0.59187  0.20223  0.74881  1.0000
  H   H2394     1.0  0.84108  0.30686  0.76809  1.0000
  C   C1368     1.0  0.68662  0.41897  0.77708  1.0000
  H   H2395     1.0  0.57260  0.33010  0.75527  1.0000
  C   C1369     1.0  0.69719  0.43653  0.76346  1.0000
  H   H2396     1.0  0.54887  0.42588  0.93354  1.0000
  C   C1370     1.0  0.55499  0.42623  0.95805  1.0000
  C   C1371     1.0  0.88249  0.33755  0.74852  1.0000
  H   H2397     1.0  0.56405  0.23761  0.85625  1.0000
  C   C1372     1.0  0.57914  0.46295  0.93987  1.0000
  H   H2398     1.0  0.75372  0.35756  0.98088  1.0000
  H   H2399     1.0  0.84198  0.49100  0.95155  1.0000
  Fe  Fe158     1.0  0.67253  0.46764  0.81233  1.0000
  C   C1373     1.0  0.60970  0.12102  0.96936  1.0000
  H   H2400     1.0  0.68491  0.41906  0.86950  1.0000
  H   H2401     1.0  0.99264  0.48545  0.95716  1.0000
  H   H2402     1.0  0.49832  0.34038  0.93066  1.0000
  H   H2403     1.0  0.54368  0.23297  0.89286  1.0000
  C   C1374     1.0  0.84490  0.34462  0.77578  1.0000
  H   H2404     1.0  0.87960  0.33405  0.88776  1.0000
  H   H2405     1.0  0.52299  0.44644  0.96764  1.0000
  H   H2406     1.0  0.62533  0.49009  0.85249  1.0000
  H   H2407     1.0  0.82194  0.31864  0.75726  1.0000
  H   H2408     1.0  0.59229  0.44775  0.76305  1.0000
  H   H2409     1.0  0.70286  0.29321  0.76208  1.0000
  H   H2410     1.0  0.71572  0.39979  0.86601  1.0000
  H   H2411     1.0  0.62384  0.20328  0.97715  1.0000
  H   H2412     1.0  0.93331  0.49041  0.88151  1.0000
  H   H2413     1.0  0.71520  0.47684  0.84705  1.0000
  H   H2414     1.0  0.58351  0.41352  0.76355  1.0000
  H   H2415     1.0  0.58398  0.13923  0.97003  1.0000
  H   H2416     1.0  0.58393  0.22209  0.85077  1.0000
  C   C1375     1.0  0.93892  0.39045  0.88830  1.0000
  H   H2417     1.0  0.56361  0.06980  0.95803  1.0000
  C   C1376     1.0  0.90936  0.41130  0.79878  1.0000
  H   H2418     1.0  0.92110  0.46850  0.89708  1.0000
  H   H2419     1.0  0.57717  0.47302  0.92970  1.0000
  C   C1377     1.0  0.87765  0.39366  0.74368  1.0000
  H   H2420     1.0  0.77060  0.47370  0.97441  1.0000
  H   H2421     1.0  0.67250  0.24571  0.75816  1.0000
  N   N76       1.0  0.56458  0.10320  0.98205  1.0000
  H   H2422     1.0  0.69940  0.40966  0.77956  1.0000
  H   H2423     1.0  0.61195  0.33098  0.76679  1.0000
  H   H2424     1.0  0.62560  0.44004  0.75053  1.0000
  H   H2425     1.0  0.62064  0.22833  0.76434  1.0000
  C   C1378     1.0  0.79153  0.36035  0.73778  1.0000
  C   C1379     1.0  0.54582  0.22756  0.90451  1.0000
  H   H2426     1.0  0.64597  0.40922  0.77533  1.0000
  H   H2427     1.0  0.93080  0.41461  0.85989  1.0000
  C   C1380     1.0  0.95193  0.39246  0.85659  1.0000
  N   N77       1.0  0.95046  0.41690  0.88109  1.0000
  C   C1381     1.0  0.76043  0.28049  0.95919  1.0000
  H   H2428     1.0  0.60453  0.25968  0.75914  1.0000
  H   H2429     1.0  0.59863  0.25651  0.85467  1.0000
  C   C1382     1.0  0.60695  0.43406  0.74439  1.0000
  H   H2430     1.0  0.51148  0.42488  0.98338  1.0000
  C   C1383     1.0  0.58302  0.23736  0.85806  1.0000
  H   H2431     1.0  0.97182  0.41348  0.83658  1.0000
  H   H2432     1.0  0.65602  0.39184  0.76291  1.0000
  H   H2433     1.0  0.58544  0.24836  0.88110  1.0000
  H   H2434     1.0  0.94881  0.37882  0.88456  1.0000
  C   C1384     1.0  0.97791  0.43226  0.88679  1.0000
  N   N78       1.0  0.86755  0.36380  0.76686  1.0000
  S   S318      1.0  0.49744  0.20582  0.93831  1.0000
  H   H2435     1.0  0.58693  0.23711  0.90512  1.0000
  H   H2436     1.0  0.69721  0.42496  0.75350  1.0000
  H   H2437     1.0  0.59962  0.17162  0.75858  1.0000
  H   H2438     1.0  0.86218  0.32282  0.74685  1.0000
  H   H2439     1.0  0.73208  0.44548  0.87542  1.0000
  C   C1385     1.0  0.56198  0.07592  0.98242  1.0000
  H   H2440     1.0  0.56708  0.19097  0.87180  1.0000
  H   H2441     1.0  0.59089  0.19449  0.73730  1.0000
  C   C1386     1.0  0.72503  0.44083  0.86369  1.0000
  C   C1387     1.0  0.60298  0.19548  0.97650  1.0000
  H   H2442     1.0  0.57103  0.27035  0.95439  1.0000
  H   H2443     1.0  0.75769  0.40777  0.74590  1.0000
  H   H2444     1.0  0.88707  0.34059  0.77280  1.0000
  H   H2445     1.0  0.53377  0.25528  0.91373  1.0000
  H   H2446     1.0  0.78642  0.37256  0.96062  1.0000
  C   C1388     1.0  0.78229  0.49056  0.94605  1.0000
  H   H2447     1.0  0.59978  0.40493  0.86792  1.0000
  H   H2448     1.0  0.68561  0.37396  0.76380  1.0000
  C   C1389     1.0  0.55062  0.25085  0.91455  1.0000
  C   C1390     1.0  0.89131  0.38494  0.79186  1.0000
  H   H2449     1.0  0.54115  0.16959  0.91120  1.0000
  H   H2450     1.0  0.90218  0.37322  0.79110  1.0000
  C   C1391     1.0  0.75509  0.26743  0.97306  1.0000
  C   C1392     1.0  0.59314  0.48522  0.98538  1.0000
  H   H2451     1.0  0.94972  0.46206  0.86950  1.0000
  H   H2452     1.0  0.83132  0.35307  0.77838  1.0000
  C   C1393     1.0  0.80053  0.39955  0.98015  1.0000
  H   H2453     1.0  0.69719  0.34128  0.77500  1.0000
  C   C1394     1.0  0.78809  0.40912  0.95442  1.0000
  H   H2454     1.0  0.93677  0.39687  0.83490  1.0000
  H   H2455     1.0  0.52858  0.08919  0.95723  1.0000
  H   H2456     1.0  0.49332  0.10202  0.95378  1.0000
  C   C1395     1.0  0.73780  0.39785  0.74104  1.0000
  C   C1396     1.0  0.52839  0.38101  0.95013  1.0000
  H   H2457     1.0  0.96479  0.43393  0.85944  1.0000
  H   H2458     1.0  0.49830  0.11519  0.97251  1.0000
  C   C1397     1.0  0.70984  0.48256  0.85792  1.0000
  H   H2459     1.0  0.57561  0.35720  0.76669  1.0000
  C   C1398     1.0  0.58649  0.23246  0.87453  1.0000
  C   C1399     1.0  0.53546  0.39287  0.97726  1.0000
  H   H2460     1.0  0.53611  0.25565  0.95402  1.0000
  H   H2461     1.0  0.90333  0.37561  0.87416  1.0000
  C   C1400     1.0  0.61929  0.22432  0.75206  1.0000
  H   H2462     1.0  0.96309  0.47204  0.88811  1.0000
  H   H2463     1.0  0.58511  0.47696  0.94936  1.0000
  H   H2464     1.0  0.99015  0.40077  0.88587  1.0000
  H   H2465     1.0  0.87499  0.37531  0.79976  1.0000
  H   H2466     1.0  0.51456  0.23765  0.84892  1.0000
  C   C1401     1.0  0.69439  0.46296  0.88297  1.0000
  C   C1402     1.0  0.58621  0.42991  0.75606  1.0000
  H   H2467     1.0  0.72593  0.38138  0.74846  1.0000
  C   C1403     1.0  0.58537  0.17963  0.75961  1.0000
  C   C1404     1.0  0.68009  0.33520  0.76742  1.0000
  C   C1405     1.0  0.61822  0.18016  0.91411  1.0000
  H   H2468     1.0  0.55287  0.23556  0.95580  1.0000
  H   H2469     1.0  0.79943  0.43020  0.95688  1.0000
  H   H2470     1.0  0.79182  0.30979  0.77857  1.0000
  H   H2471     1.0  0.52425  0.33407  0.93814  1.0000
  H   H2472     1.0  0.51757  0.37582  0.98105  1.0000
  C   C1406     1.0  0.59362  0.18390  0.91334  1.0000
  H   H2473     1.0  0.52499  0.17634  0.89631  1.0000
  H   H2474     1.0  0.63033  0.30212  0.74995  1.0000
  N   N79       1.0  0.53152  0.40127  0.96183  1.0000
  H   H2475     1.0  0.57733  0.40516  0.97899  1.0000
  C   C1407     1.0  0.52834  0.24472  0.74609  1.0000
  H   H2476     1.0  0.56865  0.32635  0.77520  1.0000
  H   H2477     1.0  0.51522  0.12154  0.90714  1.0000
  H   H2478     1.0  0.49685  0.15800  0.85706  1.0000
  H   H2479     1.0  0.78929  0.40606  0.94220  1.0000
  H   H2480     1.0  0.86792  0.39739  0.77820  1.0000
  C   C1408     1.0  0.56540  0.20545  0.87945  1.0000
  C   C1409     1.0  0.80535  0.30087  0.77811  1.0000
  H   H2481     1.0  0.57244  0.42276  0.95721  1.0000
  S   S319      1.0  0.72276  0.24276  0.97665  1.0000
  H   H2482     1.0  0.63568  0.19893  0.91237  1.0000
  C   C1410     1.0  0.62504  0.13695  0.95600  1.0000
  H   H2483     1.0  0.55290  0.24643  0.92641  1.0000
  H   H2484     1.0  0.85148  0.34065  0.78676  1.0000
  H   H2485     1.0  0.98671  0.45229  0.88223  1.0000
  N   N80       1.0  0.62718  0.24935  0.74355  1.0000
  H   H2486     1.0  0.91525  0.40846  0.81023  1.0000
  H   H2487     1.0  0.73802  0.45698  0.85643  1.0000
  H   H2488     1.0  0.53971  0.12351  0.95978  1.0000
  C   C1411     1.0  0.65334  0.26854  0.74966  1.0000
  H   H2489     1.0  0.56829  0.26821  0.91096  1.0000
  H   H2490     1.0  0.57122  0.25699  0.98034  1.0000
  C   C1412     1.0  0.61664  0.28843  0.74160  1.0000
  H   H2491     1.0  0.83500  0.37964  0.97498  1.0000
  H   H2492     1.0  0.53817  0.44622  0.94381  1.0000
  H   H2493     1.0  0.55991  0.37414  0.96987  1.0000
  H   H2494     1.0  0.61761  0.16589  0.90550  1.0000
  C   C1413     1.0  0.98689  0.44165  0.93114  1.0000
  C   C1414     1.0  0.77803  0.49429  0.97806  1.0000
  C   C1415     1.0  0.49987  0.10022  0.96527  1.0000
  C   C1416     1.0  0.79286  0.49231  0.92991  1.0000
  H   H2495     1.0  0.80104  0.39761  0.74785  1.0000
  H   H2496     1.0  0.79483  0.28125  0.77298  1.0000
  H   H2497     1.0  0.61825  0.36180  0.75852  1.0000
  C   C1417     1.0  0.52888  0.23439  0.98292  1.0000
  H   H2498     1.0  0.64395  0.40945  0.86564  1.0000
  C   C1418     1.0  0.59079  0.19464  0.89783  1.0000
  H   H2499     1.0  0.59229  0.18176  0.88894  1.0000
  N   N81       1.0  0.56668  0.19833  0.89560  1.0000
  H   H2500     1.0  0.88098  0.41254  0.74884  1.0000
  C   C1419     1.0  0.53938  0.14906  0.89033  1.0000
  H   H2501     1.0  0.62648  0.15686  0.95643  1.0000
  H   H2502     1.0  0.89924  0.42377  0.79970  1.0000
  C   C1420     1.0  0.61505  0.42267  0.86275  1.0000
  H   H2503     1.0  0.53322  0.21360  0.75659  1.0000
  H   H2504     1.0  0.56744  0.42579  0.75055  1.0000
  H   H2505     1.0  0.61980  0.17269  0.92534  1.0000
  H   H2506     1.0  0.57348  0.11135  0.95841  1.0000
  H   H2507     1.0  0.58537  0.18612  0.77136  1.0000
  H   H2508     1.0  0.60069  0.31566  0.73791  1.0000
  H   H2509     1.0  0.61124  0.43944  0.86563  1.0000
  H   H2510     1.0  0.74835  0.42041  0.85999  1.0000
  C   C1421     1.0  0.50748  0.22097  0.85624  1.0000
  H   H2511     1.0  0.62060  0.13087  0.97957  1.0000
  H   H2512     1.0  0.90714  0.45839  0.87853  1.0000
  H   H2513     1.0  0.84197  0.37704  0.75604  1.0000
  H   H2514     1.0  0.93377  0.43028  0.89880  1.0000
  C   C1422     1.0  0.54254  0.17377  0.89898  1.0000
  H   H2515     1.0  0.72181  0.41172  0.84697  1.0000
  H   H2516     1.0  0.55587  0.14457  0.89253  1.0000
  H   H2517     1.0  0.76390  0.47222  0.94688  1.0000
  H   H2518     1.0  0.56575  0.16392  0.75696  1.0000
  H   H2519     1.0  0.59499  0.19760  0.92247  1.0000
  H   H2520     1.0  0.89432  0.30898  0.75708  1.0000
  C   C1423     1.0  0.88105  0.38820  0.77627  1.0000
  H   H2521     1.0  0.91008  0.33699  0.88082  1.0000
  C   C1424     1.0  0.55335  0.43941  0.94320  1.0000
  H   H2522     1.0  0.65824  0.46772  0.86335  1.0000
  C   C1425     1.0  0.94528  0.45960  0.88164  1.0000
  H   H2523     1.0  0.55958  0.44068  0.96732  1.0000
  H   H2524     1.0  0.96901  0.39038  0.86070  1.0000
  H   H2525     1.0  0.90679  0.36912  0.76289  1.0000
  C   C1426     1.0  0.53826  0.10305  0.98079  1.0000
  H   H2526     1.0  0.76749  0.40289  0.95738  1.0000
  C   C1427     1.0  0.92541  0.46974  0.88490  1.0000
  H   H2527     1.0  0.63289  0.21584  0.74981  1.0000
  H   H2528     1.0  0.90656  0.34254  0.90051  1.0000
  C   C1428     1.0  0.70198  0.28296  0.75136  1.0000
  H   H2529     1.0  0.66059  0.28719  0.74348  1.0000
  H   H2530     1.0  0.53139  0.05478  0.96598  1.0000
  H   H2531     1.0  0.54737  0.38129  0.94752  1.0000
  C   C1429     1.0  0.69636  0.43608  0.86230  1.0000
  H   H2532     1.0  0.78200  0.39946  0.98365  1.0000
  H   H2533     1.0  0.55379  0.27622  0.97861  1.0000
  H   H2534     1.0  0.50166  0.40753  0.95019  1.0000
  C   C1430     1.0  0.85723  0.37102  0.75296  1.0000
  H   H2535     1.0  0.98159  0.40751  0.94336  1.0000
  C   C1431     1.0  0.95410  0.39566  0.83958  1.0000
  C   C1432     1.0  0.80026  0.29486  0.98027  1.0000
  C   C1433     1.0  0.55206  0.05958  0.96792  1.0000
  C   C1434     1.0  0.55901  0.38678  0.97900  1.0000
  H   H2536     1.0  0.74031  0.47873  0.74292  1.0000
  H   H2537     1.0  0.53024  0.21638  0.97962  1.0000
  H   H2538     1.0  0.92042  0.33774  0.74921  1.0000
  C   C1435     1.0  0.67525  0.25987  0.74908  1.0000
  H   H2539     1.0  0.51288  0.10795  0.88864  1.0000
  C   C1436     1.0  0.50686  0.19765  0.85119  1.0000
  H   H2540     1.0  0.58213  0.28968  0.75064  1.0000
  C   C1437     1.0  0.68924  0.48413  0.90682  1.0000
  C   C1438     1.0  0.50554  0.33431  0.94075  1.0000
  H   H2541     1.0  0.71486  0.46861  0.88620  1.0000
  H   H2542     1.0  0.51140  0.23348  0.97702  1.0000
  H   H2543     1.0  0.84705  0.35399  0.74545  1.0000
  H   H2544     1.0  0.81517  0.42018  0.98132  1.0000
  C   C1439     1.0  0.55315  0.25706  0.97606  1.0000
  H   H2545     1.0  0.95533  0.37864  0.83443  1.0000
  H   H2546     1.0  0.77632  0.45048  0.92583  1.0000
  C   C1440     1.0  0.82904  0.31742  0.76864  1.0000
  C   C1441     1.0  0.50709  0.40479  0.96181  1.0000
  C   C1442     1.0  0.50779  0.42749  0.97150  1.0000
  H   H2547     1.0  0.76479  0.46791  0.74619  1.0000
  C   C1443     1.0  0.55371  0.03385  0.96929  1.0000
  H   H2548     1.0  0.58884  0.24772  0.74186  1.0000
  C   C1444     1.0  0.50887  0.35264  0.95393  1.0000
  C   C1445     1.0  0.49845  0.22260  0.87069  1.0000
  H   H2549     1.0  0.79630  0.48768  0.95344  1.0000
  C   C1446     1.0  0.57345  0.49231  0.98209  1.0000
  H   H2550     1.0  0.79219  0.34701  0.97693  1.0000
  H   H2551     1.0  0.49731  0.12834  0.89247  1.0000
  H   H2552     1.0  0.67408  0.46562  0.91133  1.0000
  H   H2553     1.0  0.54227  0.02252  0.97901  1.0000
  H   H2554     1.0  0.50653  0.49577  0.96918  1.0000
  C   C1447     1.0  0.59365  0.29464  0.74015  1.0000
  C   C1448     1.0  0.86656  0.46326  0.98398  1.0000
  H   H2555     1.0  0.57420  0.03742  0.97076  1.0000
  H   H2556     1.0  0.60288  0.39500  0.74281  1.0000
  C   C1449     1.0  0.77529  0.27488  0.98360  1.0000
  H   H2557     1.0  0.77976  0.49424  0.92143  1.0000
  H   H2558     1.0  0.73946  0.49463  0.94123  1.0000
  H   H2559     1.0  0.70865  0.48698  0.91074  1.0000
  H   H2560     1.0  0.72838  0.49247  0.86431  1.0000
  H   H2561     1.0  0.68548  0.49537  0.84466  1.0000
  C   C1450     1.0  0.75518  0.47435  0.73742  1.0000
  H   H2562     1.0  0.89693  0.31336  0.73707  1.0000
  H   H2563     1.0  0.60882  0.45025  0.73703  1.0000
  H   H2564     1.0  0.52027  0.99160  0.17149  1.0000
  H   H2565     1.0  0.54459  0.85977  0.05411  1.0000
  H   H2566     1.0  0.50239  0.83973  0.03148  1.0000
  H   H2567     1.0  0.85308  0.52947  0.20634  1.0000
  H   H2568     1.0  0.87394  0.53202  0.09528  1.0000
  C   C1451     1.0  0.50448  0.93882  0.17669  1.0000
  C   C1452     1.0  0.97499  0.63515  0.00181  1.0000
  C   C1453     1.0  0.86510  0.61308  0.08585  1.0000
  H   H2569     1.0  0.79538  0.54371  0.08495  1.0000
  S   S320      1.0  0.78929  0.51633  0.15341  1.0000
  H   H2570     1.0  0.90364  0.62024  0.04512  1.0000
  H   H2571     1.0  0.87688  0.64190  0.06871  1.0000
  C   C1454     1.0  0.92827  0.57250  0.06997  1.0000
  Fe  Fe159     1.0  0.51023  0.90332  0.02044  1.0000
  S   S321      1.0  0.55376  0.92184  0.02038  1.0000
  H   H2572     1.0  0.80322  0.53155  0.11050  1.0000
  Fe  Fe160     1.0  0.55181  0.95531  0.00782  1.0000
  H   H2573     1.0  0.91969  0.65653  0.02432  1.0000
  H   H2574     1.0  0.53124  0.63198  0.99047  1.0000
  H   H2575     1.0  0.51139  0.88594  0.16346  1.0000
  H   H2576     1.0  0.55535  0.89203  0.15828  1.0000
  C   C1455     1.0  0.55563  0.79791  0.02304  1.0000
  Fe  Fe161     1.0  0.84596  0.55900  0.03577  1.0000
  S   S322      1.0  0.86387  0.59717  0.02352  1.0000
  S   S323      1.0  0.82391  0.55418  0.05765  1.0000
  Fe  Fe162     1.0  0.85962  0.53129  0.01060  1.0000
  S   S324      1.0  0.87865  0.56724  0.99658  1.0000
  S   S325      1.0  0.50610  0.88233  0.99859  1.0000
  Fe  Fe163     1.0  0.89722  0.58775  0.01824  1.0000
  S   S326      1.0  0.93970  0.61371  0.02537  1.0000
  Fe  Fe164     1.0  0.84376  0.57373  0.00291  1.0000
  H   H2577     1.0  0.53633  0.78654  0.05402  1.0000
  S   S327      1.0  0.87996  0.55100  0.03190  1.0000
  S   S328      1.0  0.82392  0.53623  0.01549  1.0000
  H   H2578     1.0  0.61760  0.59149  0.99032  1.0000
  H   H2579     1.0  0.56224  0.79779  0.03467  1.0000
  H   H2580     1.0  0.98742  0.69112  0.08750  1.0000
  S   S329      1.0  0.56863  0.87622  0.99107  1.0000
  H   H2581     1.0  0.77151  0.50519  0.22611  1.0000
  C   C1456     1.0  0.64534  0.52630  0.17017  1.0000
  C   C1457     1.0  0.83824  0.61223  0.08648  1.0000
  H   H2582     1.0  0.51356  0.77943  0.02475  1.0000
  C   C1458     1.0  0.53550  0.98508  0.16967  1.0000
  Fe  Fe165     1.0  0.54920  0.90195  0.99778  1.0000
  S   S330      1.0  0.50607  0.86426  0.10677  1.0000
  H   H2583     1.0  0.57266  0.60579  0.99484  1.0000
  H   H2584     1.0  0.82900  0.60395  0.09735  1.0000
  H   H2585     1.0  0.62231  0.50040  0.15294  1.0000
  H   H2586     1.0  0.91633  0.56141  0.06022  1.0000
  C   C1459     1.0  0.51404  0.88890  0.06341  1.0000
  C   C1460     1.0  0.97120  0.63060  0.01722  1.0000
  H   H2587     1.0  0.96096  0.65191  0.07269  1.0000
  C   C1461     1.0  0.55049  0.89568  0.16981  1.0000
  H   H2588     1.0  0.95842  0.62784  0.99431  1.0000
  H   H2589     1.0  0.94482  0.61083  0.07931  1.0000
  H   H2590     1.0  0.92134  0.63704  0.09145  1.0000
  C   C1462     1.0  0.51219  0.78041  0.22204  1.0000
  H   H2591     1.0  0.95873  0.69185  0.09493  1.0000
  H   H2592     1.0  0.91670  0.67554  0.05635  1.0000
  C   C1463     1.0  0.92249  0.64708  0.08062  1.0000
  C   C1464     1.0  0.58023  0.59254  0.99035  1.0000
  H   H2593     1.0  0.77525  0.55768  0.00194  1.0000
  H   H2594     1.0  0.52924  0.90316  0.05665  1.0000
  H   H2595     1.0  0.92237  0.68796  0.02950  1.0000
  C   C1465     1.0  0.91436  0.63641  0.05312  1.0000
  H   H2596     1.0  0.61208  0.60734  0.00641  1.0000
  H   H2597     1.0  0.54002  0.75578  0.02086  1.0000
  C   C1466     1.0  0.85565  0.56128  0.22078  1.0000
  C   C1467     1.0  0.83005  0.54451  0.07547  1.0000
  C   C1468     1.0  0.81243  0.54089  0.08712  1.0000
  C   C1469     1.0  0.81681  0.53397  0.10161  1.0000
  C   C1470     1.0  0.83916  0.53106  0.10469  1.0000
  C   C1471     1.0  0.85667  0.53438  0.09301  1.0000
  C   C1472     1.0  0.85194  0.54065  0.07840  1.0000
  H   H2598     1.0  0.51179  0.78315  0.23436  1.0000
  C   C1473     1.0  0.77060  0.56566  0.99206  1.0000
  C   C1474     1.0  0.49483  0.92069  0.20199  1.0000
  H   H2599     1.0  0.86532  0.54272  0.06948  1.0000
  C   C1475     1.0  0.52765  0.90235  0.16916  1.0000
  C   C1476     1.0  0.93205  0.60055  0.06968  1.0000
  S   S331      1.0  0.50801  0.93735  0.00927  1.0000
  H   H2600     1.0  0.88977  0.65383  0.04496  1.0000
  H   H2601     1.0  0.51372  0.88778  0.19103  1.0000
  C   C1477     1.0  0.55170  0.84381  0.03299  1.0000
  H   H2602     1.0  0.57074  0.81508  0.01727  1.0000
  H   H2603     1.0  0.82563  0.59968  0.07733  1.0000
  H   H2604     1.0  0.63608  0.55636  0.17897  1.0000
  H   H2605     1.0  0.89879  0.59384  0.08250  1.0000
  C   C1478     1.0  0.55145  0.86623  0.04258  1.0000
  H   H2606     1.0  0.91478  0.66133  0.08306  1.0000
  H   H2607     1.0  0.66561  0.53682  0.17426  1.0000
  C   C1479     1.0  0.49919  0.86749  0.08765  1.0000
  H   H2608     1.0  0.53356  0.91988  0.16212  1.0000
  C   C1480     1.0  0.57864  0.88883  0.04389  1.0000
  H   H2609     1.0  0.49752  0.73754  0.14720  1.0000
  H   H2610     1.0  0.55839  0.85150  0.02153  1.0000
  H   H2611     1.0  0.56737  0.83979  0.03767  1.0000
  H   H2612     1.0  0.86229  0.59303  0.08784  1.0000
  H   H2613     1.0  0.94742  0.57232  0.06928  1.0000
  H   H2614     1.0  0.50308  0.78004  0.07345  1.0000
  H   H2615     1.0  0.77473  0.51417  0.99819  1.0000
  N   N82       1.0  0.90586  0.62758  0.06893  1.0000
  H   H2616     1.0  0.53250  0.96913  0.19164  1.0000
  H   H2617     1.0  0.51552  0.83772  0.01385  1.0000
  H   H2618     1.0  0.94702  0.67870  0.03543  1.0000
  C   C1481     1.0  0.95160  0.66374  0.07687  1.0000
  H   H2619     1.0  0.83969  0.63206  0.08543  1.0000
  C   C1482     1.0  0.52931  0.79916  0.02233  1.0000
  H   H2620     1.0  0.89189  0.58716  0.06303  1.0000
  C   C1483     1.0  0.55391  0.77361  0.01506  1.0000
  C   C1484     1.0  0.51888  0.88551  0.07857  1.0000
  H   H2621     1.0  0.94202  0.60917  0.05907  1.0000
  H   H2622     1.0  0.91866  0.56277  0.08050  1.0000
  H   H2623     1.0  0.51022  0.83723  0.21074  1.0000
  C   C1485     1.0  0.91056  0.66005  0.04766  1.0000
  C   C1486     1.0  0.87814  0.62338  0.07047  1.0000
  H   H2624     1.0  0.56781  0.91199  0.17484  1.0000
  H   H2625     1.0  0.58668  0.89597  0.03260  1.0000
  H   H2626     1.0  0.57773  0.90507  0.05022  1.0000
  H   H2627     1.0  0.59182  0.88272  0.04998  1.0000
  C   C1487     1.0  0.64339  0.51144  0.15538  1.0000
  H   H2628     1.0  0.53541  0.79314  0.08122  1.0000
  H   H2629     1.0  0.87692  0.62561  0.09520  1.0000
  H   H2630     1.0  0.54749  0.77295  0.00323  1.0000
  H   H2631     1.0  0.86767  0.58261  0.22111  1.0000
  C   C1488     1.0  0.53388  0.80359  0.05798  1.0000
  H   H2632     1.0  0.95375  0.67810  0.06804  1.0000
  H   H2633     1.0  0.86566  0.60971  0.06159  1.0000
  H   H2634     1.0  0.57326  0.77382  0.01507  1.0000
  Fe  Fe166     1.0  0.81534  0.50356  0.14060  1.0000
  H   H2635     1.0  0.55313  0.82062  0.05908  1.0000
  C   C1489     1.0  0.52234  0.79734  0.07371  1.0000
  H   H2636     1.0  0.68934  0.51729  0.16927  1.0000
  H   H2637     1.0  0.53790  0.89714  0.08336  1.0000
  C   C1490     1.0  0.51565  0.80873  0.04717  1.0000
  H   H2638     1.0  0.53869  0.87377  0.03739  1.0000
  N   N83       1.0  0.52633  0.81942  0.03194  1.0000
  C   C1491     1.0  0.86455  0.55087  0.20733  1.0000
  C   C1492     1.0  0.51958  0.90656  0.18514  1.0000
  H   H2639     1.0  0.52699  0.80255  0.01024  1.0000
  C   C1493     1.0  0.63503  0.54639  0.16812  1.0000
  H   H2640     1.0  0.83521  0.55725  0.21859  1.0000
  H   H2641     1.0  0.69955  0.52093  0.13523  1.0000
  H   H2642     1.0  0.50887  0.82175  0.05300  1.0000
  S   S332      1.0  0.84635  0.52419  0.12303  1.0000
  C   C1494     1.0  0.90576  0.60152  0.07114  1.0000
  H   H2643     1.0  0.61446  0.53684  0.16431  1.0000
  H   H2644     1.0  0.93498  0.64101  0.05145  1.0000
  C   C1495     1.0  0.96687  0.67892  0.09061  1.0000
  H   H2645     1.0  0.86162  0.55966  0.19686  1.0000
  H   H2646     1.0  0.63318  0.51252  0.17885  1.0000
  C   C1496     1.0  0.68496  0.50794  0.15805  1.0000
  C   C1497     1.0  0.92589  0.67149  0.03337  1.0000
  H   H2647     1.0  0.65102  0.52586  0.14617  1.0000
  H   H2648     1.0  0.88544  0.55578  0.20839  1.0000
  C   C1498     1.0  0.50699  0.82656  0.02426  1.0000
  H   H2649     1.0  0.52363  0.79974  0.21688  1.0000
  H   H2650     1.0  0.96638  0.66539  0.09960  1.0000
  H   H2651     1.0  0.54542  0.87783  0.17650  1.0000
  H   H2652     1.0  0.72947  0.54818  0.99654  1.0000
  H   H2653     1.0  0.64685  0.56127  0.15981  1.0000
  H   H2654     1.0  0.69428  0.54461  0.14620  1.0000
  H   H2655     1.0  0.52184  0.76782  0.21982  1.0000
  C   C1499     1.0  0.60918  0.60451  0.99410  1.0000
  H   H2656     1.0  0.53119  0.58943  0.98624  1.0000
  H   H2657     1.0  0.49836  0.75753  0.19580  1.0000
  Fe  Fe167     1.0  0.50817  0.91801  0.98746  1.0000
  H   H2658     1.0  0.49934  0.92144  0.23311  1.0000
  C   C1500     1.0  0.74462  0.56036  0.98898  1.0000
  H   H2659     1.0  0.57072  0.57373  0.99630  1.0000
  H   H2660     1.0  0.51349  0.93565  0.20666  1.0000
  H   H2661     1.0  0.73269  0.55175  0.16213  1.0000
  H   H2662     1.0  0.54737  0.95718  0.17791  1.0000
  H   H2663     1.0  0.50264  0.76307  0.17013  1.0000
  S   S333      1.0  0.79358  0.50859  0.19697  1.0000
  H   H2664     1.0  0.73745  0.52771  0.15113  1.0000
  C   C1501     1.0  0.70096  0.52929  0.14662  1.0000
  H   H2665     1.0  0.50325  0.93422  0.16448  1.0000
  H   H2666     1.0  0.53713  0.92060  0.19129  1.0000
  H   H2667     1.0  0.65753  0.49704  0.13095  1.0000
  H   H2668     1.0  0.84549  0.52704  0.23430  1.0000
  C   C1502     1.0  0.72971  0.54228  0.15093  1.0000
  N   N84       1.0  0.49816  0.91478  0.18588  1.0000
  H   H2669     1.0  0.74085  0.55732  0.14255  1.0000
  C   C1503     1.0  0.53121  0.96226  0.17989  1.0000
  H   H2670     1.0  0.82782  0.50621  0.04843  1.0000
  H   H2671     1.0  0.61965  0.62372  0.98860  1.0000
  H   H2672     1.0  0.99058  0.63721  0.03867  1.0000
  H   H2673     1.0  0.50059  0.89018  0.21394  1.0000
  H   H2674     1.0  0.52015  0.81413  0.07849  1.0000
  H   H2675     1.0  0.53522  0.97946  0.15771  1.0000
  H   H2676     1.0  0.49799  0.78987  0.04604  1.0000
  C   C1504     1.0  0.85818  0.54831  0.23556  1.0000
  H   H2677     1.0  0.51381  0.83956  0.98580  1.0000
  H   H2678     1.0  0.49433  0.50522  0.98561  1.0000
  H   H2679     1.0  0.53227  0.54953  0.98594  1.0000
  Fe  Fe168     1.0  0.88774  0.53539  0.44215  1.0000
  S   S334      1.0  0.89285  0.56722  0.45835  1.0000
  H   H2680     1.0  0.55839  0.82786  0.45776  1.0000
  Fe  Fe169     1.0  0.86838  0.55841  0.41699  1.0000
  S   S335      1.0  0.87317  0.59235  0.43178  1.0000
  S   S336      1.0  0.85182  0.55915  0.39361  1.0000
  Fe  Fe170     1.0  0.91171  0.59368  0.43883  1.0000
  S   S337      1.0  0.95049  0.63088  0.44144  1.0000
  Fe  Fe171     1.0  0.85395  0.56277  0.44994  1.0000
  S   S338      1.0  0.81879  0.55377  0.46552  1.0000
  S   S339      1.0  0.90788  0.56188  0.42296  1.0000
  S   S340      1.0  0.84782  0.52876  0.43484  1.0000
  H   H2681     1.0  0.57181  0.97747  0.46276  1.0000
  S   S341      1.0  0.51817  0.90475  0.45002  1.0000
  H   H2682     1.0  0.89210  0.58655  0.25177  1.0000
  S   S342      1.0  0.54050  0.88226  0.42250  1.0000
  H   H2683     1.0  0.69621  0.51625  0.46905  1.0000
  Fe  Fe172     1.0  0.51441  0.86555  0.44253  1.0000
  C   C1505     1.0  0.98943  0.61982  0.42943  1.0000
  Fe  Fe173     1.0  0.54208  0.92131  0.42927  1.0000
  S   S343      1.0  0.58063  0.95899  0.43091  1.0000
  H   H2684     1.0  0.80091  0.53258  0.26567  1.0000
  C   C1506     1.0  0.50569  0.79512  0.30926  1.0000
  C   C1507     1.0  0.59270  0.64953  0.47991  1.0000
  H   H2685     1.0  0.56851  0.93214  0.46112  1.0000
  C   C1508     1.0  0.59701  0.90341  0.45007  1.0000
  H   H2686     1.0  0.54830  0.72054  0.47067  1.0000
  H   H2687     1.0  0.94897  0.55949  0.37542  1.0000
  H   H2688     1.0  0.54148  0.89847  0.47764  1.0000
  H   H2689     1.0  0.91288  0.64531  0.41708  1.0000
  H   H2690     1.0  0.93418  0.65462  0.34787  1.0000
  H   H2691     1.0  0.60243  0.94614  0.46176  1.0000
  H   H2692     1.0  0.96511  0.54594  0.46489  1.0000
  H   H2693     1.0  0.96680  0.66773  0.39194  1.0000
  C   C1509     1.0  0.67774  0.51392  0.30605  1.0000
  H   H2694     1.0  0.57325  0.79902  0.47117  1.0000
  C   C1510     1.0  0.93356  0.63181  0.37537  1.0000
  H   H2695     1.0  0.74103  0.54184  0.32918  1.0000
  H   H2696     1.0  0.71517  0.54924  0.33493  1.0000
  H   H2697     1.0  0.95353  0.64215  0.33803  1.0000
  C   C1511     1.0  0.58182  0.89304  0.46485  1.0000
  H   H2698     1.0  0.95762  0.62023  0.36081  1.0000
  H   H2699     1.0  0.52521  0.79797  0.30571  1.0000
  C   C1512     1.0  0.92088  0.62060  0.40135  1.0000
  H   H2700     1.0  0.82564  0.55638  0.36578  1.0000
  H   H2701     1.0  0.64814  0.66327  0.43389  1.0000
  H   H2702     1.0  0.96616  0.65051  0.40846  1.0000
  C   C1513     1.0  0.50281  0.79067  0.32614  1.0000
  C   C1514     1.0  0.95217  0.63632  0.36209  1.0000
  C   C1515     1.0  0.83871  0.50882  0.35092  1.0000
  C   C1516     1.0  0.87096  0.59877  0.26745  1.0000
  C   C1517     1.0  0.72853  0.54128  0.33876  1.0000
  H   H2703     1.0  0.65866  0.68268  0.48426  1.0000
  H   H2704     1.0  0.72878  0.51007  0.24905  1.0000
  C   C1518     1.0  0.52173  0.81320  0.46902  1.0000
  C   C1519     1.0  0.56961  0.65215  0.47247  1.0000
  H   H2705     1.0  0.65811  0.70691  0.45684  1.0000
  S   S344      1.0  0.80980  0.50705  0.29500  1.0000
  C   C1520     1.0  0.62190  0.69716  0.47986  1.0000
  H   H2706     1.0  0.61772  0.64874  0.45593  1.0000
  C   C1521     1.0  0.85254  0.50583  0.36321  1.0000
  C   C1522     1.0  0.82895  0.52708  0.35198  1.0000
  C   C1523     1.0  0.78040  0.59608  0.47880  1.0000
  H   H2707     1.0  0.86685  0.51798  0.38584  1.0000
  C   C1524     1.0  0.84676  0.53906  0.37748  1.0000
  C   C1525     1.0  0.85635  0.52067  0.37647  1.0000
  H   H2708     1.0  0.91534  0.53694  0.37781  1.0000
  H   H2709     1.0  0.77330  0.54535  0.24914  1.0000
  S   S345      1.0  0.50802  0.91582  0.41467  1.0000
  C   C1526     1.0  0.83308  0.54216  0.36515  1.0000
  C   C1527     1.0  0.53860  0.77970  0.48431  1.0000
  H   H2710     1.0  0.55228  0.86035  0.48502  1.0000
  H   H2711     1.0  0.87136  0.53088  0.28911  1.0000
  S   S346      1.0  0.74892  0.52130  0.29634  1.0000
  C   C1528     1.0  0.79595  0.56375  0.47340  1.0000
  H   H2712     1.0  0.54737  0.98578  0.42855  1.0000
  H   H2713     1.0  0.51770  0.98284  0.46329  1.0000
  C   C1529     1.0  0.79854  0.58904  0.47200  1.0000
  N   N85       1.0  0.94231  0.62601  0.39021  1.0000
  C   C1530     1.0  0.98028  0.55340  0.45612  1.0000
  H   H2714     1.0  0.81466  0.60328  0.46579  1.0000
  H   H2715     1.0  0.51354  0.70038  0.44276  1.0000
  H   H2716     1.0  0.88752  0.63680  0.38569  1.0000
  H   H2717     1.0  0.88359  0.65534  0.40096  1.0000
  H   H2718     1.0  0.50774  0.97691  0.44391  1.0000
  C   C1531     1.0  0.70377  0.52386  0.30185  1.0000
  H   H2719     1.0  0.89180  0.51861  0.28037  1.0000
  H   H2720     1.0  0.66512  0.50167  0.44813  1.0000
  H   H2721     1.0  0.82744  0.57600  0.24239  1.0000
  H   H2722     1.0  0.90274  0.60351  0.39790  1.0000
  H   H2723     1.0  0.92202  0.61994  0.34490  1.0000
  H   H2724     1.0  0.63264  0.51472  0.45900  1.0000
  C   C1532     1.0  0.54601  0.81428  0.46597  1.0000
  H   H2725     1.0  0.96996  0.65487  0.36374  1.0000
  H   H2726     1.0  0.71481  0.54443  0.29971  1.0000
  H   H2727     1.0  0.71669  0.50396  0.26790  1.0000
  C   C1533     1.0  0.51972  0.71275  0.45291  1.0000
  H   H2728     1.0  0.59078  0.63010  0.47654  1.0000
  S   S347      1.0  0.51014  0.83381  0.45986  1.0000
  C   C1534     1.0  0.93168  0.55458  0.38256  1.0000
  H   H2729     1.0  0.58812  0.87904  0.46984  1.0000
  C   C1535     1.0  0.55440  0.49722  0.45709  1.0000
  H   H2730     1.0  0.58642  0.50828  0.44211  1.0000
  H   H2731     1.0  0.89263  0.63456  0.27996  1.0000
  H   H2732     1.0  0.55650  0.71089  0.45306  1.0000
  C   C1536     1.0  0.58508  0.93720  0.46898  1.0000
  H   H2733     1.0  0.51913  0.76679  0.42780  1.0000
  H   H2734     1.0  0.92616  0.61490  0.41226  1.0000
  H   H2735     1.0  0.97406  0.60134  0.42586  1.0000
  N   N86       1.0  0.85172  0.55827  0.24989  1.0000
  H   H2736     1.0  0.91263  0.62330  0.26980  1.0000
  H   H2737     1.0  0.85718  0.50141  0.27793  1.0000
  H   H2738     1.0  0.85345  0.60209  0.26747  1.0000
  H   H2739     1.0  0.53195  0.68684  0.46461  1.0000
  C   C1537     1.0  0.78468  0.55777  0.25866  1.0000
  C   C1538     1.0  0.71277  0.51337  0.34411  1.0000
  H   H2740     1.0  0.53161  0.88067  0.36898  1.0000
  H   H2741     1.0  0.96385  0.60546  0.38243  1.0000
  H   H2742     1.0  0.61071  0.70289  0.47172  1.0000
  C   C1539     1.0  0.55437  0.79779  0.47360  1.0000
  H   H2743     1.0  0.60758  0.88910  0.42999  1.0000
  H   H2744     1.0  0.57013  0.67129  0.47487  1.0000
  H   H2745     1.0  0.53603  0.88324  0.34120  1.0000
  H   H2746     1.0  0.51812  0.80829  0.33161  1.0000
  C   C1540     1.0  0.58181  0.50088  0.45371  1.0000
  H   H2747     1.0  0.51399  0.79253  0.43632  1.0000
  C   C1541     1.0  0.91396  0.64341  0.40472  1.0000
  H   H2748     1.0  0.97829  0.56930  0.45009  1.0000
  C   C1542     1.0  0.51092  0.80434  0.38357  1.0000
  H   H2749     1.0  0.57803  0.86595  0.43852  1.0000
  C   C1543     1.0  0.77469  0.54564  0.48160  1.0000
  H   H2750     1.0  0.51960  0.82539  0.38087  1.0000
  H   H2751     1.0  0.54217  0.61157  0.47628  1.0000
  H   H2752     1.0  0.66884  0.52689  0.30713  1.0000
  H   H2753     1.0  0.67388  0.69596  0.43353  1.0000
  C   C1544     1.0  0.50444  0.77162  0.43312  1.0000
  C   C1545     1.0  0.50601  0.79523  0.47979  1.0000
  H   H2754     1.0  0.66565  0.68000  0.45936  1.0000
  H   H2755     1.0  0.78928  0.49665  0.46981  1.0000
  H   H2756     1.0  0.74088  0.55378  0.34798  1.0000
  C   C1546     1.0  0.92428  0.57698  0.38292  1.0000
  H   H2757     1.0  0.95167  0.59756  0.40081  1.0000
  H   H2758     1.0  0.61718  0.91828  0.45204  1.0000
  H   H2759     1.0  0.59518  0.51586  0.46163  1.0000
  H   H2760     1.0  0.79084  0.57849  0.25588  1.0000
  C   C1547     1.0  0.73085  0.50137  0.34913  1.0000
  H   H2761     1.0  0.70046  0.51385  0.35351  1.0000
  H   H2762     1.0  0.90659  0.57047  0.38978  1.0000
  C   C1548     1.0  0.87599  0.53708  0.26494  1.0000
  H   H2763     1.0  0.56982  0.64971  0.46014  1.0000
  H   H2764     1.0  0.77198  0.55287  0.26865  1.0000
  H   H2765     1.0  0.64297  0.63753  0.46997  1.0000
  C   C1549     1.0  0.62370  0.66916  0.45961  1.0000
  S   S348      1.0  0.49908  0.86246  0.31688  1.0000
  C   C1550     1.0  0.51449  0.87257  0.36191  1.0000
  H   H2766     1.0  0.87193  0.62078  0.40274  1.0000
  H   H2767     1.0  0.97671  0.53727  0.44813  1.0000
  C   C1551     1.0  0.65177  0.68610  0.45413  1.0000
  H   H2768     1.0  0.92881  0.66251  0.40085  1.0000
  H   H2769     1.0  0.91940  0.57996  0.37128  1.0000
  C   C1552     1.0  0.88769  0.63875  0.39807  1.0000
  H   H2770     1.0  0.91406  0.61611  0.37228  1.0000
  C   C1553     1.0  0.67676  0.51549  0.47052  1.0000
  H   H2771     1.0  0.74381  0.51458  0.35789  1.0000
  C   C1554     1.0  0.94682  0.60208  0.38942  1.0000
  H   H2772     1.0  0.50651  0.77384  0.32890  1.0000
  C   C1555     1.0  0.54033  0.70737  0.46085  1.0000
  H   H2773     1.0  0.52923  0.73329  0.44921  1.0000
  H   H2774     1.0  0.60907  0.87279  0.44694  1.0000
  H   H2775     1.0  0.87194  0.59870  0.24356  1.0000
  H   H2776     1.0  0.81312  0.54190  0.24009  1.0000
  C   C1556     1.0  0.89438  0.62536  0.26933  1.0000
  H   H2777     1.0  0.78284  0.61576  0.47767  1.0000
  H   H2778     1.0  0.49515  0.81462  0.35539  1.0000
  C   C1557     1.0  0.59794  0.88139  0.44086  1.0000
  H   H2779     1.0  0.50861  0.79221  0.35511  1.0000
  H   H2780     1.0  0.58719  0.91242  0.44313  1.0000
  H   H2781     1.0  0.89538  0.63835  0.25991  1.0000
  C   C1558     1.0  0.87246  0.58566  0.25256  1.0000
  H   H2782     1.0  0.93069  0.64964  0.37624  1.0000
  H   H2783     1.0  0.56137  0.88095  0.46111  1.0000
  H   H2784     1.0  0.89311  0.55617  0.26649  1.0000
  C   C1559     1.0  0.85091  0.54022  0.26234  1.0000
  N   N87       1.0  0.61933  0.67046  0.47619  1.0000
  H   H2785     1.0  0.50669  0.80217  0.39575  1.0000
  H   H2786     1.0  0.83494  0.52049  0.26014  1.0000
  Fe  Fe174     1.0  0.50449  0.87607  0.40927  1.0000
  H   H2787     1.0  0.55354  0.51601  0.45584  1.0000
  C   C1560     1.0  0.71576  0.50752  0.30084  1.0000
  H   H2788     1.0  0.62130  0.50479  0.43390  1.0000
  H   H2789     1.0  0.68272  0.65551  0.48548  1.0000
  H   H2790     1.0  0.74385  0.50298  0.33955  1.0000
  C   C1561     1.0  0.98329  0.63720  0.43755  1.0000
  C   C1562     1.0  0.51695  0.87379  0.34613  1.0000
  H   H2791     1.0  0.81850  0.52980  0.34260  1.0000
  H   H2792     1.0  0.93582  0.55004  0.39407  1.0000
  H   H2793     1.0  0.64075  0.69048  0.43125  1.0000
  H   H2794     1.0  0.84601  0.54623  0.27320  1.0000
  C   C1563     1.0  0.80826  0.55311  0.26203  1.0000
  H   H2795     1.0  0.82053  0.50040  0.46363  1.0000
  H   H2796     1.0  0.81889  0.56571  0.27159  1.0000
  H   H2797     1.0  0.87072  0.58704  0.27732  1.0000
  H   H2798     1.0  0.61094  0.67539  0.45311  1.0000
  H   H2799     1.0  0.50480  0.72356  0.47226  1.0000
  H   H2800     1.0  0.90033  0.51694  0.48367  1.0000
  C   C1564     1.0  0.63904  0.66604  0.48538  1.0000
  H   H2801     1.0  0.50953  0.75902  0.45505  1.0000
  H   H2802     1.0  0.67067  0.50979  0.48227  1.0000
  H   H2803     1.0  0.85149  0.51900  0.48242  1.0000
  C   C1565     1.0  0.64094  0.64040  0.48208  1.0000
  C   C1566     1.0  0.65362  0.68374  0.43716  1.0000
  S   S349      1.0  0.90432  0.50878  0.45034  1.0000
  H   H2804     1.0  0.60294  0.50235  0.40889  1.0000
  H   H2805     1.0  0.52515  0.79679  0.38103  1.0000
  C   C1567     1.0  0.87385  0.52102  0.27894  1.0000
  H   H2806     1.0  0.67849  0.53525  0.46851  1.0000
  C   C1568     1.0  0.58874  0.98280  0.47040  1.0000
  H   H2807     1.0  0.72232  0.50732  0.37886  1.0000
  C   C1569     1.0  0.96640  0.64927  0.39597  1.0000
  H   H2808     1.0  0.64238  0.71205  0.47862  1.0000
  H   H2809     1.0  0.77217  0.52598  0.48272  1.0000
  C   C1570     1.0  0.93962  0.63838  0.34735  1.0000
  C   C1571     1.0  0.54375  0.63130  0.47820  1.0000
  C   C1572     1.0  0.82541  0.55783  0.24789  1.0000
  H   H2810     1.0  0.50364  0.81287  0.30634  1.0000
  C   C1573     1.0  0.63279  0.93263  0.48105  1.0000
  H   H2811     1.0  0.49811  0.56991  0.48306  1.0000
  H   H2812     1.0  0.52754  0.63272  0.47217  1.0000
  H   H2813     1.0  0.70005  0.50229  0.33468  1.0000
  C   C1574     1.0  0.58707  0.99257  0.43054  1.0000
  C   C1575     1.0  0.49670  0.70809  0.46347  1.0000
  C   C1576     1.0  0.50082  0.97279  0.45565  1.0000
  C   C1577     1.0  0.49500  0.86229  0.33670  1.0000
  H   H2814     1.0  0.87946  0.52674  0.25532  1.0000
  N   N88       1.0  0.58310  0.91287  0.47649  1.0000
  C   C1578     1.0  0.55800  0.90119  0.48516  1.0000
  H   H2815     1.0  0.60675  0.99051  0.46363  1.0000
  H   H2816     1.0  0.77512  0.49880  0.35732  1.0000
  H   H2817     1.0  0.69884  0.49586  0.40262  1.0000
  H   H2818     1.0  0.63638  0.91930  0.47345  1.0000
  C   C1579     1.0  0.58599  0.95919  0.47945  1.0000
  H   H2819     1.0  0.63605  0.95056  0.47495  1.0000
  C   C1580     1.0  0.49337  0.75514  0.44709  1.0000
  H   H2820     1.0  0.87841  0.55068  0.23597  1.0000
  H   H2821     1.0  0.77897  0.56188  0.58622  1.0000
  C   C1581     1.0  0.50071  0.69784  0.59514  1.0000
  Fe  Fe175     1.0  0.70864  0.50278  0.66051  1.0000
  C   C1582     1.0  0.75825  0.55556  0.58355  1.0000
  H   H2822     1.0  0.82050  0.50978  0.58925  1.0000
  H   H2823     1.0  0.62333  0.62347  0.48614  1.0000
  C   C1583     1.0  0.84779  0.50075  0.48848  1.0000
  C   C1584     1.0  0.66438  0.64014  0.49002  1.0000
  C   C1585     1.0  0.81246  0.51791  0.59795  1.0000
  H   H2824     1.0  0.66433  0.62098  0.48825  1.0000
  Fe  Fe176     1.0  0.67555  0.55249  0.54107  1.0000
  S   S350      1.0  0.68778  0.58903  0.52724  1.0000
  S   S351      1.0  0.68587  0.55728  0.56616  1.0000
  H   H2825     1.0  0.78987  0.49792  0.50086  1.0000
  S   S352      1.0  0.66030  0.55177  0.49851  1.0000
  C   C1586     1.0  0.59083  0.61795  0.57418  1.0000
  Fe  Fe177     1.0  0.69980  0.56803  0.50954  1.0000
  C   C1587     1.0  0.67181  0.53514  0.58114  1.0000
  Fe  Fe178     1.0  0.64743  0.56979  0.51729  1.0000
  S   S353      1.0  0.61690  0.58458  0.51200  1.0000
  S   S354      1.0  0.69047  0.53329  0.52416  1.0000
  S   S355      1.0  0.63483  0.53430  0.53198  1.0000
  Fe  Fe179     1.0  0.54795  0.68066  0.52279  1.0000
  H   H2826     1.0  0.75123  0.56801  0.58966  1.0000
  S   S356      1.0  0.58270  0.67320  0.52966  1.0000
  Fe  Fe180     1.0  0.53341  0.72231  0.50816  1.0000
  H   H2827     1.0  0.69150  0.50848  0.70941  1.0000
  H   H2828     1.0  0.78357  0.51784  0.58273  1.0000
  H   H2829     1.0  0.56790  0.95280  0.48599  1.0000
  C   C1588     1.0  0.76447  0.53803  0.69749  1.0000
  H   H2830     1.0  0.87996  0.53938  0.60508  1.0000
  S   S357      1.0  0.54303  0.71515  0.53194  1.0000
  H   H2831     1.0  0.50808  0.63214  0.63537  1.0000
  C   C1589     1.0  0.58817  0.57192  0.55763  1.0000
  H   H2832     1.0  0.65100  0.95455  0.50139  1.0000
  C   C1590     1.0  0.74325  0.57083  0.63021  1.0000
  H   H2833     1.0  0.59305  0.68727  0.49793  1.0000
  H   H2834     1.0  0.84570  0.53941  0.50789  1.0000
  S   S358      1.0  0.73713  0.58841  0.49554  1.0000
  C   C1591     1.0  0.79838  0.52359  0.69981  1.0000
  H   H2835     1.0  0.74535  0.56911  0.68302  1.0000
  S   S359      1.0  0.55055  0.75957  0.49368  1.0000
  H   H2836     1.0  0.60354  0.93016  0.49711  1.0000
  H   H2837     1.0  0.59525  0.49959  0.50633  1.0000
  H   H2838     1.0  0.60376  0.54924  0.60667  1.0000
  H   H2839     1.0  0.61951  0.50043  0.72740  1.0000
  H   H2840     1.0  0.57641  0.64634  0.57852  1.0000
  C   C1592     1.0  0.75924  0.57805  0.48707  1.0000
  C   C1593     1.0  0.75646  0.55760  0.62111  1.0000
  C   C1594     1.0  0.67057  0.52649  0.60810  1.0000
  H   H2841     1.0  0.74355  0.51434  0.57867  1.0000
  H   H2842     1.0  0.74041  0.53848  0.49461  1.0000
  H   H2843     1.0  0.61898  0.52965  0.60040  1.0000
  H   H2844     1.0  0.51927  0.70356  0.60061  1.0000
  C   C1595     1.0  0.68937  0.50906  0.73356  1.0000
  C   C1596     1.0  0.68089  0.54331  0.59582  1.0000
  H   H2845     1.0  0.81583  0.50864  0.67429  1.0000
  C   C1597     1.0  0.60745  0.60890  0.51782  1.0000
  C   C1598     1.0  0.62456  0.63200  0.52493  1.0000
  C   C1599     1.0  0.61655  0.65123  0.52857  1.0000
  C   C1600     1.0  0.59130  0.64775  0.52517  1.0000
  C   C1601     1.0  0.57400  0.62445  0.51829  1.0000
  C   C1602     1.0  0.58213  0.60534  0.51451  1.0000
  H   H2846     1.0  0.64418  0.63534  0.52734  1.0000
  H   H2847     1.0  0.63014  0.66912  0.53390  1.0000
  H   H2848     1.0  0.55446  0.62129  0.51570  1.0000
  H   H2849     1.0  0.56867  0.58762  0.50896  1.0000
  H   H2850     1.0  0.55273  0.54107  0.53589  1.0000
  H   H2851     1.0  0.87259  0.52820  0.58595  1.0000
  H   H2852     1.0  0.63848  0.56389  0.60355  1.0000
  H   H2853     1.0  0.90320  0.53336  0.59440  1.0000
  N   N89       1.0  0.78050  0.53133  0.70850  1.0000
  C   C1603     1.0  0.89616  0.52551  0.49386  1.0000
  C   C1604     1.0  0.65211  0.50991  0.57888  1.0000
  H   H2854     1.0  0.61643  0.62464  0.55533  1.0000
  H   H2855     1.0  0.49930  0.65858  0.63695  1.0000
  C   C1605     1.0  0.77261  0.52287  0.60571  1.0000
  H   H2856     1.0  0.77417  0.51547  0.61702  1.0000
  S   S360      1.0  0.75154  0.52760  0.65835  1.0000
  Fe  Fe181     1.0  0.65051  0.51808  0.51396  1.0000
  C   C1606     1.0  0.79675  0.55423  0.71841  1.0000
  H   H2857     1.0  0.87949  0.49814  0.61268  1.0000
  H   H2858     1.0  0.69598  0.56284  0.59772  1.0000
  H   H2859     1.0  0.80510  0.58529  0.70160  1.0000
  H   H2860     1.0  0.55816  0.91442  0.49430  1.0000
  H   H2861     1.0  0.79220  0.53289  0.51787  1.0000
  C   C1607     1.0  0.88217  0.52655  0.59645  1.0000
  C   C1608     1.0  0.49881  0.69471  0.57940  1.0000
  H   H2862     1.0  0.66371  0.64321  0.50226  1.0000
  H   H2863     1.0  0.60003  0.55596  0.53859  1.0000
  C   C1609     1.0  0.67948  0.50706  0.71892  1.0000
  H   H2864     1.0  0.73171  0.55808  0.63945  1.0000
  C   C1610     1.0  0.79437  0.52543  0.64711  1.0000
  C   C1611     1.0  0.82861  0.60193  0.72111  1.0000
  S   S361      1.0  0.54212  0.69040  0.49920  1.0000
  H   H2865     1.0  0.73023  0.57545  0.62290  1.0000
  S   S362      1.0  0.64199  0.50324  0.69826  1.0000
  H   H2866     1.0  0.80928  0.54931  0.72597  1.0000
  N   N90       1.0  0.74496  0.51800  0.60288  1.0000
  H   H2867     1.0  0.64485  0.50336  0.56766  1.0000
  H   H2868     1.0  0.75814  0.58921  0.63519  1.0000
  C   C1612     1.0  0.59318  0.64543  0.57297  1.0000
  S   S363      1.0  0.68004  0.51926  0.65791  1.0000
  H   H2869     1.0  0.76765  0.57105  0.61215  1.0000
  H   H2870     1.0  0.77054  0.55496  0.62860  1.0000
  H   H2871     1.0  0.59655  0.53769  0.57941  1.0000
  H   H2872     1.0  0.76220  0.57113  0.70897  1.0000
  C   C1613     1.0  0.86977  0.50713  0.50027  1.0000
  Fe  Fe182     1.0  0.49999  0.66407  0.50271  1.0000
  H   H2873     1.0  0.52166  0.87608  0.50764  1.0000
  H   H2874     1.0  0.83989  0.59722  0.72968  1.0000
  H   H2875     1.0  0.65111  0.92316  0.49998  1.0000
  C   C1614     1.0  0.82544  0.52659  0.51120  1.0000
  H   H2876     1.0  0.60377  0.73224  0.49012  1.0000
  C   C1615     1.0  0.73633  0.53075  0.61504  1.0000
  C   C1616     1.0  0.76232  0.50943  0.71825  1.0000
  H   H2877     1.0  0.61027  0.73024  0.50969  1.0000
  H   H2878     1.0  0.61128  0.65976  0.57849  1.0000
  C   C1617     1.0  0.75651  0.55267  0.48837  1.0000
  H   H2879     1.0  0.81399  0.60643  0.72681  1.0000
  H   H2880     1.0  0.58307  0.58317  0.54916  1.0000
  N   N91       1.0  0.61312  0.58952  0.56574  1.0000
  C   C1618     1.0  0.63633  0.59207  0.55679  1.0000
  H   H2881     1.0  0.71850  0.53801  0.68705  1.0000
  C   C1619     1.0  0.61434  0.61626  0.56675  1.0000
  C   C1620     1.0  0.61336  0.58005  0.58148  1.0000
  C   C1621     1.0  0.61505  0.55407  0.58309  1.0000
  C   C1622     1.0  0.66359  0.61125  0.56302  1.0000
  H   H2882     1.0  0.82530  0.51607  0.52160  1.0000
  H   H2883     1.0  0.80348  0.54641  0.64795  1.0000
  H   H2884     1.0  0.81392  0.50971  0.60897  1.0000
  C   C1623     1.0  0.61930  0.54903  0.59945  1.0000
  C   C1624     1.0  0.67622  0.63661  0.55419  1.0000
  C   C1625     1.0  0.81287  0.54440  0.51476  1.0000
  H   H2885     1.0  0.63451  0.59747  0.54502  1.0000
  H   H2886     1.0  0.63666  0.57307  0.55549  1.0000
  C   C1626     1.0  0.74905  0.55191  0.70412  1.0000
  C   C1627     1.0  0.61362  0.70084  0.49587  1.0000
  C   C1628     1.0  0.63895  0.50253  0.72909  1.0000
  H   H2887     1.0  0.63178  0.62979  0.57319  1.0000
  H   H2888     1.0  0.62933  0.59505  0.58823  1.0000
  H   H2889     1.0  0.59541  0.57722  0.58745  1.0000
  H   H2890     1.0  0.63129  0.55382  0.57663  1.0000
  H   H2891     1.0  0.81301  0.52055  0.48859  1.0000
  H   H2892     1.0  0.66358  0.61592  0.57505  1.0000
  H   H2893     1.0  0.67668  0.60188  0.56209  1.0000
  H   H2894     1.0  0.82327  0.55751  0.52427  1.0000
  H   H2895     1.0  0.54729  0.52166  0.55270  1.0000
  H   H2896     1.0  0.51578  0.69794  0.57290  1.0000
  H   H2897     1.0  0.56461  0.87738  0.50240  1.0000
  H   H2898     1.0  0.67762  0.53314  0.61934  1.0000
  H   H2899     1.0  0.82846  0.52397  0.63832  1.0000
  C   C1629     1.0  0.78416  0.51073  0.59419  1.0000
  H   H2900     1.0  0.63454  0.66552  0.49752  1.0000
  H   H2901     1.0  0.81348  0.52270  0.70730  1.0000
  H   H2902     1.0  0.58984  0.61312  0.58627  1.0000
  H   H2903     1.0  0.66441  0.64740  0.55455  1.0000
  H   H2904     1.0  0.69562  0.64921  0.55906  1.0000
  H   H2905     1.0  0.67894  0.63252  0.54232  1.0000
  C   C1630     1.0  0.80847  0.51275  0.64162  1.0000
  H   H2906     1.0  0.75014  0.51589  0.72505  1.0000
  H   H2907     1.0  0.84213  0.61950  0.71497  1.0000
  C   C1631     1.0  0.74113  0.52676  0.58752  1.0000
  H   H2908     1.0  0.91164  0.52901  0.50227  1.0000
  H   H2909     1.0  0.57223  0.60460  0.56875  1.0000
  H   H2910     1.0  0.71903  0.53277  0.61119  1.0000
  H   H2911     1.0  0.78597  0.54393  0.60615  1.0000
  H   H2912     1.0  0.67282  0.94992  0.48871  1.0000
  H   H2913     1.0  0.80940  0.53877  0.69142  1.0000
  C   C1632     1.0  0.55117  0.87474  0.49288  1.0000
  C   C1633     1.0  0.73277  0.55664  0.69205  1.0000
  C   C1634     1.0  0.56049  0.53040  0.54310  1.0000
  H   H2914     1.0  0.78420  0.55894  0.72606  1.0000
  H   H2915     1.0  0.57168  0.56415  0.56562  1.0000
  H   H2916     1.0  0.73580  0.54018  0.71305  1.0000
  H   H2917     1.0  0.59322  0.65086  0.56101  1.0000
  H   H2918     1.0  0.58984  0.64828  0.49221  1.0000
  H   H2919     1.0  0.76419  0.54921  0.56001  1.0000
  C   C1635     1.0  0.58779  0.54864  0.54864  1.0000
  H   H2920     1.0  0.56115  0.51448  0.53630  1.0000
  H   H2921     1.0  0.73588  0.55426  0.56345  1.0000
  H   H2922     1.0  0.72191  0.56650  0.69709  1.0000
  Fe  Fe183     1.0  0.50062  0.68665  0.53388  1.0000
  H   H2923     1.0  0.77673  0.55038  0.68827  1.0000
  C   C1636     1.0  0.76858  0.51106  0.65150  1.0000
  H   H2924     1.0  0.86684  0.51626  0.51054  1.0000
  C   C1637     1.0  0.81538  0.57929  0.71011  1.0000
  H   H2925     1.0  0.81404  0.55666  0.50492  1.0000
  H   H2926     1.0  0.72999  0.51813  0.62517  1.0000
  H   H2927     1.0  0.75008  0.52013  0.69174  1.0000
  C   C1638     1.0  0.75635  0.56025  0.56682  1.0000
  H   H2928     1.0  0.54171  0.63412  0.49037  1.0000
  H   H2929     1.0  0.83083  0.57621  0.70437  1.0000
  H   H2930     1.0  0.76772  0.58125  0.56435  1.0000
  C   C1639     1.0  0.81096  0.50771  0.49820  1.0000
  H   H2931     1.0  0.63685  0.74299  0.49669  1.0000
  C   C1640     1.0  0.65438  0.50423  0.71659  1.0000
  S   S364      1.0  0.50603  0.65202  0.52580  1.0000
  H   H2932     1.0  0.62573  0.69758  0.50451  1.0000
  H   H2933     1.0  0.50927  0.85924  0.49000  1.0000
  H   H2934     1.0  0.60351  0.90032  0.49240  1.0000
  H   H2935     1.0  0.50204  0.76514  0.49565  1.0000
  H   H2936     1.0  0.59526  0.53711  0.55516  1.0000
  H   H2937     1.0  0.70908  0.51208  0.73528  1.0000
  C   C1641     1.0  0.52367  0.86293  0.49915  1.0000
  H   H2938     1.0  0.82431  0.53934  0.59826  1.0000
  H   H2939     1.0  0.51929  0.84405  0.50455  1.0000
  H   H2940     1.0  0.72086  0.52392  0.58606  1.0000
  C   C1642     1.0  0.61639  0.72831  0.49814  1.0000
  C   C1643     1.0  0.65113  0.50117  0.60584  1.0000
  H   H2941     1.0  0.60275  0.96574  0.48728  1.0000
  C   C1644     1.0  0.86974  0.49853  0.60200  1.0000
  C   C1645     1.0  0.51429  0.77855  0.48732  1.0000
  C   C1646     1.0  0.60504  0.91865  0.48743  1.0000
  C   C1647     1.0  0.65308  0.94049  0.49360  1.0000
  H   H2942     1.0  0.89665  0.54447  0.49092  1.0000
  C   C1648     1.0  0.49292  0.63763  0.63924  1.0000
  C   C1649     1.0  0.77536  0.49844  0.72960  1.0000
  C   C1650     1.0  0.78520  0.49756  0.69100  1.0000
  H   H2943     1.0  0.77069  0.49787  0.68292  1.0000
  C   C1651     1.0  0.62705  0.57939  0.88920  1.0000
  H   H2944     1.0  0.61879  0.67704  0.87586  1.0000
  N   N92       1.0  0.54786  0.57720  0.96792  1.0000
  H   H2945     1.0  0.54827  0.70366  0.77207  1.0000
  S   S365      1.0  0.65968  0.53785  0.83706  1.0000
  H   H2946     1.0  0.71727  0.64868  0.89624  1.0000
  H   H2947     1.0  0.58465  0.57575  0.96970  1.0000
  C   C1652     1.0  0.50602  0.53332  0.96736  1.0000
  C   C1653     1.0  0.52907  0.81646  0.89233  1.0000
  H   H2948     1.0  0.65028  0.58538  0.83823  1.0000
  C   C1654     1.0  0.54463  0.86784  0.94632  1.0000
  H   H2949     1.0  0.70054  0.63495  0.91357  1.0000
  C   C1655     1.0  0.63198  0.49879  0.87620  1.0000
  H   H2950     1.0  0.50225  0.84125  0.79075  1.0000
  H   H2951     1.0  0.71549  0.54170  0.84387  1.0000
  H   H2952     1.0  0.74657  0.49786  0.96757  1.0000
  C   C1656     1.0  0.55407  0.80071  0.92947  1.0000
  S   S366      1.0  0.52085  0.69087  0.96411  1.0000
  Fe  Fe184     1.0  0.52052  0.71306  0.92294  1.0000
  S   S367      1.0  0.55239  0.73603  0.93959  1.0000
  C   C1657     1.0  0.62092  0.61839  0.88359  1.0000
  Fe  Fe185     1.0  0.55044  0.69706  0.94609  1.0000
  S   S368      1.0  0.58468  0.68942  0.95336  1.0000
  Fe  Fe186     1.0  0.52040  0.72791  0.95614  1.0000
  S   S369      1.0  0.51171  0.75649  0.97050  1.0000
  H   H2953     1.0  0.55207  0.74803  0.77346  1.0000
  C   C1658     1.0  0.74724  0.53449  0.94592  1.0000
  Fe  Fe187     1.0  0.64487  0.53596  0.92645  1.0000
  S   S370      1.0  0.67580  0.57637  0.93163  1.0000
  S   S371      1.0  0.63962  0.50899  0.90643  1.0000
  Fe  Fe188     1.0  0.61507  0.53422  0.95559  1.0000
  S   S372      1.0  0.64367  0.57435  0.96262  1.0000
  C   C1659     1.0  0.50826  0.69513  0.87941  1.0000
  Fe  Fe189     1.0  0.64242  0.58513  0.93850  1.0000
  S   S373      1.0  0.63011  0.61408  0.92769  1.0000
  Fe  Fe190     1.0  0.67438  0.56198  0.95549  1.0000
  S   S374      1.0  0.70454  0.56178  0.97255  1.0000
  S   S375      1.0  0.61226  0.54540  0.93197  1.0000
  S   S376      1.0  0.64503  0.52097  0.94973  1.0000
  C   C1660     1.0  0.50736  0.73479  0.87145  1.0000
  H   H2954     1.0  0.69241  0.50921  0.86312  1.0000
  H   H2955     1.0  0.71986  0.62149  0.90469  1.0000
  H   H2956     1.0  0.60544  0.65634  0.89181  1.0000
  H   H2957     1.0  0.53451  0.55493  0.92270  1.0000
  C   C1661     1.0  0.73798  0.57051  0.97620  1.0000
  C   C1662     1.0  0.75790  0.58647  0.96665  1.0000
  H   H2958     1.0  0.51400  0.82945  0.94376  1.0000
  C   C1663     1.0  0.54127  0.83647  0.92535  1.0000
  H   H2959     1.0  0.54804  0.54052  0.94620  1.0000
  H   H2960     1.0  0.55645  0.63035  0.77749  1.0000
  C   C1664     1.0  0.52034  0.64877  0.77096  1.0000
  C   C1665     1.0  0.61570  0.63295  0.93566  1.0000
  C   C1666     1.0  0.59825  0.63833  0.92695  1.0000
  C   C1667     1.0  0.58786  0.65479  0.93236  1.0000
  C   C1668     1.0  0.59543  0.66678  0.94642  1.0000
  C   C1669     1.0  0.61280  0.66133  0.95515  1.0000
  C   C1670     1.0  0.62271  0.64437  0.94988  1.0000
  H   H2961     1.0  0.59284  0.62988  0.91588  1.0000
  H   H2962     1.0  0.57463  0.65886  0.92547  1.0000
  H   H2963     1.0  0.61893  0.67059  0.96600  1.0000
  H   H2964     1.0  0.63645  0.64086  0.95663  1.0000
  C   C1671     1.0  0.52827  0.79030  0.97504  1.0000
  H   H2965     1.0  0.49945  0.63927  0.74242  1.0000
  C   C1672     1.0  0.59825  0.80726  0.93890  1.0000
  C   C1673     1.0  0.49918  0.77536  0.93576  1.0000
  C   C1674     1.0  0.61088  0.65668  0.87985  1.0000
  H   H2966     1.0  0.52864  0.84258  0.91869  1.0000
  C   C1675     1.0  0.53426  0.59235  0.97395  1.0000
  C   C1676     1.0  0.54763  0.62198  0.97087  1.0000
  C   C1677     1.0  0.53526  0.83930  0.94197  1.0000
  H   H2967     1.0  0.54539  0.53890  0.97123  1.0000
  H   H2968     1.0  0.54476  0.83116  0.94970  1.0000
  H   H2969     1.0  0.56609  0.87859  0.94556  1.0000
  H   H2970     1.0  0.72912  0.53436  0.92436  1.0000
  H   H2971     1.0  0.50085  0.89497  0.75083  1.0000
  H   H2972     1.0  0.59327  0.64457  0.87313  1.0000
  H   H2973     1.0  0.58974  0.56444  0.87634  1.0000
  H   H2974     1.0  0.52784  0.57316  0.94670  1.0000
  H   H2975     1.0  0.70222  0.50363  0.88598  1.0000
  C   C1678     1.0  0.65467  0.52923  0.85629  1.0000
  C   C1679     1.0  0.66876  0.54782  0.86732  1.0000
  C   C1680     1.0  0.66462  0.54186  0.88270  1.0000
  C   C1681     1.0  0.64573  0.51751  0.88723  1.0000
  H   H2976     1.0  0.83092  0.52496  0.95493  1.0000
  H   H2977     1.0  0.73109  0.52270  0.83714  1.0000
  H   H2978     1.0  0.68320  0.56680  0.86392  1.0000
  H   H2979     1.0  0.67606  0.55601  0.89107  1.0000
  H   H2980     1.0  0.58729  0.56959  0.89590  1.0000
  H   H2981     1.0  0.67375  0.59339  0.90032  1.0000
  H   H2982     1.0  0.52733  0.82107  0.86825  1.0000
  C   C1682     1.0  0.55532  0.80394  0.97594  1.0000
  S   S377      1.0  0.52125  0.67500  0.92809  1.0000
  C   C1683     1.0  0.64656  0.60468  0.86612  1.0000
  C   C1684     1.0  0.72289  0.52764  0.84722  1.0000
  C   C1685     1.0  0.75672  0.51405  0.94146  1.0000
  H   H2983     1.0  0.84485  0.50832  0.97757  1.0000
  H   H2984     1.0  0.55975  0.59845  0.94715  1.0000
  H   H2985     1.0  0.56694  0.79397  0.97352  1.0000
  C   C1686     1.0  0.63426  0.59106  0.83907  1.0000
  H   H2986     1.0  0.58679  0.83768  0.93632  1.0000
  H   H2987     1.0  0.54208  0.80058  0.87371  1.0000
  H   H2988     1.0  0.59031  0.80157  0.95035  1.0000
  H   H2989     1.0  0.50948  0.75402  0.87399  1.0000
  H   H2990     1.0  0.54013  0.73329  0.75538  1.0000
  C   C1687     1.0  0.66369  0.62307  0.89071  1.0000
  C   C1688     1.0  0.54634  0.81185  0.90425  1.0000
  H   H2991     1.0  0.73840  0.53703  0.85578  1.0000
  H   H2992     1.0  0.49615  0.92033  0.76048  1.0000
  C   C1689     1.0  0.58349  0.81949  0.93035  1.0000
  N   N93       1.0  0.53762  0.80993  0.92037  1.0000
  C   C1690     1.0  0.70658  0.63039  0.90257  1.0000
  H   H2993     1.0  0.75326  0.59461  0.95685  1.0000
  H   H2994     1.0  0.50787  0.76183  0.93749  1.0000
  H   H2995     1.0  0.55171  0.78168  0.92494  1.0000
  H   H2996     1.0  0.76288  0.55442  0.94418  1.0000
  H   H2997     1.0  0.50523  0.77456  0.91244  1.0000
  H   H2998     1.0  0.51302  0.68507  0.75409  1.0000
  H   H2999     1.0  0.59692  0.52611  0.88119  1.0000
  H   H3000     1.0  0.66043  0.59615  0.86557  1.0000
  H   H3001     1.0  0.54757  0.79371  0.90087  1.0000
  H   H3002     1.0  0.56616  0.82797  0.90290  1.0000
  H   H3003     1.0  0.56140  0.85136  0.92298  1.0000
  H   H3004     1.0  0.52834  0.64167  0.79424  1.0000
  H   H3005     1.0  0.79943  0.50304  0.97848  1.0000
  C   C1691     1.0  0.50707  0.68373  0.76600  1.0000
  H   H3006     1.0  0.59228  0.82448  0.91908  1.0000
  H   H3007     1.0  0.54751  0.79675  0.94127  1.0000
  C   C1692     1.0  0.68292  0.61140  0.89365  1.0000
  H   H3008     1.0  0.61533  0.61806  0.89557  1.0000
  N   N94       1.0  0.63910  0.60608  0.88217  1.0000
  C   C1693     1.0  0.53040  0.70595  0.77396  1.0000
  H   H3009     1.0  0.65891  0.62862  0.90181  1.0000
  C   C1694     1.0  0.63138  0.64685  0.87814  1.0000
  H   H3010     1.0  0.64850  0.66008  0.88486  1.0000
  H   H3011     1.0  0.86732  0.56808  0.95998  1.0000
  C   C1695     1.0  0.55829  0.56117  0.94282  1.0000
  H   H3012     1.0  0.65732  0.62450  0.86140  1.0000
  H   H3013     1.0  0.51823  0.73606  0.76889  1.0000
  C   C1696     1.0  0.50933  0.79025  0.92091  1.0000
  H   H3014     1.0  0.53251  0.65783  0.76096  1.0000
  S   S378      1.0  0.55157  0.93713  0.98524  1.0000
  H   H3015     1.0  0.56274  0.54951  0.92032  1.0000
  C   C1697     1.0  0.57569  0.58852  0.97319  1.0000
  C   C1698     1.0  0.52554  0.82982  0.98320  1.0000
  H   H3016     1.0  0.74112  0.53249  0.95779  1.0000
  C   C1699     1.0  0.49476  0.50545  0.97315  1.0000
  H   H3017     1.0  0.56649  0.58222  0.92172  1.0000
  C   C1700     1.0  0.80172  0.53881  0.94976  1.0000
  C   C1701     1.0  0.82650  0.54120  0.95782  1.0000
  H   H3018     1.0  0.70730  0.51237  0.93817  1.0000
  H   H3019     1.0  0.67492  0.64167  0.88472  1.0000
  C   C1702     1.0  0.49844  0.70021  0.85319  1.0000
  H   H3020     1.0  0.54548  0.67491  0.78904  1.0000
  C   C1703     1.0  0.85012  0.56624  0.95344  1.0000
  H   H3021     1.0  0.76328  0.51859  0.92968  1.0000
  H   H3022     1.0  0.61672  0.56726  0.85802  1.0000
  C   C1704     1.0  0.53542  0.73237  0.76750  1.0000
  C   C1705     1.0  0.53391  0.54967  0.97352  1.0000
  S   S379      1.0  0.51767  0.73306  0.90134  1.0000
  C   C1706     1.0  0.56238  0.65066  0.78126  1.0000
  H   H3023     1.0  0.79904  0.60389  0.96216  1.0000
  H   H3024     1.0  0.58747  0.60740  0.96765  1.0000
  H   H3025     1.0  0.80631  0.54360  0.93772  1.0000
  H   H3026     1.0  0.79820  0.55496  0.95435  1.0000
  C   C1707     1.0  0.78389  0.59169  0.96970  1.0000
  H   H3027     1.0  0.82428  0.54185  0.97012  1.0000
  H   H3028     1.0  0.50407  0.66786  0.79549  1.0000
  S   S380      1.0  0.68988  0.51007  0.80778  1.0000
  H   H3029     1.0  0.63679  0.64842  0.86615  1.0000
  C   C1708     1.0  0.58916  0.53404  0.89018  1.0000
  H   H3030     1.0  0.68571  0.50028  0.91132  1.0000
  S   S381      1.0  0.68826  0.51165  0.76412  1.0000
  C   C1709     1.0  0.54767  0.57822  0.95103  1.0000
  H   H3031     1.0  0.55975  0.83548  0.87596  1.0000
  H   H3032     1.0  0.54330  0.65654  0.97626  1.0000
  H   H3033     1.0  0.85433  0.56599  0.94133  1.0000
  H   H3034     1.0  0.84686  0.58348  0.95595  1.0000
  C   C1710     1.0  0.56735  0.83021  0.98073  1.0000
  H   H3035     1.0  0.71800  0.54678  0.93986  1.0000
  H   H3036     1.0  0.60851  0.59399  0.85534  1.0000
  H   H3037     1.0  0.61830  0.57814  0.83150  1.0000
  H   H3038     1.0  0.49902  0.73689  0.84796  1.0000
  H   H3039     1.0  0.63662  0.56776  0.88488  1.0000
  H   H3040     1.0  0.57412  0.66427  0.77238  1.0000
  H   H3041     1.0  0.68998  0.60688  0.88303  1.0000
  H   H3042     1.0  0.53912  0.86922  0.95809  1.0000
  H   H3043     1.0  0.49672  0.79957  0.91783  1.0000
  H   H3044     1.0  0.51107  0.68353  0.88809  1.0000
  H   H3045     1.0  0.59655  0.53108  0.90114  1.0000
  S   S382      1.0  0.82342  0.58715  0.98503  1.0000
  H   H3046     1.0  0.56769  0.52302  0.89011  1.0000
  C   C1711     1.0  0.53858  0.65479  0.78485  1.0000
  H   H3047     1.0  0.58826  0.84036  0.98168  1.0000
  C   C1712     1.0  0.62440  0.58816  0.85516  1.0000
  H   H3048     1.0  0.57926  0.56836  0.94528  1.0000
  H   H3049     1.0  0.63056  0.58094  0.90156  1.0000
  S   S383      1.0  0.63185  0.50019  0.79653  1.0000
  H   H3050     1.0  0.53564  0.87718  0.93899  1.0000
  H   H3051     1.0  0.52718  0.70654  0.78616  1.0000
  H   H3052     1.0  0.51443  0.58484  0.96902  1.0000
  C   C1713     1.0  0.51352  0.80346  0.97871  1.0000
  C   C1714     1.0  0.79045  0.58118  0.98235  1.0000
  C   C1715     1.0  0.50219  0.68539  0.86461  1.0000
  C   C1716     1.0  0.55524  0.56208  0.92585  1.0000
  H   H3053     1.0  0.64129  0.61142  0.83523  1.0000
  H   H3054     1.0  0.57470  0.65442  0.79146  1.0000
  H   H3055     1.0  0.59698  0.78982  0.93284  1.0000
  H   H3056     1.0  0.61902  0.82146  0.93994  1.0000
  H   H3057     1.0  0.60249  0.60709  0.87746  1.0000
  C   C1717     1.0  0.59722  0.56286  0.88752  1.0000
  H   H3058     1.0  0.77249  0.52815  0.97269  1.0000
  N   N95       1.0  0.77779  0.51321  0.95130  1.0000
  H   H3059     1.0  0.50918  0.80019  0.89204  1.0000
  C   C1718     1.0  0.55257  0.84334  0.98449  1.0000
  C   C1719     1.0  0.72401  0.53169  0.93642  1.0000
  H   H3060     1.0  0.63669  0.50277  0.75334  1.0000
  C   C1720     1.0  0.54032  0.81851  0.87663  1.0000
  H   H3061     1.0  0.54826  0.62581  0.95867  1.0000
  C   C1721     1.0  0.50126  0.72505  0.85669  1.0000
  H   H3062     1.0  0.50167  0.89659  0.77101  1.0000
  S   S384      1.0  0.57655  0.51385  0.96742  1.0000
  H   H3063     1.0  0.50416  0.78843  0.94559  1.0000
  C   C1722     1.0  0.51077  0.71988  0.88291  1.0000
  H   H3064     1.0  0.56770  0.63144  0.97538  1.0000
  H   H3065     1.0  0.78583  0.51308  0.73845  1.0000
  H   H3066     1.0  0.81231  0.50914  0.92894  1.0000
  H   H3067     1.0  0.52768  0.83474  0.89461  1.0000
  H   H3068     1.0  0.50567  0.53221  0.95495  1.0000
  C   C1723     1.0  0.76813  0.50914  0.96732  1.0000
  Fe  Fe191     1.0  0.66675  0.49846  0.78620  1.0000
  H   H3069     1.0  0.51254  0.62745  0.76897  1.0000
  C   C1724     1.0  0.67405  0.50747  0.74606  1.0000
  H   H3070     1.0  0.49300  0.54176  0.97097  1.0000
  N   N96       1.0  0.49859  0.65659  0.77191  1.0000
  C   C1725     1.0  0.64861  0.50378  0.74379  1.0000
  H   H3071     1.0  0.50033  0.66625  0.86200  1.0000
  Fe  Fe192     1.0  0.65382  0.50788  0.81870  1.0000
  C   C1726     1.0  0.70066  0.50326  0.85354  1.0000
  C   C1727     1.0  0.63645  0.50455  0.86083  1.0000
  H   H3072     1.0  0.51300  0.62801  0.97321  1.0000
  C   C1728     1.0  0.53276  0.63528  0.97818  1.0000
