data_image0
_chemical_formula_structural       FeS2FeS2FeCFeS3FeS2FeSFeCFeS3C3S2FeS2FeS2FeSFeS3C2H3C6H5CHC4HCH3C6H5C6H4C6H5C2H2C3HC3FeSH5C2H3C2HSC3H2NH3CH4CH4CH4CNC8HC2H28SC2H6C2H2CHCH7CH11NC12H28CH5C2HCHC2H6NHCH2CH4CH10CH3NH4C5H3C2H2CH2SCHCH3CH3CH4CHSCHC2HFeSCFeS2FeHFeS3FeS2FeSCFeSFeS4HCHFeS2FeS2FeSFeS3C3HC6H7C4HFeH3C6H4C6H4C6H5CH3CHC2HCH7SHC7H4CH8C3H5C3H3CH4CHNC12H25CH3CHNC3H2SC6HCH4CNCHCNH4CH3CH3CH7C6HCH6CH6CHNCH2NCH5CHSH2CHCH2CH5CH8C3HCH6C3H9NHC3H10CH4CHC2HFeH3SH3CHCH7CHCH3CHC3FeH2SH2SH3FeS2HSHFeS2FeS2FeSFeS3FeS2H3CH2C6H4C7H4CH2C5SH4C2HCH3C6H8CH3FeH3C2H4CH5C2H3CHC2SC2H2CHC2FeH4SHCH2C2H2NC9HC2H6CH11C3HCH8NC11NH16CH3SCH5CHNHC3H2CH3CH5Fe2H2FeHSCH2CH2CH6SCHSH2SH7CH3SCH3SC2FeNH5CH2C3HC3H3C2HSH4CH3C2HSH2CH2C2HCH2C2HSFeS2FeS2FeSFeS3HCH2C2FeS2CNH2C6H4C6NH2CFeC5H4CHC6H9SH5CH5CHNC8HC3H9CH4CH4C2H6CH3C2H2SH4CHFeHCHC2H5CH3C3H4NC5HCHCHCHSCH8CHCH2C3HSH2CHNC3HCHC2H8C2FeCH7C3HCH6CHC2H2NHCH6FeCH3CHCH6CHCHFeCH2C2HCHCH4CFeC2SHSFeSCH2CH10CH3CHCH4C2H5CH4CHCH3CHCH3S2CH2NSHC2SCFeSHFeS2Fe2S3FeS2FeSCFeSFeS2H2FeS2FeSFeNS2HSHCFeS2HCHCHC2HC7H4C7H4C6H10CH3SH4CHSH7CH7CH2NHC2HCHC3HC4H6C2HCH8CH6NC11H25CNC10HCH15SHC2H3CH4C4HNHCHCH9CH2C2H2CH4CHCH3SCHSH2CHCH2NHC2H2SHC2H2S2H3CHCHFeHFeH2CHCHCH6CFeS2FeHCFeSFeS3FeS2FeSHFeHFeS3HSFeS2FeSFeS3HS2NFeSHC2H2SCHC7H5C6H4C6H9CHCH2CHCH2CHCH3CH4C2SCHCH2C2NHCH2CHNC4SC3H18C3H4CH6C2H5CH8CH4C2H4CH5FeH2CH2C2H7C2H2CH6CH3CHC2H7C3H3FeHFeH2CH8CHCH2SCHCH5C3H2CH4C2HCHCH2C2H2C4H6CH2FeS2FeS2FeSFeS3FeHSFeS2CH2CHC7H5C6H6CHCHC7H3NC2H3C5H2CNC12H26CH2FeCSHCH2C3H4CH3CH4C2H6CH4NC7HNC2SH10CHCHSCH5CHC3HCH7CHNH7C4NCH3CH7CH4CHCH2CFeH3CFeH2SHCH4CHCH2SC2H2C2H3CH3SHCH3C2H3C2FeS2FeS2FeSFeS3CH5SFeS2CH4CH4C2H2FeHC6H4C6H11C7H3CHC5H6NC2H2SHCHC2H5CH7SHCHC2H9SH4C2H5SH3CH2FeH2C6HC2HCHNCH5CH4NHCH2C2HCH2C2H3C3NH4C2H2C3H4CH5CH4C2HCH2C2H4CHCHSHCH4C2H4CHFeSH4C3H3FeCHCH3CHC2H10C2HCH2CH4SH2FeSCFeCSCHSH3CHCHCHCH10CH2CH2SC6H4CH2NH3CHFeCH3CH4SHSHCHCH4SHSCH2C2H4CHC2H4CH10CH2CH12CH2C2H2C2HCH2C2S2CFeH2CH2CHCHCH2C2H3CNHC2H2C2H4CFeCSHC3HS2CHNHSHFeSCH2CHFeS2H6FeS2HCHCHSCHCHCH3CHC4H3CH2C2HCH2C2H4C2HC3H4CHCH2CNH6SC2HNH3CH13C2SCH3C2H4FeH2SH4C2HCH5C2HCH2C2HCFeCHC2H5C2HNHC2H2C2H2CH2CHCHCH2C2HSC2H2C2SC2H8CHC3H2CH3FeCHC3H6S2HSH2FeCHCH3SH2CSH3SHFeS2FeSFeS2FeHFeS3CSFeS2FeS2FeS2FeSFeS3CHC2HC6H6CHSC6H5C4H2CHC6H5C6H7CHC3HCH2C2H4C2HSHCH3NH4CH3C2H2CH4CH5C2H2CSH6CH3C2H4CH2C2H6CH2CH2CHCHCH5CHCHCH2CH2C2HCH2CH4FeCH2CNC3NC3H5CH5C2NC12H30CH14C2H2C2HC2H3CH4CH4C4HCNH5NFeSCHCHC3HCHCNC2H5CH3CHCH3CH2CH6C2H5CH3CH2SCFeSCFeCSHSFeS2FeS2FeSFeS3FeS2FeS2FeSFeS2CS2FeSHSHCH7C6H4CH2C8H6C4H3C7H4C6H8C3HC2H2C2H7CHFeH5C2HCSH3CH11C3HC2HFeH2SHCH5CH3C2H3CH2CNH5CH2CH3C4H2CH5C3HCHC2H8CH16CH4CSCH2CHC3HNH5C3H4C2H3C2H3C2NCHC2HCHNH3CSC2H7CH3CHCHCH6C2H7NFeH4CH2CHCSC2H2CH2NFeCSHC2SC2FeHSCHSHFeS2FeS2FeSFeS3FeS2FeSFeSFeNS2HSHS2HCH3CH3C6H4C3HC6H6C4H3C6H4C6H5CSCH2CNC5HC4H24CH2CH3CHCH2CH3C2SH3C2HCH5C3HCH7CH2NH4CH3CH6CFeHC2HC2H2CH2C4H4CHC2HCHCFeCHCH5CNH3C2HCHC2HSCFeHC6HCH4CH5CNH2CH6CH2CH4CHNC12H20CNH2CHCH16CH2NHCH3CHC3H2CHCH3CHCHC2H4CH10FeSHSFeS2FeS2FeS2FeSFeS3FeSFeS2FeSFeCS2H3S2HC2H4NHC6H4C2H2C6H5C3SNHSC7H4C6H7C3NC11H17CH5CSHC2HNC2HCH4CH2CHCHCH5CHCHCHC2H3C2H5CSH6CH2CH4NHNC12H28CNH2C2H3CHCHCH7CH5CH3CHCH5CH2CHCHCHCH3C2HCHC2H2CH2C2H2CHCH2CH3C2H6CH2NHFeSHCH3C4SH2FeHCHCH7CHCFeSH3SFe2SCFeS2HCH2CH9CH4CH2C4H3C2NCHCHSH3C5H5C2H2CH3CH2C2H6CHCH4CH5CH4CNC2H2C2H2CH6C3H2C2H8CH7NCHC2H2C2HSH6C2HC2H2CH5SC2HCH2CHCH7SCH2C2H2CH3S2C2HCH2SH2SFeS2FeH10FeC2HC2H2CHCHC3H2CFeC6HCH7CFeHC3H2CH3FeC3HSCHCH2CHSH3CH2CHC2H3CH3CH3CHCH3FeH3C2H3C2H4CH2CNC5HC4HCH16CHSH3CH8CNC9HCH11CHCSC2HFeH3C2H5SHC2HNH4CH4CHCH2CH4SH3CS2CSCH6C2NC2HSHFeS2FeS2FeSFeS3H2SHCFeHFeS2H2CH3C2HFeCH2C6H4C7H10C4NH4C4H9SCHSC2HNH2C3HCH8C2HC2HCHCH2CH2CH8CHCH2SH6CH5FeHCHCNC3HC2H8C2H2CHC2HCH2C2HCH2CHCHCHC2H4C2HCH2CHCHCH2NH4CH2CNH2C2H5C4NH2CH4SC3H2CH2CHCHCHCH5FeCSH3CHCH6C2H4CH4FeS2FeS2FeSFeS3FeSHSFeS2H2CHCH3CHC6H5C7H4SC9H5C3H7SCH2NHNH2C3FeCHC2HCH2SCH7CHCH3C2HCHSHC2H2NC7H9NH7C3H2CHCH2CH2CH2CH2CH3C2HCH2FeH6CH2CHC2H6CH3C2NC2H2CH3CH5C3H2CHC3H5FeH2CNCH2C2H3CH3SH2C2HC2H11CH8CH4C2H2SC3H5C4H4NH4CHCH3C2H3C2H2CH2FeS2FeSFeHFeHS2FeS2FeS2FeHFeS3FeSFeS2FeSFeS3H2CHFeS2CH2FeHC6H7C6H9NC6H10NSCHCH2C4HC2H2CH2CH9C4HCH3C2H15C2H2CSH6C3H2C2SH4CH3CH3CH3CH7CH4NCH2C2H4SH4CHCH2CHSCH3CHCHCH3CH2C5H2CH3CNCHC2H7SC3H3NCHCH7CH3CHC3H2CNHC2FeS2FeS2FeSHS2FeS2FeSHFeHFeS3FeHSH2CSFeS2FeSFe2SFeS2NCSHC6H9C6H7C6H5C2HNH2C6H2CHCNCH14C2H2CH2CH2CH2C2HCNC12H30CH4NH3CH2SH3CHSH3C2H4CH4C7H2CH4C2H2CHCHCH3CH4CH2NSH4CHC2H4CH7CH5CSCHCH5CH2CH4CH3CH2CSCHCHCHC3H5C2SHCH2C2S2FeSHFeSC3HCSHFeS2FeS2FeSFeS3FeS2H6CH2FeH2CHC7H4C6H4CH2SC4H5C6H9CSHCH2C5H11C2H8CHCH3SH6CH3C2H3FeSH3CHCHNCHCH2CHNH2C2HC4NCH2SCH2S2H6CH4CHC2HC2HCH3CH2CFeCFeHC2H2CH2CH9C2H3CH5NHCHC3HCH2CHCH2C2H2CH2CH5CHCHCHCH2CH2CH3CHSFeH2CHC2H3SC2H2FeHCH3C3H2CH3SH3CHCHFeSHFeH2CH4CFeS2H2FeSFeS2FeS2FeSFeS3HFeS2H2CHC6H4C7H6C6H3C6H7C3HCHCHFeHCH2CH2C2H2CH2CH3SC2HCH5C2H2CH2CH2CH2CH2CHC4H2CH2FeCS2NHCH3CHCH5SHCHNH2CNHS2CH5CHCHCH5C2H7CHCHCH3C2SH2CH2CH11NHC5H13CH2C2H2C3HC4H8C2H2C2H4CSH2CH4CNCHCHNH4CH4SCHC2HCH3NC2H5CH3FeCH3CHC2H4CHCH2CHS2H2CH5C4FeSCFeSHFeSFeS3FeS2FeSFeSFeS3CSHSCHCSFeS2FeS2FeSFeS3H4C6H4C6H3C8H4C3HC7H4C6H6NHCH2CH4CH3CHCHCHCH2C3H2CH2NH9CHC4H2NCHCH2CHCHSHCHCH7CHCH3CHCHNC12H29CH2NC2HCH3SCH3C2H7CH4CH3C2HCHCH5CH3C2HCH2C2H2C3H8CNH4C2H3CH3FeSH2NSH2CHC2H4C2H3CH3CH3CH2C2H3C2H3C3H4CHFeH2CH2CH5SH6FeS2FeSHFeSFeS3FeS2FeCFeSFeHS2H3SH2FeSFeS2FeS2FeSFeS3HCHC6H4CSHNHC7H3CHCH3C6H4C2H4C6H4C6H3CHC3HCH6NH2C4NH6CH2CH2C4HCH2C3HCHCH3NH10CSCH2C3H5NH2CHCH5CHSHC2H3SCHCHCH2CH2CH3CHCHNH4CH3CH3CHSCHC2H2CHCH2CH4CH3CH7CH4CHCH2CHNC12H23CHNHCHCH3CHCH6C2H2CHCH3CH2CHCHCH2C2H4CHCH3FeH2CH3C2H2CHCHCH6CH8
_chemical_formula_sum              "Fe272 S544 C2448 H4352 N136"
_cell_length_a       61.6208
_cell_length_b       61.1399
_cell_length_c       94.1574
_cell_angle_alpha    91.6471
_cell_angle_beta     91.3868
_cell_angle_gamma    117.954

_space_group_name_H-M_alt    "P 1"
_space_group_IT_number       1

loop_
  _space_group_symop_operation_xyz
  'x, y, z'

loop_
  _atom_site_type_symbol
  _atom_site_label
  _atom_site_symmetry_multiplicity
  _atom_site_fract_x
  _atom_site_fract_y
  _atom_site_fract_z
  _atom_site_occupancy
  Fe  Fe1       1.0  0.26539  0.30932  0.03589  1.0000
  S   S1        1.0  0.28652  0.30837  0.05558  1.0000
  S   S2        1.0  0.26613  0.28936  0.01478  1.0000
  Fe  Fe2       1.0  0.23731  0.33110  0.05270  1.0000
  S   S3        1.0  0.25681  0.33162  0.07329  1.0000
  S   S4        1.0  0.21053  0.34727  0.05514  1.0000
  Fe  Fe3       1.0  0.29172  0.34675  0.06149  1.0000
  C   C1        1.0  0.29536  0.13792  0.09540  1.0000
  Fe  Fe4       1.0  0.25080  0.29352  0.06656  1.0000
  S   S5        1.0  0.23833  0.26648  0.08469  1.0000
  S   S6        1.0  0.27291  0.34883  0.04091  1.0000
  S   S7        1.0  0.22881  0.29194  0.04672  1.0000
  Fe  Fe5       1.0  0.06416  0.31101  0.04743  1.0000
  S   S8        1.0  0.05276  0.33969  0.04085  1.0000
  S   S9        1.0  0.09527  0.30334  0.03989  1.0000
  Fe  Fe6       1.0  0.01824  0.28309  0.06528  1.0000
  S   S10       1.0  0.00373  0.30964  0.06004  1.0000
  Fe  Fe7       1.0  0.01456  0.30705  0.03736  1.0000
  C   C2        1.0  0.28981  0.99570  0.00053  1.0000
  Fe  Fe8       1.0  0.04256  0.34061  0.06381  1.0000
  S   S11       1.0  0.05311  0.37215  0.08103  1.0000
  S   S12       1.0  0.02652  0.27854  0.04258  1.0000
  S   S13       1.0  0.05643  0.31399  0.07031  1.0000
  C   C3        1.0  0.99984  0.36582  0.99677  1.0000
  C   C4        1.0  0.30217  0.31835  0.99595  1.0000
  C   C5        1.0  0.30262  0.15877  0.19726  1.0000
  S   S14       1.0  0.06651  0.03091  0.17132  1.0000
  S   S15       1.0  0.00552  0.02661  0.18432  1.0000
  Fe  Fe9       1.0  0.23417  0.09171  0.11951  1.0000
  S   S16       1.0  0.21082  0.08348  0.13863  1.0000
  S   S17       1.0  0.25669  0.07233  0.11289  1.0000
  Fe  Fe10      1.0  0.23089  0.13973  0.11402  1.0000
  S   S18       1.0  0.20751  0.13531  0.13295  1.0000
  S   S19       1.0  0.24663  0.16802  0.09663  1.0000
  Fe  Fe11      1.0  0.23315  0.12424  0.14470  1.0000
  S   S20       1.0  0.24490  0.13360  0.16826  1.0000
  Fe  Fe12      1.0  0.18665  0.09481  0.12589  1.0000
  S   S21       1.0  0.14465  0.07311  0.12282  1.0000
  S   S22       1.0  0.25793  0.13179  0.12644  1.0000
  S   S23       1.0  0.20842  0.09991  0.10617  1.0000
  C   C6        1.0  0.27523  0.14844  0.17600  1.0000
  C   C7        1.0  0.27882  0.14702  0.19069  1.0000
  H   H1        1.0  0.27178  0.01220  0.08455  1.0000
  H   H2        1.0  0.26307  0.13681  0.19704  1.0000
  H   H3        1.0  0.30438  0.24238  0.12906  1.0000
  C   C8        1.0  0.08771  0.04171  0.15753  1.0000
  C   C9        1.0  0.11295  0.05138  0.16103  1.0000
  C   C10       1.0  0.13060  0.06126  0.15058  1.0000
  C   C11       1.0  0.12317  0.06124  0.13643  1.0000
  C   C12       1.0  0.09787  0.05120  0.13288  1.0000
  C   C13       1.0  0.08022  0.04158  0.14337  1.0000
  H   H4        1.0  0.11895  0.05147  0.17193  1.0000
  H   H5        1.0  0.14997  0.06881  0.15345  1.0000
  H   H6        1.0  0.09196  0.05111  0.12195  1.0000
  H   H7        1.0  0.06092  0.03430  0.14053  1.0000
  H   H8        1.0  0.29309  0.16328  0.15666  1.0000
  C   C14       1.0  0.29570  0.16180  0.16792  1.0000
  H   H9        1.0  0.04090  0.99382  0.11070  1.0000
  C   C15       1.0  0.25807  0.01742  0.08783  1.0000
  C   C16       1.0  0.26471  0.03825  0.09719  1.0000
  C   C17       1.0  0.24718  0.04552  0.10140  1.0000
  C   C18       1.0  0.22282  0.03154  0.09628  1.0000
  H   H10       1.0  0.11092  0.47313  0.09598  1.0000
  C   C19       1.0  0.29607  0.32894  0.10216  1.0000
  H   H11       1.0  0.28360  0.04888  0.10110  1.0000
  H   H12       1.0  0.20909  0.03674  0.09953  1.0000
  H   H13       1.0  0.00933  0.09554  0.20498  1.0000
  C   C20       1.0  0.05353  0.40148  0.08310  1.0000
  C   C21       1.0  0.05774  0.41292  0.09683  1.0000
  C   C22       1.0  0.05719  0.43559  0.09920  1.0000
  C   C23       1.0  0.05266  0.44733  0.08783  1.0000
  C   C24       1.0  0.04877  0.43607  0.07408  1.0000
  C   C25       1.0  0.04921  0.41333  0.07171  1.0000
  H   H14       1.0  0.06105  0.40395  0.10574  1.0000
  H   H15       1.0  0.05988  0.44380  0.10983  1.0000
  H   H16       1.0  0.04531  0.44497  0.06518  1.0000
  H   H17       1.0  0.04611  0.40493  0.06109  1.0000
  H   H18       1.0  0.04058  0.10152  0.13793  1.0000
  C   C26       1.0  0.17845  0.33458  0.05079  1.0000
  C   C27       1.0  0.16566  0.34691  0.05602  1.0000
  C   C28       1.0  0.14031  0.33777  0.05277  1.0000
  C   C29       1.0  0.12740  0.31622  0.04412  1.0000
  C   C30       1.0  0.14020  0.30396  0.03882  1.0000
  C   C31       1.0  0.16551  0.31296  0.04219  1.0000
  H   H19       1.0  0.17550  0.36373  0.06260  1.0000
  H   H20       1.0  0.13081  0.34754  0.05680  1.0000
  H   H21       1.0  0.13046  0.28731  0.03208  1.0000
  H   H22       1.0  0.17506  0.30332  0.03802  1.0000
  C   C32       1.0  0.24010  0.23866  0.08744  1.0000
  C   C33       1.0  0.25124  0.22943  0.07792  1.0000
  C   C34       1.0  0.25294  0.20775  0.08088  1.0000
  C   C35       1.0  0.24329  0.19485  0.09328  1.0000
  C   C36       1.0  0.23199  0.20399  0.10274  1.0000
  C   C37       1.0  0.23050  0.22579  0.09985  1.0000
  H   H23       1.0  0.25854  0.23901  0.06830  1.0000
  H   H24       1.0  0.26172  0.20088  0.07348  1.0000
  H   H25       1.0  0.22454  0.19435  0.11233  1.0000
  H   H26       1.0  0.22183  0.23273  0.10729  1.0000
  H   H27       1.0  0.00056  0.39437  0.05646  1.0000
  C   C38       1.0  0.22705  0.08309  0.07173  1.0000
  C   C39       1.0  0.28773  0.04662  0.14950  1.0000
  H   H28       1.0  0.30665  0.33396  0.00328  1.0000
  H   H29       1.0  0.27317  0.14366  0.07971  1.0000
  C   C40       1.0  0.28361  0.29485  0.99913  1.0000
  C   C41       1.0  0.29618  0.01268  0.98950  1.0000
  C   C42       1.0  0.99767  0.17893  0.07462  1.0000
  H   H30       1.0  0.22880  0.07055  0.07948  1.0000
  C   C43       1.0  0.25541  0.05684  0.06049  1.0000
  C   C44       1.0  0.26177  0.07249  0.16995  1.0000
  C   C45       1.0  0.99663  0.48193  0.16952  1.0000
  Fe  Fe13      1.0  0.02454  0.01201  0.16968  1.0000
  S   S24       1.0  0.00598  0.25212  0.08127  1.0000
  H   H31       1.0  0.26789  0.04148  0.14924  1.0000
  H   H32       1.0  0.25515  0.15191  0.03588  1.0000
  H   H33       1.0  0.26395  0.25654  0.99170  1.0000
  H   H34       1.0  0.31297  0.34670  0.10462  1.0000
  H   H35       1.0  0.08583  0.45622  0.14486  1.0000
  C   C46       1.0  0.00480  0.29861  0.99321  1.0000
  C   C47       1.0  0.05187  0.20807  0.10185  1.0000
  H   H36       1.0  0.07412  0.99386  0.13097  1.0000
  H   H37       1.0  0.24078  0.07206  0.04506  1.0000
  H   H38       1.0  0.04555  0.18780  0.10143  1.0000
  C   C48       1.0  0.29080  0.02981  0.13827  1.0000
  C   C49       1.0  0.25494  0.07957  0.05388  1.0000
  H   H39       1.0  0.01207  0.00666  0.12067  1.0000
  S   S25       1.0  0.05149  0.47586  0.09018  1.0000
  C   C50       1.0  0.27736  0.08988  0.15826  1.0000
  C   C51       1.0  0.21620  0.01081  0.08687  1.0000
  C   C52       1.0  0.99180  0.48279  0.22716  1.0000
  H   H40       1.0  0.26791  0.08209  0.18060  1.0000
  H   H41       1.0  0.00333  0.38523  0.08273  1.0000
  N   N1        1.0  0.25055  0.09659  0.06399  1.0000
  H   H42       1.0  0.31236  0.14579  0.08929  1.0000
  H   H43       1.0  0.26999  0.13323  0.05553  1.0000
  H   H44       1.0  0.01600  0.46686  0.23379  1.0000
  C   C53       1.0  0.24023  0.11283  0.04061  1.0000
  H   H45       1.0  0.99243  0.32454  0.11257  1.0000
  H   H46       1.0  0.22710  0.05419  0.15755  1.0000
  H   H47       1.0  0.27388  0.34771  0.10444  1.0000
  H   H48       1.0  0.14202  0.48732  0.14380  1.0000
  C   C54       1.0  0.29939  0.45474  0.11069  1.0000
  H   H49       1.0  0.29328  0.04261  0.15998  1.0000
  H   H50       1.0  0.22412  0.05315  0.17654  1.0000
  H   H51       1.0  0.30518  0.48560  0.13283  1.0000
  H   H52       1.0  0.00702  0.30295  0.09548  1.0000
  C   C55       1.0  0.30020  0.23702  0.11756  1.0000
  H   H53       1.0  0.23036  0.13078  0.02393  1.0000
  H   H54       1.0  0.01276  0.37339  0.10569  1.0000
  H   H55       1.0  0.00564  0.19904  0.07754  1.0000
  H   H56       1.0  0.01799  0.07449  0.14611  1.0000
  C   C56       1.0  0.27161  0.10710  0.07502  1.0000
  N   N2        1.0  0.05997  0.10143  0.16613  1.0000
  C   C57       1.0  0.07714  0.09785  0.17640  1.0000
  C   C58       1.0  0.03511  0.09317  0.17249  1.0000
  C   C59       1.0  0.05634  0.08500  0.15301  1.0000
  C   C60       1.0  0.07059  0.12782  0.16160  1.0000
  C   C61       1.0  0.07820  0.14817  0.17361  1.0000
  C   C62       1.0  0.10337  0.10539  0.17126  1.0000
  C   C63       1.0  0.03660  0.08309  0.14173  1.0000
  C   C64       1.0  0.03460  0.09727  0.18882  1.0000
  H   H57       1.0  0.29535  0.07574  0.13560  1.0000
  C   C65       1.0  0.09211  0.17400  0.16774  1.0000
  C   C66       1.0  0.11916  0.10199  0.18287  1.0000
  H   H58       1.0  0.05367  0.07560  0.12347  1.0000
  H   H59       1.0  0.06876  0.07803  0.17922  1.0000
  H   H60       1.0  0.07966  0.10829  0.18664  1.0000
  H   H61       1.0  0.27939  0.01010  0.14081  1.0000
  H   H62       1.0  0.02339  0.07285  0.17049  1.0000
  H   H63       1.0  0.05117  0.06574  0.15612  1.0000
  H   H64       1.0  0.07377  0.09141  0.14735  1.0000
  H   H65       1.0  0.08668  0.13239  0.15490  1.0000
  H   H66       1.0  0.05708  0.13015  0.15463  1.0000
  H   H67       1.0  0.09037  0.14660  0.18192  1.0000
  H   H68       1.0  0.06156  0.14713  0.17849  1.0000
  H   H69       1.0  0.10279  0.09381  0.16185  1.0000
  H   H70       1.0  0.11285  0.12512  0.16850  1.0000
  H   H71       1.0  0.27105  0.09232  0.08188  1.0000
  H   H72       1.0  0.00785  0.46283  0.21506  1.0000
  H   H73       1.0  0.03950  0.08437  0.19448  1.0000
  H   H74       1.0  0.04769  0.11635  0.19263  1.0000
  H   H75       1.0  0.30511  0.15754  0.20857  1.0000
  H   H76       1.0  0.00283  0.10413  0.18783  1.0000
  H   H77       1.0  0.29326  0.44473  0.12067  1.0000
  H   H78       1.0  0.09686  0.18828  0.17649  1.0000
  H   H79       1.0  0.10945  0.17650  0.16303  1.0000
  H   H80       1.0  0.08058  0.17690  0.15951  1.0000
  H   H81       1.0  0.12200  0.11459  0.19227  1.0000
  H   H82       1.0  0.11027  0.08251  0.18621  1.0000
  H   H83       1.0  0.13740  0.10632  0.17872  1.0000
  H   H84       1.0  0.30376  0.26297  0.06380  1.0000
  H   H85       1.0  0.28953  0.11472  0.06971  1.0000
  S   S26       1.0  0.00009  0.00815  0.15069  1.0000
  C   C67       1.0  0.20317  0.06804  0.06248  1.0000
  C   C68       1.0  0.18169  0.05230  0.07169  1.0000
  H   H86       1.0  0.20498  0.05523  0.05462  1.0000
  H   H87       1.0  0.22216  0.09608  0.03936  1.0000
  H   H88       1.0  0.23797  0.04537  0.06570  1.0000
  H   H89       1.0  0.18524  0.03837  0.07717  1.0000
  H   H90       1.0  0.17872  0.06415  0.07976  1.0000
  H   H91       1.0  0.16461  0.04228  0.06489  1.0000
  C   C69       1.0  0.00900  0.09202  0.19332  1.0000
  C   C70       1.0  0.25854  0.04029  0.04912  1.0000
  H   H92       1.0  0.19736  0.00029  0.08284  1.0000
  H   H93       1.0  0.03145  0.04827  0.13182  1.0000
  C   C71       1.0  0.00103  0.46314  0.22582  1.0000
  H   H94       1.0  0.00243  0.02168  0.21987  1.0000
  C   C72       1.0  0.98848  0.46501  0.18049  1.0000
  H   H95       1.0  0.27272  0.09025  0.04865  1.0000
  H   H96       1.0  0.30359  0.07349  0.17568  1.0000
  H   H97       1.0  0.10790  0.46330  0.15948  1.0000
  H   H98       1.0  0.01246  0.17347  0.07549  1.0000
  H   H99       1.0  0.31616  0.31187  0.08108  1.0000
  H   H100      1.0  0.29206  0.25013  0.09837  1.0000
  H   H101      1.0  0.28462  0.03251  0.12757  1.0000
  C   C73       1.0  0.23451  0.06495  0.16781  1.0000
  H   H102      1.0  0.28040  0.25739  0.11420  1.0000
  H   H103      1.0  0.10670  0.99403  0.09855  1.0000
  H   H104      1.0  0.25698  0.31455  0.10569  1.0000
  H   H105      1.0  0.11517  0.99350  0.11695  1.0000
  H   H106      1.0  0.19810  0.08085  0.05694  1.0000
  H   H107      1.0  0.01755  0.38245  0.99979  1.0000
  H   H108      1.0  0.31030  0.03373  0.13801  1.0000
  H   H109      1.0  0.02274  0.30802  0.99860  1.0000
  H   H110      1.0  0.02631  0.40936  0.12344  1.0000
  H   H111      1.0  0.15734  0.46864  0.10308  1.0000
  H   H112      1.0  0.25308  0.11009  0.03359  1.0000
  N   N3        1.0  0.09665  0.26263  0.07920  1.0000
  C   C74       1.0  0.12066  0.26201  0.08161  1.0000
  C   C75       1.0  0.07950  0.24863  0.09068  1.0000
  C   C76       1.0  0.08601  0.25119  0.06461  1.0000
  C   C77       1.0  0.10034  0.28884  0.07990  1.0000
  C   C78       1.0  0.11536  0.30528  0.09308  1.0000
  C   C79       1.0  0.14128  0.27744  0.07143  1.0000
  C   C80       1.0  0.05958  0.24703  0.06102  1.0000
  C   C81       1.0  0.07051  0.22028  0.09041  1.0000
  C   C82       1.0  0.31440  0.29575  0.08707  1.0000
  C   C83       1.0  0.11690  0.33096  0.09282  1.0000
  C   C84       1.0  0.16552  0.27777  0.07573  1.0000
  C   C85       1.0  0.05041  0.23427  0.04630  1.0000
  H   H113      1.0  0.11778  0.24268  0.08033  1.0000
  H   H114      1.0  0.12787  0.26804  0.09277  1.0000
  H   H115      1.0  0.08852  0.25602  0.10136  1.0000
  H   H116      1.0  0.06302  0.25171  0.09044  1.0000
  H   H117      1.0  0.08634  0.23327  0.06289  1.0000
  H   H118      1.0  0.09772  0.26316  0.05625  1.0000
  H   H119      1.0  0.10919  0.29866  0.07024  1.0000
  H   H120      1.0  0.08225  0.28868  0.07976  1.0000
  H   H121      1.0  0.13448  0.30802  0.09338  1.0000
  H   H122      1.0  0.10672  0.29688  0.10308  1.0000
  H   H123      1.0  0.13613  0.26930  0.06041  1.0000
  H   H124      1.0  0.14485  0.29695  0.07137  1.0000
  H   H125      1.0  0.05923  0.26499  0.06102  1.0000
  H   H126      1.0  0.04625  0.23523  0.06874  1.0000
  H   H127      1.0  0.06139  0.21115  0.08005  1.0000
  H   H128      1.0  0.08615  0.21640  0.09248  1.0000
  H   H129      1.0  0.30454  0.44351  0.10336  1.0000
  H   H130      1.0  0.02490  0.10176  0.16705  1.0000
  H   H131      1.0  0.30582  0.03236  0.99218  1.0000
  H   H132      1.0  0.12573  0.34035  0.08305  1.0000
  H   H133      1.0  0.09828  0.32952  0.09320  1.0000
  H   H134      1.0  0.12812  0.34253  0.10219  1.0000
  H   H135      1.0  0.17208  0.28656  0.08654  1.0000
  H   H136      1.0  0.16338  0.25868  0.07547  1.0000
  H   H137      1.0  0.17978  0.28878  0.06815  1.0000
  H   H138      1.0  0.05043  0.21611  0.04572  1.0000
  H   H139      1.0  0.03131  0.23099  0.04411  1.0000
  H   H140      1.0  0.06219  0.24618  0.03798  1.0000
  C   C86       1.0  0.10151  0.99501  0.10968  1.0000
  H   H141      1.0  0.22379  0.13761  0.04157  1.0000
  H   H142      1.0  0.02118  0.06563  0.12095  1.0000
  H   H143      1.0  0.29285  0.32665  0.09047  1.0000
  H   H144      1.0  0.26677  0.08328  0.14787  1.0000
  H   H145      1.0  0.06035  0.21579  0.11260  1.0000
  C   C87       1.0  0.10432  0.46995  0.14928  1.0000
  C   C88       1.0  0.12186  0.43922  0.10774  1.0000
  H   H146      1.0  0.29361  0.11680  0.13434  1.0000
  C   C89       1.0  0.12419  0.47315  0.13892  1.0000
  H   H147      1.0  0.98781  0.42364  0.22744  1.0000
  C   C90       1.0  0.03575  0.06717  0.12871  1.0000
  C   C91       1.0  0.12963  0.41888  0.10736  1.0000
  H   H148      1.0  0.28011  0.28995  0.10524  1.0000
  H   H149      1.0  0.27582  0.05081  0.04349  1.0000
  H   H150      1.0  0.98865  0.21749  0.10356  1.0000
  H   H151      1.0  0.25633  0.12043  0.09212  1.0000
  H   H152      1.0  0.00480  0.34160  0.08854  1.0000
  H   H153      1.0  0.12459  0.45522  0.13791  1.0000
  N   N4        1.0  0.30312  0.09311  0.15682  1.0000
  H   H154      1.0  0.27774  0.10801  0.16064  1.0000
  C   C92       1.0  0.00698  0.40581  0.12414  1.0000
  H   H155      1.0  0.29495  0.12304  0.10207  1.0000
  H   H156      1.0  0.99809  0.35490  0.06508  1.0000
  C   C93       1.0  0.27256  0.12777  0.08542  1.0000
  H   H157      1.0  0.11380  0.43898  0.09703  1.0000
  H   H158      1.0  0.10721  0.43409  0.11551  1.0000
  H   H159      1.0  0.00118  0.34913  0.00002  1.0000
  H   H160      1.0  0.29929  0.30865  0.11987  1.0000
  C   C94       1.0  0.27469  0.33129  0.10861  1.0000
  H   H161      1.0  0.25942  0.02453  0.05421  1.0000
  H   H162      1.0  0.27717  0.33374  0.12037  1.0000
  H   H163      1.0  0.24265  0.03255  0.04131  1.0000
  H   H164      1.0  0.03560  0.21111  0.10009  1.0000
  H   H165      1.0  0.29467  0.00241  0.01150  1.0000
  H   H166      1.0  0.27092  0.06263  0.06842  1.0000
  H   H167      1.0  0.14385  0.42270  0.09939  1.0000
  H   H168      1.0  0.13694  0.41743  0.11799  1.0000
  H   H169      1.0  0.11342  0.40079  0.10428  1.0000
  H   H170      1.0  0.25613  0.32479  0.99301  1.0000
  C   C95       1.0  0.23724  0.13466  0.03521  1.0000
  H   H171      1.0  0.29500  0.28124  0.08483  1.0000
  H   H172      1.0  0.23165  0.08156  0.16796  1.0000
  H   H173      1.0  0.24101  0.12644  0.06233  1.0000
  N   N5        1.0  0.13823  0.48627  0.11339  1.0000
  H   H174      1.0  0.22369  0.09647  0.07831  1.0000
  H   H175      1.0  0.28310  0.21900  0.11645  1.0000
  H   H176      1.0  0.99549  0.07233  0.19077  1.0000
  H   H177      1.0  0.26333  0.05524  0.17027  1.0000
  C   C96       1.0  0.25077  0.11805  0.05620  1.0000
  C   C97       1.0  0.29809  0.30647  0.10803  1.0000
  C   C98       1.0  0.27814  0.27483  0.98937  1.0000
  C   C99       1.0  0.23376  0.00365  0.08252  1.0000
  C   C100      1.0  0.29650  0.25662  0.10968  1.0000
  H   H178      1.0  0.00194  0.99337  0.10295  1.0000
  H   H179      1.0  0.10061  0.46676  0.12002  1.0000
  H   H180      1.0  0.99736  0.45367  0.18240  1.0000
  C   C101      1.0  0.99215  0.39310  0.11037  1.0000
  C   C102      1.0  0.30309  0.07421  0.14611  1.0000
  H   H181      1.0  0.15373  0.46347  0.12142  1.0000
  H   H182      1.0  0.00708  0.42390  0.12605  1.0000
  C   C103      1.0  0.14411  0.46502  0.11165  1.0000
  H   H183      1.0  0.28394  0.45658  0.10555  1.0000
  H   H184      1.0  0.29565  0.15290  0.10250  1.0000
  S   S27       1.0  0.02154  0.48419  0.15926  1.0000
  C   C104      1.0  0.99545  0.01096  0.22918  1.0000
  H   H185      1.0  0.30470  0.11713  0.18235  1.0000
  C   C105      1.0  0.31355  0.12323  0.13608  1.0000
  H   H186      1.0  0.98724  0.35748  0.11655  1.0000
  H   H187      1.0  0.30818  0.08987  0.20053  1.0000
  H   H188      1.0  0.99037  0.17595  0.06343  1.0000
  C   C106      1.0  0.99304  0.36849  0.10687  1.0000
  H   H189      1.0  0.10229  0.01338  0.11171  1.0000
  H   H190      1.0  0.99867  0.39417  0.13334  1.0000
  H   H191      1.0  0.00008  0.40641  0.10182  1.0000
  C   C107      1.0  0.31479  0.09140  0.17076  1.0000
  H   H192      1.0  0.31534  0.23444  0.11299  1.0000
  H   H193      1.0  0.07436  0.01683  0.23355  1.0000
  H   H194      1.0  0.10449  0.48798  0.15154  1.0000
  H   H195      1.0  0.22618  0.30141  0.98669  1.0000
  C   C108      1.0  0.11899  0.48107  0.12424  1.0000
  H   H196      1.0  0.98508  0.16872  0.09561  1.0000
  S   S28       1.0  0.98530  0.30018  0.01957  1.0000
  C   C109      1.0  0.98738  0.29467  0.09822  1.0000
  H   H197      1.0  0.98500  0.36704  0.00264  1.0000
  C   C110      1.0  0.98499  0.33313  0.09095  1.0000
  C   C111      1.0  0.12851  0.48978  0.09926  1.0000
  H   H198      1.0  0.31636  0.41334  0.07267  1.0000
  Fe  Fe14      1.0  0.01497  0.30658  0.43337  1.0000
  S   S29       1.0  0.01992  0.27996  0.41843  1.0000
  C   C112      1.0  0.30225  0.23912  0.45965  1.0000
  Fe  Fe15      1.0  0.03699  0.34812  0.41140  1.0000
  S   S30       1.0  0.04304  0.32333  0.39544  1.0000
  S   S31       1.0  0.04999  0.39006  0.40913  1.0000
  Fe  Fe16      1.0  0.00515  0.29398  0.40105  1.0000
  H   H199      1.0  0.06832  0.04268  0.23663  1.0000
  Fe  Fe17      1.0  0.05744  0.31096  0.41422  1.0000
  S   S32       1.0  0.08697  0.29802  0.41592  1.0000
  S   S33       1.0  0.99825  0.31946  0.41600  1.0000
  S   S34       1.0  0.05342  0.33701  0.43005  1.0000
  Fe  Fe18      1.0  0.25923  0.31300  0.43265  1.0000
  S   S35       1.0  0.22348  0.29541  0.41955  1.0000
  S   S36       1.0  0.25400  0.29357  0.45396  1.0000
  Fe  Fe19      1.0  0.28612  0.34793  0.40850  1.0000
  S   S37       1.0  0.25216  0.33178  0.39403  1.0000
  C   C113      1.0  0.26714  0.22212  0.32351  1.0000
  Fe  Fe20      1.0  0.23186  0.33347  0.41335  1.0000
  S   S38       1.0  0.20383  0.34812  0.41040  1.0000
  Fe  Fe21      1.0  0.24558  0.29437  0.40113  1.0000
  S   S39       1.0  0.22648  0.25969  0.38617  1.0000
  S   S40       1.0  0.26638  0.35183  0.42767  1.0000
  S   S41       1.0  0.28088  0.30987  0.41435  1.0000
  S   S42       1.0  0.03901  0.46007  0.36253  1.0000
  H   H200      1.0  0.17487  0.48977  0.33592  1.0000
  C   C114      1.0  0.28123  0.19662  0.30910  1.0000
  H   H201      1.0  0.28417  0.03419  0.48413  1.0000
  Fe  Fe22      1.0  0.24192  0.14458  0.35324  1.0000
  S   S43       1.0  0.22470  0.13607  0.33104  1.0000
  S   S44       1.0  0.26354  0.18326  0.36425  1.0000
  Fe  Fe23      1.0  0.22928  0.08996  0.35725  1.0000
  S   S45       1.0  0.21083  0.07762  0.33537  1.0000
  S   S46       1.0  0.23040  0.06689  0.37583  1.0000
  Fe  Fe24      1.0  0.24318  0.11225  0.32785  1.0000
  S   S47       1.0  0.25838  0.10929  0.30625  1.0000
  Fe  Fe25      1.0  0.19366  0.10227  0.33994  1.0000
  S   S48       1.0  0.15454  0.09561  0.33452  1.0000
  S   S49       1.0  0.26269  0.12283  0.34947  1.0000
  S   S50       1.0  0.20987  0.11257  0.36234  1.0000
  C   C115      1.0  0.28561  0.12815  0.28263  1.0000
  C   C116      1.0  0.28414  0.13149  0.29737  1.0000
  C   C117      1.0  0.19145  0.01125  0.33035  1.0000
  H   H202      1.0  0.27084  0.11242  0.27689  1.0000
  C   C118      1.0  0.07986  0.02468  0.32886  1.0000
  C   C119      1.0  0.08120  0.04814  0.32959  1.0000
  C   C120      1.0  0.10421  0.06957  0.33131  1.0000
  C   C121      1.0  0.12617  0.06785  0.33233  1.0000
  C   C122      1.0  0.12489  0.04439  0.33129  1.0000
  C   C123      1.0  0.10184  0.02293  0.32966  1.0000
  H   H203      1.0  0.06447  0.04979  0.32909  1.0000
  H   H204      1.0  0.10497  0.08761  0.33202  1.0000
  H   H205      1.0  0.14165  0.04286  0.33169  1.0000
  H   H206      1.0  0.11567  0.47265  0.33184  1.0000
  H   H207      1.0  0.00614  0.20755  0.35410  1.0000
  H   H208      1.0  0.10098  0.00486  0.32891  1.0000
  H   H209      1.0  0.02283  0.48797  0.30237  1.0000
  C   C124      1.0  0.28195  0.21817  0.41290  1.0000
  C   C125      1.0  0.23355  0.03110  0.39152  1.0000
  C   C126      1.0  0.23379  0.03973  0.37779  1.0000
  C   C127      1.0  0.23605  0.02627  0.36617  1.0000
  H   H210      1.0  0.08227  0.29188  0.48382  1.0000
  Fe  Fe26      1.0  0.01522  0.99589  0.31940  1.0000
  H   H211      1.0  0.04934  0.99892  0.27744  1.0000
  H   H212      1.0  0.23644  0.03272  0.35557  1.0000
  H   H213      1.0  0.08708  0.27961  0.44440  1.0000
  C   C128      1.0  0.23713  0.23845  0.38057  1.0000
  C   C129      1.0  0.26173  0.24376  0.38246  1.0000
  C   C130      1.0  0.26945  0.22670  0.37734  1.0000
  C   C131      1.0  0.25267  0.20399  0.37048  1.0000
  C   C132      1.0  0.22805  0.19862  0.36868  1.0000
  C   C133      1.0  0.22039  0.21581  0.37364  1.0000
  H   H214      1.0  0.27485  0.26113  0.38769  1.0000
  H   H215      1.0  0.28856  0.23110  0.37873  1.0000
  H   H216      1.0  0.21492  0.18124  0.36345  1.0000
  H   H217      1.0  0.20130  0.21142  0.37218  1.0000
  C   C134      1.0  0.04637  0.40907  0.39605  1.0000
  C   C135      1.0  0.05646  0.43483  0.39904  1.0000
  C   C136      1.0  0.05441  0.45072  0.38904  1.0000
  C   C137      1.0  0.04219  0.44110  0.37580  1.0000
  C   C138      1.0  0.03212  0.41537  0.37281  1.0000
  C   C139      1.0  0.03423  0.39950  0.38280  1.0000
  H   H218      1.0  0.06587  0.44255  0.40923  1.0000
  H   H219      1.0  0.06214  0.47036  0.39163  1.0000
  H   H220      1.0  0.02258  0.40757  0.36266  1.0000
  H   H221      1.0  0.02637  0.37983  0.38026  1.0000
  C   C140      1.0  0.11963  0.31313  0.41504  1.0000
  C   C141      1.0  0.13269  0.30092  0.41997  1.0000
  C   C142      1.0  0.15844  0.31146  0.41882  1.0000
  C   C143      1.0  0.17148  0.33431  0.41261  1.0000
  C   C144      1.0  0.15845  0.34665  0.40785  1.0000
  C   C145      1.0  0.13272  0.33617  0.40904  1.0000
  H   H222      1.0  0.12282  0.28310  0.42464  1.0000
  H   H223      1.0  0.16825  0.30197  0.42273  1.0000
  H   H224      1.0  0.16834  0.36440  0.40309  1.0000
  H   H225      1.0  0.12299  0.34575  0.40511  1.0000
  H   H226      1.0  0.09576  0.35988  0.45302  1.0000
  C   C146      1.0  0.98883  0.44229  0.33479  1.0000
  H   H227      1.0  0.15280  0.47071  0.36649  1.0000
  H   H228      1.0  0.05944  0.23548  0.43856  1.0000
  H   H229      1.0  0.29475  0.99516  0.37340  1.0000
  C   C147      1.0  0.27087  0.29486  0.47001  1.0000
  H   H230      1.0  0.07910  0.26176  0.46004  1.0000
  C   C148      1.0  0.98955  0.12137  0.33031  1.0000
  C   C149      1.0  0.29574  0.31188  0.47250  1.0000
  H   H231      1.0  0.04482  0.25395  0.43400  1.0000
  C   C150      1.0  0.23574  0.00944  0.39367  1.0000
  H   H232      1.0  0.14299  0.35955  0.44337  1.0000
  H   H233      1.0  0.11780  0.48425  0.39241  1.0000
  H   H234      1.0  0.18446  0.00100  0.37265  1.0000
  H   H235      1.0  0.07941  0.46871  0.31821  1.0000
  H   H236      1.0  0.19843  0.21252  0.42462  1.0000
  H   H237      1.0  0.30388  0.26067  0.47879  1.0000
  H   H238      1.0  0.11280  0.31972  0.45212  1.0000
  S   S51       1.0  0.00016  0.28739  0.45445  1.0000
  H   H239      1.0  0.23178  0.04132  0.40060  1.0000
  C   C151      1.0  0.30828  0.31168  0.48525  1.0000
  C   C152      1.0  0.15890  0.03163  0.37371  1.0000
  C   C153      1.0  0.99442  0.47454  0.28549  1.0000
  C   C154      1.0  0.17260  0.01909  0.35238  1.0000
  C   C155      1.0  0.28413  0.19539  0.40771  1.0000
  C   C156      1.0  0.25886  0.27765  0.48046  1.0000
  C   C157      1.0  0.15177  0.04980  0.36624  1.0000
  H   H240      1.0  0.26894  0.20392  0.43361  1.0000
  H   H241      1.0  0.98819  0.15454  0.35946  1.0000
  H   H242      1.0  0.98476  0.45638  0.31473  1.0000
  H   H243      1.0  0.09133  0.44115  0.37839  1.0000
  C   C158      1.0  0.15250  0.06959  0.37681  1.0000
  H   H244      1.0  0.30674  0.26990  0.32792  1.0000
  H   H245      1.0  0.17835  0.04251  0.37778  1.0000
  H   H246      1.0  0.04885  0.27467  0.46637  1.0000
  H   H247      1.0  0.14106  0.22827  0.42082  1.0000
  H   H248      1.0  0.00337  0.46099  0.33852  1.0000
  H   H249      1.0  0.19150  0.03279  0.35630  1.0000
  H   H250      1.0  0.16626  0.02931  0.34525  1.0000
  H   H251      1.0  0.26202  0.26316  0.43457  1.0000
  C   C159      1.0  0.15968  0.99212  0.38936  1.0000
  C   C160      1.0  0.10605  0.40429  0.38109  1.0000
  C   C161      1.0  0.16420  0.99371  0.37318  1.0000
  H   H252      1.0  0.16481  0.05954  0.35786  1.0000
  H   H253      1.0  0.13290  0.04001  0.36136  1.0000
  H   H254      1.0  0.12335  0.42284  0.36228  1.0000
  H   H255      1.0  0.30840  0.17557  0.34752  1.0000
  H   H256      1.0  0.10570  0.29675  0.47197  1.0000
  C   C162      1.0  0.07199  0.26935  0.45161  1.0000
  C   C163      1.0  0.12996  0.99416  0.35872  1.0000
  C   C164      1.0  0.09786  0.32497  0.45330  1.0000
  H   H257      1.0  0.27213  0.23567  0.33273  1.0000
  H   H258      1.0  0.10394  0.38609  0.37711  1.0000
  H   H259      1.0  0.14043  0.45895  0.34916  1.0000
  C   C165      1.0  0.08122  0.03133  0.25548  1.0000
  H   H260      1.0  0.13825  0.06105  0.38479  1.0000
  H   H261      1.0  0.17087  0.07965  0.38238  1.0000
  H   H262      1.0  0.14882  0.08318  0.37102  1.0000
  H   H263      1.0  0.09718  0.43661  0.34568  1.0000
  C   C166      1.0  0.05182  0.24735  0.44301  1.0000
  H   H264      1.0  0.26406  0.22469  0.45398  1.0000
  N   N6        1.0  0.15337  0.26287  0.38108  1.0000
  C   C167      1.0  0.13125  0.26418  0.37477  1.0000
  C   C168      1.0  0.15786  0.24438  0.37234  1.0000
  C   C169      1.0  0.14687  0.25300  0.39578  1.0000
  C   C170      1.0  0.17626  0.28785  0.38226  1.0000
  C   C171      1.0  0.17887  0.30656  0.37070  1.0000
  C   C172      1.0  0.12169  0.27910  0.38400  1.0000
  C   C173      1.0  0.16506  0.24582  0.40337  1.0000
  C   C174      1.0  0.16459  0.25048  0.35672  1.0000
  C   C175      1.0  0.16670  0.22932  0.34891  1.0000
  C   C176      1.0  0.20502  0.32783  0.37053  1.0000
  C   C177      1.0  0.10458  0.28592  0.37541  1.0000
  C   C178      1.0  0.16030  0.24250  0.41922  1.0000
  H   H265      1.0  0.11558  0.24515  0.37293  1.0000
  H   H266      1.0  0.13474  0.27193  0.36409  1.0000
  H   H267      1.0  0.17354  0.24241  0.37709  1.0000
  H   H268      1.0  0.14150  0.22568  0.37243  1.0000
  H   H269      1.0  0.12845  0.23625  0.39544  1.0000
  H   H270      1.0  0.14526  0.26690  0.40294  1.0000
  H   H271      1.0  0.17760  0.29770  0.39266  1.0000
  H   H272      1.0  0.19304  0.28530  0.38241  1.0000
  H   H273      1.0  0.16656  0.31483  0.37282  1.0000
  H   H274      1.0  0.17401  0.29783  0.35986  1.0000
  H   H275      1.0  0.11112  0.26781  0.39288  1.0000
  H   H276      1.0  0.13706  0.29640  0.38873  1.0000
  H   H277      1.0  0.18428  0.26014  0.40216  1.0000
  H   H278      1.0  0.16289  0.22794  0.39875  1.0000
  H   H279      1.0  0.15058  0.25356  0.35079  1.0000
  H   H280      1.0  0.18284  0.26714  0.35637  1.0000
  H   H281      1.0  0.17159  0.23414  0.33774  1.0000
  H   H282      1.0  0.18135  0.22620  0.35409  1.0000
  H   H283      1.0  0.14897  0.21192  0.34881  1.0000
  H   H284      1.0  0.21810  0.32069  0.36791  1.0000
  H   H285      1.0  0.20604  0.34098  0.36236  1.0000
  H   H286      1.0  0.21050  0.33811  0.38100  1.0000
  H   H287      1.0  0.08860  0.26900  0.37071  1.0000
  H   H288      1.0  0.09760  0.29583  0.38252  1.0000
  H   H289      1.0  0.11461  0.29838  0.36682  1.0000
  C   C179      1.0  0.10919  0.44532  0.37369  1.0000
  H   H290      1.0  0.16372  0.26029  0.42462  1.0000
  H   H291      1.0  0.08997  0.40086  0.38754  1.0000
  H   H292      1.0  0.27918  0.25719  0.45642  1.0000
  C   C180      1.0  0.30567  0.14535  0.27516  1.0000
  H   H293      1.0  0.99527  0.23629  0.44352  1.0000
  N   N7        1.0  0.08352  0.05005  0.28097  1.0000
  C   C181      1.0  0.07131  0.04379  0.26625  1.0000
  C   C182      1.0  0.06847  0.05740  0.29051  1.0000
  C   C183      1.0  0.10935  0.07088  0.28006  1.0000
  H   H294      1.0  0.30224  0.19704  0.41112  1.0000
  H   H295      1.0  0.26393  0.21578  0.40874  1.0000
  S   S52       1.0  0.01083  0.02849  0.31270  1.0000
  C   C184      1.0  0.12397  0.08146  0.29448  1.0000
  C   C185      1.0  0.06827  0.08202  0.28718  1.0000
  C   C186      1.0  0.05130  0.08677  0.29692  1.0000
  C   C187      1.0  0.98967  0.19907  0.36064  1.0000
  C   C188      1.0  0.14110  0.47219  0.35775  1.0000
  C   C189      1.0  0.14918  0.10344  0.29230  1.0000
  H   H296      1.0  0.07299  0.06078  0.26130  1.0000
  C   C190      1.0  0.23790  0.00441  0.36829  1.0000
  H   H297      1.0  0.04895  0.04271  0.28995  1.0000
  H   H298      1.0  0.07453  0.05856  0.30184  1.0000
  H   H299      1.0  0.10932  0.08645  0.27423  1.0000
  H   H300      1.0  0.12049  0.06462  0.27363  1.0000
  C   C191      1.0  0.30054  0.03540  0.38752  1.0000
  N   N8        1.0  0.11544  0.46467  0.36265  1.0000
  C   C192      1.0  0.28125  0.24149  0.45154  1.0000
  H   H301      1.0  0.17289  0.23641  0.42426  1.0000
  C   C193      1.0  0.00294  0.02245  0.24290  1.0000
  N   N9        1.0  0.15594  0.00943  0.36474  1.0000
  H   H302      1.0  0.98486  0.25666  0.47859  1.0000
  H   H303      1.0  0.11418  0.08798  0.30179  1.0000
  H   H304      1.0  0.08692  0.09803  0.28874  1.0000
  H   H305      1.0  0.06155  0.08153  0.27608  1.0000
  C   C194      1.0  0.26999  0.20012  0.29497  1.0000
  H   H306      1.0  0.05268  0.10519  0.29494  1.0000
  H   H307      1.0  0.03190  0.07250  0.29468  1.0000
  H   H308      1.0  0.17246  0.01010  0.39491  1.0000
  C   C195      1.0  0.26403  0.17847  0.28434  1.0000
  H   H309      1.0  0.05644  0.32642  0.46179  1.0000
  H   H310      1.0  0.05646  0.08648  0.30828  1.0000
  H   H311      1.0  0.09019  0.40929  0.36187  1.0000
  C   C196      1.0  0.06758  0.32421  0.47060  1.0000
  H   H312      1.0  0.16023  0.09775  0.28542  1.0000
  H   H313      1.0  0.14718  0.11876  0.28741  1.0000
  H   H314      1.0  0.15927  0.11041  0.30276  1.0000
  H   H315      1.0  0.28065  0.18897  0.33606  1.0000
  H   H316      1.0  0.21695  0.24567  0.42690  1.0000
  H   H317      1.0  0.29789  0.29510  0.44024  1.0000
  H   H318      1.0  0.08761  0.31981  0.44281  1.0000
  C   C197      1.0  0.29502  0.20810  0.33402  1.0000
  C   C198      1.0  0.05017  0.31215  0.48294  1.0000
  C   C199      1.0  0.10999  0.35371  0.45440  1.0000
  C   C200      1.0  0.07697  0.45679  0.32735  1.0000
  C   C201      1.0  0.12824  0.36513  0.44268  1.0000
  C   C202      1.0  0.21686  0.22830  0.42302  1.0000
  H   H319      1.0  0.31480  0.23845  0.48133  1.0000
  C   C203      1.0  0.08486  0.02814  0.28705  1.0000
  H   H320      1.0  0.99781  0.22158  0.42723  1.0000
  H   H321      1.0  0.29523  0.21954  0.34350  1.0000
  H   H322      1.0  0.30088  0.22064  0.45718  1.0000
  H   H323      1.0  0.08060  0.34331  0.47454  1.0000
  H   H324      1.0  0.11985  0.36145  0.46477  1.0000
  H   H325      1.0  0.99297  0.16476  0.34189  1.0000
  C   C204      1.0  0.10732  0.42012  0.36854  1.0000
  H   H326      1.0  0.12311  0.45248  0.38270  1.0000
  H   H327      1.0  0.30680  0.27025  0.42074  1.0000
  H   H328      1.0  0.23523  0.20683  0.42726  1.0000
  H   H329      1.0  0.29800  0.03147  0.46060  1.0000
  H   H330      1.0  0.13687  0.38566  0.44377  1.0000
  H   H331      1.0  0.30998  0.34593  0.35333  1.0000
  C   C205      1.0  0.09660  0.45313  0.35048  1.0000
  H   H332      1.0  0.30929  0.05542  0.39074  1.0000
  N   N10       1.0  0.08103  0.31072  0.46496  1.0000
  C   C206      1.0  0.17503  0.99932  0.34276  1.0000
  H   H333      1.0  0.23551  0.18528  0.31834  1.0000
  H   H334      1.0  0.24535  0.19089  0.33683  1.0000
  N   N11       1.0  0.28370  0.24386  0.43569  1.0000
  C   C207      1.0  0.30726  0.26635  0.43219  1.0000
  H   H335      1.0  0.10088  0.04369  0.25357  1.0000
  H   H336      1.0  0.29431  0.06345  0.47616  1.0000
  H   H337      1.0  0.25104  0.16058  0.28882  1.0000
  H   H338      1.0  0.12309  0.41358  0.38799  1.0000
  H   H339      1.0  0.01572  0.04203  0.24405  1.0000
  C   C208      1.0  0.23645  0.22461  0.43125  1.0000
  H   H340      1.0  0.23165  0.22301  0.44259  1.0000
  S   S53       1.0  0.00330  0.02424  0.27214  1.0000
  H   H341      1.0  0.30414  0.47296  0.39524  1.0000
  H   H342      1.0  0.07932  0.01355  0.25930  1.0000
  C   C209      1.0  0.99373  0.00886  0.25512  1.0000
  H   H343      1.0  0.26919  0.17827  0.41186  1.0000
  C   C210      1.0  0.26239  0.24675  0.42954  1.0000
  H   H344      1.0  0.04712  0.01232  0.24248  1.0000
  H   H345      1.0  0.29673  0.23464  0.40814  1.0000
  C   C211      1.0  0.22293  0.20718  0.33033  1.0000
  H   H346      1.0  0.26341  0.23122  0.31438  1.0000
  H   H347      1.0  0.26474  0.25085  0.41806  1.0000
  H   H348      1.0  0.30182  0.10087  0.23734  1.0000
  H   H349      1.0  0.11033  0.00112  0.37628  1.0000
  H   H350      1.0  0.10069  0.48765  0.34125  1.0000
  C   C212      1.0  0.24270  0.19950  0.32720  1.0000
  H   H351      1.0  0.30120  0.22068  0.43279  1.0000
  H   H352      1.0  0.28248  0.19368  0.39590  1.0000
  H   H353      1.0  0.30403  0.24662  0.30609  1.0000
  H   H354      1.0  0.99674  0.45848  0.28274  1.0000
  H   H355      1.0  0.05046  0.28915  0.45008  1.0000
  H   H356      1.0  0.26816  0.17819  0.31305  1.0000
  H   H357      1.0  0.22894  0.22086  0.33951  1.0000
  H   H358      1.0  0.30235  0.40597  0.38935  1.0000
  C   C213      1.0  0.30951  0.24011  0.31577  1.0000
  C   C214      1.0  0.06686  0.02549  0.24118  1.0000
  C   C215      1.0  0.30065  0.05084  0.48078  1.0000
  H   H359      1.0  0.21888  0.21532  0.32087  1.0000
  C   C216      1.0  0.06190  0.28609  0.45838  1.0000
  H   H360      1.0  0.09248  0.03262  0.29821  1.0000
  H   H361      1.0  0.03461  0.29397  0.47947  1.0000
  H   H362      1.0  0.30873  0.09704  0.26295  1.0000
  H   H363      1.0  0.28109  0.17769  0.28158  1.0000
  H   H364      1.0  0.14808  0.02596  0.38339  1.0000
  H   H365      1.0  0.30532  0.32528  0.46464  1.0000
  C   C217      1.0  0.06000  0.00420  0.28773  1.0000
  C   C218      1.0  0.31339  0.29074  0.44082  1.0000
  C   C219      1.0  0.28393  0.22101  0.42938  1.0000
  H   H366      1.0  0.05992  0.45375  0.33265  1.0000
  H   H367      1.0  0.30594  0.14310  0.26375  1.0000
  H   H368      1.0  0.28729  0.02493  0.39568  1.0000
  H   H369      1.0  0.25269  0.20102  0.29668  1.0000
  H   H370      1.0  0.05116  0.03162  0.26677  1.0000
  H   H371      1.0  0.03643  0.23605  0.44985  1.0000
  H   H372      1.0  0.11860  0.35911  0.43206  1.0000
  H   H373      1.0  0.29050  0.03260  0.37712  1.0000
  H   H374      1.0  0.12719  0.06725  0.29984  1.0000
  N   N12       1.0  0.28820  0.21679  0.32059  1.0000
  H   H375      1.0  0.18339  0.02034  0.32350  1.0000
  C   C220      1.0  0.31216  0.04230  0.46911  1.0000
  C   C221      1.0  0.30335  0.15191  0.30463  1.0000
  C   C222      1.0  0.09516  0.30567  0.47656  1.0000
  H   H376      1.0  0.09796  0.02382  0.28120  1.0000
  H   H377      1.0  0.98822  0.40872  0.32565  1.0000
  H   H378      1.0  0.23962  0.99415  0.35922  1.0000
  H   H379      1.0  0.30268  0.15438  0.31600  1.0000
  H   H380      1.0  0.07775  0.44632  0.35451  1.0000
  H   H381      1.0  0.29767  0.19477  0.30620  1.0000
  H   H382      1.0  0.22022  0.22920  0.41147  1.0000
  H   H383      1.0  0.12583  0.00435  0.35037  1.0000
  H   H384      1.0  0.28303  0.21729  0.28993  1.0000
  H   H385      1.0  0.20577  0.19063  0.33309  1.0000
  C   C223      1.0  0.09920  0.46954  0.33778  1.0000
  H   H386      1.0  0.00634  0.13886  0.33346  1.0000
  H   H387      1.0  0.01148  0.10681  0.31983  1.0000
  H   H388      1.0  0.23573  0.00321  0.40431  1.0000
  H   H389      1.0  0.04874  0.00702  0.29587  1.0000
  C   C224      1.0  0.30056  0.24167  0.47572  1.0000
  H   H390      1.0  0.01385  0.43745  0.32057  1.0000
  C   C225      1.0  0.31591  0.09553  0.24095  1.0000
  C   C226      1.0  0.99721  0.10113  0.32791  1.0000
  H   H391      1.0  0.07494  0.43868  0.32325  1.0000
  Fe  Fe27      1.0  0.99118  0.00489  0.29300  1.0000
  H   H392      1.0  0.30753  0.07499  0.24040  1.0000
  H   H393      1.0  0.19322  0.99684  0.32377  1.0000
  H   H394      1.0  0.02943  0.33239  0.47933  1.0000
  S   S54       1.0  0.05123  0.99715  0.32728  1.0000
  H   H395      1.0  0.09333  0.48043  0.37132  1.0000
  H   H396      1.0  0.28219  0.22806  0.47924  1.0000
  H   H397      1.0  0.25544  0.18092  0.27442  1.0000
  C   C227      1.0  0.30852  0.99877  0.38224  1.0000
  H   H398      1.0  0.00482  0.09775  0.33794  1.0000
  C   C228      1.0  0.23794  0.99594  0.38205  1.0000
  H   H399      1.0  0.23966  0.26434  0.47870  1.0000
  H   H400      1.0  0.30194  0.08033  0.30690  1.0000
  H   H401      1.0  0.21013  0.02526  0.33430  1.0000
  H   H402      1.0  0.01341  0.42636  0.33814  1.0000
  H   H403      1.0  0.13002  0.33990  0.47904  1.0000
  H   H404      1.0  0.99486  0.19472  0.37117  1.0000
  H   H405      1.0  0.31426  0.34504  0.37225  1.0000
  C   C229      1.0  0.11297  0.48610  0.36938  1.0000
  H   H406      1.0  0.98529  0.49109  0.32835  1.0000
  C   C230      1.0  0.00181  0.42780  0.32939  1.0000
  H   H407      1.0  0.28485  0.48019  0.38369  1.0000
  H   H408      1.0  0.31752  0.13701  0.47798  1.0000
  H   H409      1.0  0.01367  0.49046  0.25358  1.0000
  C   C231      1.0  0.30186  0.48835  0.39064  1.0000
  H   H410      1.0  0.31748  0.28936  0.45220  1.0000
  C   C232      1.0  0.98500  0.22083  0.43552  1.0000
  C   C233      1.0  0.00923  0.49122  0.29665  1.0000
  C   C234      1.0  0.11423  0.32847  0.48557  1.0000
  Fe  Fe28      1.0  0.27176  0.01291  0.56640  1.0000
  H   H411      1.0  0.24675  0.21780  0.61679  1.0000
  H   H412      1.0  0.01174  0.28941  0.61675  1.0000
  S   S55       1.0  0.27565  0.03304  0.54598  1.0000
  H   H413      1.0  0.99247  0.39465  0.53817  1.0000
  H   H414      1.0  0.29565  0.01717  0.60707  1.0000
  S   S56       1.0  0.28116  0.18452  0.54487  1.0000
  H   H415      1.0  0.00570  0.47584  0.68872  1.0000
  H   H416      1.0  0.30037  0.27348  0.59739  1.0000
  H   H417      1.0  0.09429  0.14516  0.69587  1.0000
  Fe  Fe29      1.0  0.28042  0.26332  0.56128  1.0000
  S   S57       1.0  0.25722  0.27199  0.57711  1.0000
  S   S58       1.0  0.27155  0.24225  0.54004  1.0000
  H   H418      1.0  0.26646  0.05637  0.61721  1.0000
  S   S59       1.0  0.02911  0.05690  0.66668  1.0000
  H   H419      1.0  0.28519  0.31643  0.59882  1.0000
  Fe  Fe30      1.0  0.07607  0.23019  0.61163  1.0000
  S   S60       1.0  0.06446  0.21190  0.63238  1.0000
  S   S61       1.0  0.05795  0.25349  0.60402  1.0000
  Fe  Fe31      1.0  0.11780  0.21552  0.60965  1.0000
  S   S62       1.0  0.10842  0.19623  0.63052  1.0000
  S   S63       1.0  0.14468  0.21106  0.59459  1.0000
  Fe  Fe32      1.0  0.06891  0.18016  0.62283  1.0000
  S   S64       1.0  0.03747  0.14064  0.62474  1.0000
  Fe  Fe33      1.0  0.10469  0.22944  0.63873  1.0000
  S   S65       1.0  0.11271  0.24262  0.66226  1.0000
  S   S66       1.0  0.07799  0.19740  0.60147  1.0000
  S   S67       1.0  0.11657  0.24977  0.61842  1.0000
  Fe  Fe34      1.0  0.17393  0.36556  0.71580  1.0000
  S   S68       1.0  0.16824  0.35117  0.69246  1.0000
  S   S69       1.0  0.18729  0.40673  0.71888  1.0000
  H   H420      1.0  0.10222  0.20081  0.72098  1.0000
  H   H421      1.0  0.23898  0.05922  0.51045  1.0000
  H   H422      1.0  0.00132  0.48641  0.64417  1.0000
  C   C235      1.0  0.28546  0.12015  0.54919  1.0000
  H   H423      1.0  0.04422  0.14335  0.68887  1.0000
  H   H424      1.0  0.06234  0.18011  0.70667  1.0000
  C   C236      1.0  0.12851  0.27292  0.67049  1.0000
  C   C237      1.0  0.14475  0.29340  0.66316  1.0000
  C   C238      1.0  0.15684  0.31709  0.67011  1.0000
  C   C239      1.0  0.15322  0.32060  0.68453  1.0000
  C   C240      1.0  0.13724  0.30003  0.69193  1.0000
  C   C241      1.0  0.12495  0.27636  0.68493  1.0000
  H   H425      1.0  0.14842  0.29091  0.65224  1.0000
  H   H426      1.0  0.16930  0.33282  0.66431  1.0000
  H   H427      1.0  0.13423  0.30243  0.70302  1.0000
  H   H428      1.0  0.11261  0.26065  0.69077  1.0000
  C   C242      1.0  0.09289  0.17377  0.66801  1.0000
  C   C243      1.0  0.03103  0.07934  0.65449  1.0000
  C   C244      1.0  0.05423  0.09926  0.65202  1.0000
  C   C245      1.0  0.05658  0.11785  0.64270  1.0000
  C   C246      1.0  0.03569  0.11706  0.63601  1.0000
  C   C247      1.0  0.01255  0.09692  0.63832  1.0000
  C   C248      1.0  0.01021  0.07814  0.64748  1.0000
  H   H429      1.0  0.07049  0.10024  0.65726  1.0000
  H   H430      1.0  0.07454  0.13265  0.64054  1.0000
  H   H431      1.0  0.31186  0.43843  0.71117  1.0000
  H   H432      1.0  0.18441  0.47885  0.70862  1.0000
  C   C249      1.0  0.98594  0.35980  0.55884  1.0000
  H   H433      1.0  0.05097  0.04144  0.64430  1.0000
  H   H434      1.0  0.03712  0.23669  0.67013  1.0000
  C   C250      1.0  0.02186  0.01100  0.62235  1.0000
  C   C251      1.0  0.00261  0.25608  0.58041  1.0000
  C   C252      1.0  0.02369  0.26233  0.58931  1.0000
  C   C253      1.0  0.03103  0.24443  0.59282  1.0000
  C   C254      1.0  0.01680  0.22008  0.58739  1.0000
  S   S70       1.0  0.30724  0.00560  0.51757  1.0000
  H   H435      1.0  0.07938  0.05904  0.58492  1.0000
  H   H436      1.0  0.21826  0.46395  0.72574  1.0000
  H   H437      1.0  0.02217  0.20609  0.58994  1.0000
  H   H438      1.0  0.27435  0.39922  0.70902  1.0000
  C   C255      1.0  0.29623  0.29458  0.49576  1.0000
  C   C256      1.0  0.24875  0.05963  0.52061  1.0000
  H   H439      1.0  0.03060  0.32083  0.62352  1.0000
  C   C257      1.0  0.12447  0.32050  0.49822  1.0000
  H   H440      1.0  0.03663  0.23338  0.65101  1.0000
  H   H441      1.0  0.99815  0.33159  0.55797  1.0000
  H   H442      1.0  0.26179  0.26416  0.50113  1.0000
  C   C258      1.0  0.22569  0.25510  0.58157  1.0000
  C   C259      1.0  0.21742  0.26343  0.59335  1.0000
  C   C260      1.0  0.19274  0.25049  0.59741  1.0000
  C   C261      1.0  0.17593  0.22888  0.58978  1.0000
  C   C262      1.0  0.18423  0.22059  0.57799  1.0000
  C   C263      1.0  0.20882  0.23370  0.57382  1.0000
  H   H443      1.0  0.23021  0.27999  0.59941  1.0000
  H   H444      1.0  0.18675  0.25715  0.60650  1.0000
  H   H445      1.0  0.17141  0.20406  0.57191  1.0000
  H   H446      1.0  0.21465  0.22742  0.56453  1.0000
  H   H447      1.0  0.27452  0.12324  0.59412  1.0000
  H   H448      1.0  0.13331  0.30927  0.49452  1.0000
  H   H449      1.0  0.30780  0.42610  0.69328  1.0000
  H   H450      1.0  0.05300  0.16967  0.65120  1.0000
  C   C264      1.0  0.27702  0.13766  0.54667  1.0000
  H   H451      1.0  0.29643  0.39535  0.72010  1.0000
  H   H452      1.0  0.25795  0.13124  0.54345  1.0000
  H   H453      1.0  0.11955  0.16018  0.64945  1.0000
  Fe  Fe35      1.0  0.21602  0.40730  0.73453  1.0000
  H   H454      1.0  0.01801  0.03495  0.72905  1.0000
  H   H455      1.0  0.10620  0.34000  0.48987  1.0000
  H   H456      1.0  0.31480  0.34302  0.57072  1.0000
  C   C265      1.0  0.27656  0.07505  0.51938  1.0000
  C   C266      1.0  0.06260  0.14694  0.68516  1.0000
  H   H457      1.0  0.31239  0.00407  0.62482  1.0000
  H   H458      1.0  0.28473  0.04543  0.51278  1.0000
  H   H459      1.0  0.14418  0.16508  0.66196  1.0000
  H   H460      1.0  0.24385  0.04034  0.52331  1.0000
  C   C267      1.0  0.29298  0.16336  0.54829  1.0000
  H   H461      1.0  0.16557  0.13036  0.60045  1.0000
  H   H462      1.0  0.06734  0.26753  0.63753  1.0000
  H   H463      1.0  0.03179  0.05093  0.62361  1.0000
  H   H464      1.0  0.10959  0.30948  0.50544  1.0000
  H   H465      1.0  0.07253  0.31627  0.67117  1.0000
  C   C268      1.0  0.06124  0.11206  0.69977  1.0000
  C   C269      1.0  0.01988  0.16904  0.65794  1.0000
  H   H466      1.0  0.07346  0.05425  0.62445  1.0000
  H   H467      1.0  0.05371  0.34634  0.49304  1.0000
  H   H468      1.0  0.14632  0.44563  0.71848  1.0000
  C   C270      1.0  0.27238  0.04473  0.61081  1.0000
  H   H469      1.0  0.03483  0.14445  0.66224  1.0000
  C   C271      1.0  0.16529  0.14142  0.59136  1.0000
  C   C272      1.0  0.27004  0.13182  0.58504  1.0000
  S   S71       1.0  0.25472  0.44116  0.73355  1.0000
  C   C273      1.0  0.06745  0.03572  0.61905  1.0000
  C   C274      1.0  0.13478  0.44961  0.72540  1.0000
  H   H470      1.0  0.06754  0.20007  0.67078  1.0000
  H   H471      1.0  0.06408  0.02981  0.67165  1.0000
  C   C275      1.0  0.98855  0.23176  0.57487  1.0000
  H   H472      1.0  0.25979  0.11711  0.57665  1.0000
  C   C276      1.0  0.27137  0.27751  0.49324  1.0000
  C   C277      1.0  0.08435  0.05691  0.59603  1.0000
  Fe  Fe36      1.0  0.29676  0.22695  0.54785  1.0000
  H   H473      1.0  0.06213  0.10157  0.69014  1.0000
  H   H474      1.0  0.29033  0.38338  0.70182  1.0000
  H   H475      1.0  0.28503  0.33683  0.58550  1.0000
  H   H476      1.0  0.31714  0.31333  0.61203  1.0000
  S   S72       1.0  0.31341  0.29496  0.51148  1.0000
  H   H477      1.0  0.06013  0.30948  0.49214  1.0000
  C   C278      1.0  0.28646  0.06289  0.50834  1.0000
  H   H478      1.0  0.04505  0.17946  0.68214  1.0000
  H   H479      1.0  0.30344  0.99358  0.59209  1.0000
  C   C279      1.0  0.05804  0.18040  0.67389  1.0000
  C   C280      1.0  0.13009  0.17092  0.65922  1.0000
  H   H480      1.0  0.28044  0.02947  0.62913  1.0000
  H   H481      1.0  0.99739  0.27011  0.57773  1.0000
  N   N13       1.0  0.08502  0.30683  0.64343  1.0000
  C   C281      1.0  0.06367  0.31180  0.64001  1.0000
  C   C282      1.0  0.10141  0.32432  0.65541  1.0000
  C   C283      1.0  0.09991  0.31189  0.63026  1.0000
  C   C284      1.0  0.07655  0.28020  0.64700  1.0000
  C   C285      1.0  0.05978  0.27086  0.65980  1.0000
  C   C286      1.0  0.04568  0.29556  0.62762  1.0000
  C   C287      1.0  0.12485  0.31154  0.63189  1.0000
  C   C288      1.0  0.08891  0.33216  0.66721  1.0000
  C   C289      1.0  0.09447  0.21191  0.71585  1.0000
  H   H482      1.0  0.13331  0.47701  0.71194  1.0000
  C   C290      1.0  0.02401  0.30104  0.62581  1.0000
  C   C291      1.0  0.13826  0.31748  0.61795  1.0000
  H   H483      1.0  0.07077  0.33158  0.63734  1.0000
  H   H484      1.0  0.05235  0.30952  0.64936  1.0000
  H   H485      1.0  0.11240  0.31640  0.66064  1.0000
  H   H486      1.0  0.11518  0.34217  0.65117  1.0000
  H   H487      1.0  0.10378  0.33027  0.62619  1.0000
  H   H488      1.0  0.08936  0.29793  0.62155  1.0000
  C   C292      1.0  0.11119  0.47216  0.73014  1.0000
  H   H489      1.0  0.09257  0.27714  0.64963  1.0000
  H   H490      1.0  0.10519  0.18700  0.69666  1.0000
  H   H491      1.0  0.07085  0.27922  0.66983  1.0000
  H   H492      1.0  0.05504  0.29933  0.61739  1.0000
  H   H493      1.0  0.03800  0.27553  0.62954  1.0000
  H   H494      1.0  0.12188  0.29296  0.63474  1.0000
  H   H495      1.0  0.13726  0.32529  0.64017  1.0000
  H   H496      1.0  0.08299  0.34539  0.66295  1.0000
  H   H497      1.0  0.02557  0.31885  0.49642  1.0000
  H   H498      1.0  0.13854  0.33716  0.50432  1.0000
  H   H499      1.0  0.08196  0.16127  0.65892  1.0000
  C   C293      1.0  0.10670  0.34514  0.67995  1.0000
  C   C294      1.0  0.04852  0.24278  0.66065  1.0000
  C   C295      1.0  0.07762  0.19746  0.70302  1.0000
  H   H500      1.0  0.12379  0.36115  0.67659  1.0000
  C   C296      1.0  0.07483  0.13996  0.69761  1.0000
  H   H501      1.0  0.28036  0.09394  0.51650  1.0000
  H   H502      1.0  0.25464  0.33033  0.60355  1.0000
  H   H503      1.0  0.14268  0.33646  0.61484  1.0000
  H   H504      1.0  0.15570  0.31643  0.61929  1.0000
  H   H505      1.0  0.12678  0.30389  0.60929  1.0000
  H   H506      1.0  0.06987  0.10754  0.70893  1.0000
  H   H507      1.0  0.28519  0.07648  0.53007  1.0000
  H   H508      1.0  0.31094  0.31060  0.58420  1.0000
  N   N14       1.0  0.23418  0.17027  0.58111  1.0000
  C   C297      1.0  0.23218  0.18256  0.56779  1.0000
  C   C298      1.0  0.24888  0.18954  0.59279  1.0000
  C   C299      1.0  0.24819  0.15624  0.57748  1.0000
  C   C300      1.0  0.20930  0.15204  0.58610  1.0000
  C   C301      1.0  0.19108  0.16233  0.58904  1.0000
  C   C302      1.0  0.21684  0.16489  0.55504  1.0000
  C   C303      1.0  0.25456  0.14394  0.59000  1.0000
  C   C304      1.0  0.24598  0.21341  0.59370  1.0000
  C   C305      1.0  0.25719  0.22829  0.60767  1.0000
  C   C306      1.0  0.31014  0.12811  0.55320  1.0000
  C   C307      1.0  0.21548  0.17940  0.54242  1.0000
  N   N15       1.0  0.31242  0.07891  0.50382  1.0000
  H   H509      1.0  0.25090  0.19512  0.56413  1.0000
  H   H510      1.0  0.22390  0.19486  0.56988  1.0000
  H   H511      1.0  0.24485  0.18108  0.60336  1.0000
  H   H512      1.0  0.26900  0.19644  0.59157  1.0000
  H   H513      1.0  0.26586  0.16888  0.57268  1.0000
  H   H514      1.0  0.23784  0.14110  0.56933  1.0000
  H   H515      1.0  0.20029  0.13584  0.57839  1.0000
  H   H516      1.0  0.21131  0.14409  0.59621  1.0000
  H   H517      1.0  0.18944  0.17299  0.58014  1.0000
  H   H518      1.0  0.19707  0.17435  0.59892  1.0000
  H   H519      1.0  0.22510  0.15325  0.55123  1.0000
  H   H520      1.0  0.19770  0.15265  0.55800  1.0000
  H   H521      1.0  0.23762  0.12922  0.59436  1.0000
  H   H522      1.0  0.26529  0.15771  0.59870  1.0000
  H   H523      1.0  0.25568  0.22535  0.58487  1.0000
  H   H524      1.0  0.22660  0.20955  0.59286  1.0000
  C   C308      1.0  0.03047  0.05529  0.72974  1.0000
  H   H525      1.0  0.27672  0.23250  0.60912  1.0000
  H   H526      1.0  0.25633  0.24604  0.60751  1.0000
  H   H527      1.0  0.08385  0.21627  0.72379  1.0000
  S   S73       1.0  0.30332  0.04600  0.57775  1.0000
  C   C309      1.0  0.05099  0.02335  0.64270  1.0000
  H   H528      1.0  0.20336  0.16634  0.53377  1.0000
  H   H529      1.0  0.20791  0.19207  0.54553  1.0000
  H   H530      1.0  0.23403  0.19031  0.53821  1.0000
  H   H531      1.0  0.09258  0.07540  0.60172  1.0000
  H   H532      1.0  0.24244  0.06797  0.52914  1.0000
  C   C310      1.0  0.01604  0.03268  0.62568  1.0000
  H   H533      1.0  0.04163  0.10595  0.70195  1.0000
  N   N16       1.0  0.04732  0.01560  0.62705  1.0000
  H   H534      1.0  0.30127  0.48383  0.72920  1.0000
  C   C311      1.0  0.28982  0.99257  0.50121  1.0000
  C   C312      1.0  0.09201  0.19203  0.69135  1.0000
  C   C313      1.0  0.12713  0.46729  0.72165  1.0000
  H   H535      1.0  0.04790  0.04586  0.60274  1.0000
  H   H536      1.0  0.10977  0.22965  0.71255  1.0000
  C   C314      1.0  0.26902  0.02234  0.61913  1.0000
  H   H537      1.0  0.99225  0.06293  0.64927  1.0000
  H   H538      1.0  0.27288  0.10054  0.54801  1.0000
  H   H539      1.0  0.15783  0.12910  0.58163  1.0000
  C   C315      1.0  0.07970  0.04007  0.66473  1.0000
  H   H540      1.0  0.08414  0.03304  0.61927  1.0000
  H   H541      1.0  0.06898  0.99696  0.69139  1.0000
  H   H542      1.0  0.06969  0.20907  0.69874  1.0000
  H   H543      1.0  0.29200  0.05622  0.60837  1.0000
  H   H544      1.0  0.12463  0.17676  0.68103  1.0000
  Fe  Fe37      1.0  0.30859  0.06501  0.55701  1.0000
  Fe  Fe38      1.0  0.99777  0.01763  0.66922  1.0000
  H   H545      1.0  0.01195  0.03288  0.63708  1.0000
  H   H546      1.0  0.01821  0.00606  0.61082  1.0000
  Fe  Fe39      1.0  0.30164  0.01827  0.53987  1.0000
  H   H547      1.0  0.03533  0.00981  0.64874  1.0000
  S   S74       1.0  0.30355  0.24639  0.56942  1.0000
  C   C316      1.0  0.07513  0.02655  0.65017  1.0000
  H   H548      1.0  0.13967  0.19098  0.65703  1.0000
  H   H549      1.0  0.02604  0.18894  0.65629  1.0000
  C   C317      1.0  0.29019  0.33598  0.59677  1.0000
  H   H550      1.0  0.00845  0.35179  0.57373  1.0000
  H   H551      1.0  0.08203  0.05908  0.66358  1.0000
  C   C318      1.0  0.11301  0.16618  0.67157  1.0000
  H   H552      1.0  0.01319  0.29664  0.63555  1.0000
  H   H553      1.0  0.26105  0.03862  0.60070  1.0000
  H   H554      1.0  0.05845  0.13305  0.67620  1.0000
  H   H555      1.0  0.18565  0.45145  0.72760  1.0000
  H   H556      1.0  0.29574  0.09747  0.49187  1.0000
  H   H557      1.0  0.09817  0.05008  0.59575  1.0000
  S   S75       1.0  0.01211  0.99199  0.67677  1.0000
  C   C319      1.0  0.29424  0.99125  0.62905  1.0000
  H   H558      1.0  0.09667  0.04149  0.66997  1.0000
  S   S76       1.0  0.23473  0.99607  0.57747  1.0000
  H   H559      1.0  0.10436  0.14602  0.67336  1.0000
  H   H560      1.0  0.09792  0.35204  0.68781  1.0000
  S   S77       1.0  0.29584  0.99613  0.55963  1.0000
  H   H561      1.0  0.04430  0.27526  0.65914  1.0000
  H   H562      1.0  0.27331  0.05701  0.49897  1.0000
  H   H563      1.0  0.99630  0.09599  0.63309  1.0000
  H   H564      1.0  0.06629  0.99360  0.62986  1.0000
  H   H565      1.0  0.03457  0.28126  0.59334  1.0000
  H   H566      1.0  0.10386  0.21011  0.68656  1.0000
  H   H567      1.0  0.10194  0.19266  0.66376  1.0000
  C   C320      1.0  0.99350  0.02978  0.61701  1.0000
  H   H568      1.0  0.02504  0.40109  0.52026  1.0000
  H   H569      1.0  0.11163  0.33200  0.68528  1.0000
  H   H570      1.0  0.00957  0.15822  0.64814  1.0000
  S   S78       1.0  0.20411  0.36674  0.73034  1.0000
  C   C321      1.0  0.06134  0.03859  0.60332  1.0000
  H   H571      1.0  0.07430  0.14956  0.70768  1.0000
  H   H572      1.0  0.15285  0.14948  0.59376  1.0000
  H   H573      1.0  0.27786  0.36235  0.60411  1.0000
  S   S79       1.0  0.14648  0.35623  0.73301  1.0000
  C   C322      1.0  0.04195  0.16456  0.66082  1.0000
  C   C323      1.0  0.29221  0.39881  0.70911  1.0000
  Fe  Fe40      1.0  0.30599  0.27410  0.53237  1.0000
  N   N17       1.0  0.07647  0.17290  0.67987  1.0000
  H   H574      1.0  0.98516  0.19499  0.57422  1.0000
  H   H575      1.0  0.06317  0.23716  0.66164  1.0000
  H   H576      1.0  0.01977  0.06509  0.72695  1.0000
  H   H577      1.0  0.21709  0.49038  0.70661  1.0000
  H   H578      1.0  0.05334  0.02082  0.59702  1.0000
  C   C324      1.0  0.27647  0.00524  0.61026  1.0000
  H   H579      1.0  0.29099  0.00258  0.63733  1.0000
  H   H580      1.0  0.24940  0.01239  0.62184  1.0000
  C   C325      1.0  0.27440  0.34318  0.60610  1.0000
  C   C326      1.0  0.99247  0.47975  0.68310  1.0000
  C   C327      1.0  0.31236  0.42356  0.70437  1.0000
  H   H581      1.0  0.28757  0.14583  0.58075  1.0000
  C   C328      1.0  0.30535  0.46979  0.73333  1.0000
  C   C329      1.0  0.99019  0.36746  0.52195  1.0000
  C   C330      1.0  0.19987  0.47441  0.70985  1.0000
  H   H582      1.0  0.00732  0.16296  0.66693  1.0000
  H   H583      1.0  0.26498  0.99964  0.60023  1.0000
  H   H584      1.0  0.98947  0.04517  0.62003  1.0000
  C   C331      1.0  0.99577  0.21384  0.57847  1.0000
  C   C332      1.0  0.31375  0.10171  0.49716  1.0000
  H   H585      1.0  0.04482  0.05955  0.72181  1.0000
  S   S80       1.0  0.31319  0.29640  0.55312  1.0000
  H   H586      1.0  0.27831  0.34183  0.61753  1.0000
  H   H587      1.0  0.19596  0.45814  0.70265  1.0000
  H   H588      1.0  0.00279  0.39509  0.50574  1.0000
  H   H589      1.0  0.00242  0.37321  0.55348  1.0000
  C   C333      1.0  0.20270  0.46830  0.72519  1.0000
  H   H590      1.0  0.99692  0.03047  0.60547  1.0000
  H   H591      1.0  0.07402  0.00820  0.65198  1.0000
  H   H592      1.0  0.01891  0.37704  0.50683  1.0000
  C   C334      1.0  0.03912  0.32852  0.48823  1.0000
  C   C335      1.0  0.01047  0.38644  0.51319  1.0000
  H   H593      1.0  0.09130  0.03731  0.64374  1.0000
  S   S81       1.0  0.03279  0.48475  0.72994  1.0000
  H   H594      1.0  0.00768  0.99446  0.62755  1.0000
  H   H595      1.0  0.99873  0.35881  0.52875  1.0000
  C   C336      1.0  0.99271  0.34158  0.56600  1.0000
  H   H596      1.0  0.25724  0.99441  0.50721  1.0000
  H   H597      1.0  0.31699  0.11620  0.50562  1.0000
  C   C337      1.0  0.31756  0.17130  0.55251  1.0000
  C   C338      1.0  0.04840  0.99147  0.62560  1.0000
  H   H598      1.0  0.06204  0.99133  0.60438  1.0000
  C   C339      1.0  0.20663  0.48997  0.73570  1.0000
  H   H599      1.0  0.19441  0.29653  0.94009  1.0000
  H   H600      1.0  0.28322  0.11031  0.92329  1.0000
  C   C340      1.0  0.06862  0.17375  0.89260  1.0000
  C   C341      1.0  0.21680  0.34470  0.80541  1.0000
  H   H601      1.0  0.01051  0.11065  0.81298  1.0000
  S   S82       1.0  0.03044  0.04737  0.83200  1.0000
  Fe  Fe41      1.0  0.08338  0.22828  0.85914  1.0000
  S   S83       1.0  0.06820  0.22402  0.83685  1.0000
  S   S84       1.0  0.06540  0.23536  0.87853  1.0000
  Fe  Fe42      1.0  0.12901  0.22431  0.84940  1.0000
  S   S85       1.0  0.11605  0.21942  0.82624  1.0000
  S   S86       1.0  0.16583  0.22398  0.85327  1.0000
  Fe  Fe43      1.0  0.10684  0.25031  0.83100  1.0000
  S   S87       1.0  0.11389  0.28523  0.81924  1.0000
  Fe  Fe44      1.0  0.07870  0.19345  0.83400  1.0000
  S   S88       1.0  0.05038  0.15798  0.82207  1.0000
  S   S89       1.0  0.12165  0.25651  0.85368  1.0000
  S   S90       1.0  0.09194  0.19621  0.85676  1.0000
  H   H602      1.0  0.19724  0.33449  0.80155  1.0000
  C   C342      1.0  0.99477  0.36456  0.98070  1.0000
  H   H603      1.0  0.19292  0.03348  0.87433  1.0000
  H   H604      1.0  0.17215  0.22988  0.82023  1.0000
  C   C343      1.0  0.20320  0.27936  0.82934  1.0000
  C   C344      1.0  0.28230  0.34016  0.93993  1.0000
  Fe  Fe45      1.0  0.17732  0.35967  0.74793  1.0000
  S   S91       1.0  0.17397  0.32966  0.76330  1.0000
  S   S92       1.0  0.19126  0.40050  0.75307  1.0000
  C   C345      1.0  0.22319  0.32870  0.81510  1.0000
  N   N18       1.0  0.20917  0.30309  0.83770  1.0000
  H   H605      1.0  0.17224  0.29141  0.84455  1.0000
  H   H606      1.0  0.18769  0.31550  0.82487  1.0000
  C   C346      1.0  0.13001  0.29684  0.80340  1.0000
  C   C347      1.0  0.13194  0.31901  0.79817  1.0000
  C   C348      1.0  0.14479  0.32907  0.78577  1.0000
  C   C349      1.0  0.15620  0.31721  0.77851  1.0000
  C   C350      1.0  0.15432  0.29506  0.78379  1.0000
  C   C351      1.0  0.14111  0.28479  0.79604  1.0000
  H   H607      1.0  0.12348  0.32855  0.80374  1.0000
  H   H608      1.0  0.14613  0.34614  0.78191  1.0000
  H   H609      1.0  0.16302  0.28569  0.77826  1.0000
  H   H610      1.0  0.13943  0.26752  0.79974  1.0000
  C   C352      1.0  0.03490  0.07792  0.82972  1.0000
  C   C353      1.0  0.01833  0.08260  0.82162  1.0000
  C   C354      1.0  0.02320  0.10721  0.81951  1.0000
  C   C355      1.0  0.04445  0.12738  0.82567  1.0000
  C   C356      1.0  0.06057  0.12270  0.83419  1.0000
  C   C357      1.0  0.05585  0.09809  0.83614  1.0000
  N   N19       1.0  0.25051  0.16885  0.88384  1.0000
  H   H611      1.0  0.07699  0.13801  0.83899  1.0000
  H   H612      1.0  0.06870  0.09465  0.84250  1.0000
  C   C358      1.0  0.10328  0.45918  0.74261  1.0000
  Fe  Fe46      1.0  0.99984  0.01081  0.82227  1.0000
  C   C359      1.0  0.29490  0.12906  0.92023  1.0000
  C   C360      1.0  0.01921  0.22697  0.86800  1.0000
  C   C361      1.0  0.03612  0.23446  0.87961  1.0000
  C   C362      1.0  0.02967  0.24139  0.89258  1.0000
  C   C363      1.0  0.00670  0.24097  0.89397  1.0000
  H   H613      1.0  0.02382  0.22147  0.85799  1.0000
  H   H614      1.0  0.04253  0.24716  0.90166  1.0000
  H   H615      1.0  0.00208  0.24638  0.90404  1.0000
  H   H616      1.0  0.16856  0.43740  0.78872  1.0000
  C   C364      1.0  0.31634  0.43399  0.74401  1.0000
  H   H617      1.0  0.22006  0.36218  0.81113  1.0000
  C   C365      1.0  0.22649  0.25782  0.88912  1.0000
  C   C366      1.0  0.22901  0.24482  0.87736  1.0000
  C   C367      1.0  0.21015  0.23438  0.86659  1.0000
  C   C368      1.0  0.18854  0.23674  0.86744  1.0000
  C   C369      1.0  0.18595  0.24958  0.87926  1.0000
  C   C370      1.0  0.20487  0.26014  0.88997  1.0000
  H   H618      1.0  0.24567  0.24321  0.87645  1.0000
  H   H619      1.0  0.21242  0.22466  0.85745  1.0000
  H   H620      1.0  0.16936  0.25132  0.88014  1.0000
  H   H621      1.0  0.20267  0.27009  0.89902  1.0000
  H   H622      1.0  0.21281  0.33957  0.83456  1.0000
  H   H623      1.0  0.25905  0.30134  0.97206  1.0000
  H   H624      1.0  0.00768  0.03921  0.75388  1.0000
  H   H625      1.0  0.18257  0.32588  0.87995  1.0000
  H   H626      1.0  0.27283  0.30286  0.93248  1.0000
  S   S93       1.0  0.30003  0.02702  0.96160  1.0000
  H   H627      1.0  0.24252  0.09718  0.88011  1.0000
  H   H628      1.0  0.08125  0.12976  0.80354  1.0000
  H   H629      1.0  0.01759  0.11346  0.85194  1.0000
  H   H630      1.0  0.00840  0.30465  0.87212  1.0000
  H   H631      1.0  0.30040  0.17639  0.87690  1.0000
  C   C371      1.0  0.99852  0.09065  0.86926  1.0000
  H   H632      1.0  0.98609  0.16573  0.82645  1.0000
  H   H633      1.0  0.27993  0.34386  0.92866  1.0000
  H   H634      1.0  0.23743  0.20265  0.91939  1.0000
  H   H635      1.0  0.99377  0.33960  0.91546  1.0000
  H   H636      1.0  0.21956  0.15700  0.89758  1.0000
  C   C372      1.0  0.28318  0.07969  0.95876  1.0000
  H   H637      1.0  0.24252  0.48712  0.77482  1.0000
  N   N20       1.0  0.05641  0.29746  0.84276  1.0000
  C   C373      1.0  0.05792  0.31578  0.83188  1.0000
  C   C374      1.0  0.03920  0.29609  0.85436  1.0000
  C   C375      1.0  0.08185  0.30692  0.84956  1.0000
  C   C376      1.0  0.04876  0.27208  0.83605  1.0000
  C   C377      1.0  0.02404  0.25994  0.82732  1.0000
  C   C378      1.0  0.07515  0.31914  0.81941  1.0000
  C   C379      1.0  0.08420  0.29161  0.86181  1.0000
  C   C380      1.0  0.01688  0.30016  0.85014  1.0000
  H   H638      1.0  0.27574  0.06054  0.96252  1.0000
  C   C381      1.0  0.02010  0.23599  0.81956  1.0000
  C   C382      1.0  0.07340  0.33637  0.80851  1.0000
  C   C383      1.0  0.10963  0.30501  0.86929  1.0000
  H   H639      1.0  0.06412  0.33437  0.83724  1.0000
  H   H640      1.0  0.03958  0.31074  0.82694  1.0000
  H   H641      1.0  0.03204  0.27800  0.85959  1.0000
  H   H642      1.0  0.04930  0.31038  0.86306  1.0000
  H   H643      1.0  0.08891  0.32645  0.85370  1.0000
  H   H644      1.0  0.09506  0.30726  0.84162  1.0000
  H   H645      1.0  0.06341  0.27237  0.82925  1.0000
  H   H646      1.0  0.04692  0.25887  0.84438  1.0000
  H   H647      1.0  0.02324  0.27223  0.81914  1.0000
  C   C384      1.0  0.27166  0.48371  0.76473  1.0000
  H   H648      1.0  0.09465  0.32757  0.82328  1.0000
  H   H649      1.0  0.07025  0.30120  0.81371  1.0000
  H   H650      1.0  0.08181  0.27354  0.85745  1.0000
  H   H651      1.0  0.07040  0.28804  0.86998  1.0000
  C   C385      1.0  0.25334  0.31570  0.97035  1.0000
  H   H652      1.0  0.22656  0.12503  0.90170  1.0000
  H   H653      1.0  0.18063  0.28112  0.81130  1.0000
  H   H654      1.0  0.05893  0.48515  0.77859  1.0000
  H   H655      1.0  0.07675  0.19237  0.89811  1.0000
  C   C386      1.0  0.03354  0.14367  0.87600  1.0000
  C   C387      1.0  0.99896  0.29371  0.86218  1.0000
  H   H656      1.0  0.05442  0.32848  0.80376  1.0000
  H   H657      1.0  0.07876  0.35496  0.81355  1.0000
  H   H658      1.0  0.08607  0.33861  0.79982  1.0000
  H   H659      1.0  0.11130  0.29297  0.87740  1.0000
  H   H660      1.0  0.12417  0.30921  0.86150  1.0000
  H   H661      1.0  0.11234  0.32253  0.87472  1.0000
  C   C388      1.0  0.00332  0.11225  0.85941  1.0000
  H   H662      1.0  0.98565  0.44791  0.79145  1.0000
  H   H663      1.0  0.00824  0.08733  0.78792  1.0000
  H   H664      1.0  0.98625  0.08985  0.87789  1.0000
  C   C389      1.0  0.31126  0.09269  0.96026  1.0000
  C   C390      1.0  0.29278  0.18792  0.87214  1.0000
  H   H665      1.0  0.18782  0.44800  0.75085  1.0000
  H   H666      1.0  0.22926  0.46299  0.74978  1.0000
  S   S94       1.0  0.30612  0.25291  0.89808  1.0000
  H   H667      1.0  0.17355  0.29889  0.91768  1.0000
  H   H668      1.0  0.31625  0.11745  0.94330  1.0000
  H   H669      1.0  0.31268  0.12843  0.96014  1.0000
  H   H670      1.0  0.27350  0.20765  0.87954  1.0000
  C   C391      1.0  0.99807  0.34118  0.92709  1.0000
  H   H671      1.0  0.05326  0.05352  0.74667  1.0000
  Fe  Fe47      1.0  0.31520  0.07143  0.91541  1.0000
  H   H672      1.0  0.26281  0.14217  0.87758  1.0000
  C   C392      1.0  0.99712  0.14902  0.84324  1.0000
  H   H673      1.0  0.08233  0.17334  0.88530  1.0000
  C   C393      1.0  0.99619  0.22648  0.86940  1.0000
  C   C394      1.0  0.23719  0.18465  0.86139  1.0000
  H   H674      1.0  0.05555  0.08366  0.74462  1.0000
  H   H675      1.0  0.01928  0.29954  0.97243  1.0000
  H   H676      1.0  0.25476  0.19221  0.85583  1.0000
  H   H677      1.0  0.99385  0.38159  0.97783  1.0000
  H   H678      1.0  0.01451  0.07054  0.75342  1.0000
  C   C395      1.0  0.11123  0.44176  0.74646  1.0000
  H   H679      1.0  0.19479  0.27619  0.92592  1.0000
  H   H680      1.0  0.01408  0.01059  0.77516  1.0000
  H   H681      1.0  0.20165  0.30862  0.90841  1.0000
  C   C396      1.0  0.17846  0.31006  0.87236  1.0000
  C   C397      1.0  0.29038  0.00448  0.97509  1.0000
  C   C398      1.0  0.30285  0.17231  0.91896  1.0000
  H   H682      1.0  0.04810  0.14297  0.86945  1.0000
  H   H683      1.0  0.24802  0.31597  0.83522  1.0000
  H   H684      1.0  0.21863  0.28177  0.82253  1.0000
  H   H685      1.0  0.19449  0.33393  0.85516  1.0000
  N   N21       1.0  0.03200  0.06249  0.77132  1.0000
  C   C399      1.0  0.02291  0.05845  0.75593  1.0000
  C   C400      1.0  0.18272  0.99556  0.87992  1.0000
  C   C401      1.0  0.04933  0.08966  0.77428  1.0000
  C   C402      1.0  0.04547  0.04790  0.77459  1.0000
  C   C403      1.0  0.03179  0.02002  0.76986  1.0000
  H   H686      1.0  0.00223  0.22754  0.81341  1.0000
  C   C404      1.0  0.05999  0.09700  0.78982  1.0000
  H   H687      1.0  0.10493  0.43192  0.75613  1.0000
  C   C405      1.0  0.00276  0.29380  0.97831  1.0000
  H   H688      1.0  0.04964  0.18426  0.87714  1.0000
  C   C406      1.0  0.07306  0.12511  0.79252  1.0000
  H   H689      1.0  0.19689  0.02976  0.89311  1.0000
  S   S95       1.0  0.29312  0.19504  0.92277  1.0000
  C   C407      1.0  0.01735  0.15586  0.85523  1.0000
  H   H690      1.0  0.05154  0.00910  0.78532  1.0000
  H   H691      1.0  0.04036  0.10108  0.77128  1.0000
  H   H692      1.0  0.06551  0.09583  0.76750  1.0000
  H   H693      1.0  0.06387  0.05639  0.76987  1.0000
  H   H694      1.0  0.04938  0.04870  0.78627  1.0000
  H   H695      1.0  0.02791  0.01725  0.75821  1.0000
  H   H696      1.0  0.01491  0.35901  0.92959  1.0000
  H   H697      1.0  0.22092  0.21624  0.91031  1.0000
  C   C408      1.0  0.23216  0.12288  0.89084  1.0000
  H   H698      1.0  0.07358  0.09024  0.79197  1.0000
  C   C409      1.0  0.00996  0.05377  0.78051  1.0000
  H   H699      1.0  0.22842  0.34944  0.79599  1.0000
  H   H700      1.0  0.16322  0.26479  0.82605  1.0000
  C   C410      1.0  0.26613  0.31086  0.86102  1.0000
  C   C411      1.0  0.19394  0.30877  0.91894  1.0000
  C   C412      1.0  0.22387  0.19966  0.91057  1.0000
  H   H701      1.0  0.00166  0.32561  0.92995  1.0000
  S   S96       1.0  0.30237  0.00283  0.92026  1.0000
  H   H702      1.0  0.19981  0.32824  0.92262  1.0000
  H   H703      1.0  0.08801  0.13419  0.78500  1.0000
  C   C413      1.0  0.00030  0.17160  0.83523  1.0000
  H   H704      1.0  0.18910  0.28090  0.85511  1.0000
  N   N22       1.0  0.24150  0.30054  0.94360  1.0000
  C   C414      1.0  0.23030  0.27262  0.94251  1.0000
  C   C415      1.0  0.23091  0.30819  0.93120  1.0000
  C   C416      1.0  0.23495  0.30910  0.95735  1.0000
  H   H705      1.0  0.01070  0.36427  0.97559  1.0000
  C   C417      1.0  0.24223  0.31911  0.98405  1.0000
  H   H706      1.0  0.04553  0.08901  0.79764  1.0000
  C   C418      1.0  0.23983  0.26050  0.95349  1.0000
  C   C419      1.0  0.22773  0.23241  0.95075  1.0000
  H   H707      1.0  0.27558  0.08975  0.96525  1.0000
  H   H708      1.0  0.20128  0.26464  0.83667  1.0000
  H   H709      1.0  0.21010  0.26387  0.94377  1.0000
  H   H710      1.0  0.23298  0.26651  0.93171  1.0000
  H   H711      1.0  0.23745  0.30423  0.92097  1.0000
  H   H712      1.0  0.23763  0.32857  0.93184  1.0000
  H   H713      1.0  0.23285  0.32602  0.95583  1.0000
  H   H714      1.0  0.21658  0.29490  0.96063  1.0000
  C   C420      1.0  0.23348  0.19597  0.89637  1.0000
  C   C421      1.0  0.29151  0.42871  0.74184  1.0000
  Fe  Fe48      1.0  0.30205  0.02980  0.93709  1.0000
  C   C422      1.0  0.20722  0.32183  0.82839  1.0000
  H   H715      1.0  0.25990  0.26765  0.95285  1.0000
  H   H716      1.0  0.23527  0.26378  0.96438  1.0000
  H   H717      1.0  0.23136  0.22773  0.93989  1.0000
  H   H718      1.0  0.23543  0.22432  0.95856  1.0000
  H   H719      1.0  0.20755  0.22400  0.95197  1.0000
  H   H720      1.0  0.17343  0.46647  0.75414  1.0000
  H   H721      1.0  0.31754  0.08119  0.95405  1.0000
  C   C423      1.0  0.23516  0.31375  0.84382  1.0000
  C   C424      1.0  0.17490  0.24396  0.81229  1.0000
  C   C425      1.0  0.19850  0.02360  0.88215  1.0000
  H   H722      1.0  0.02335  0.31997  0.84791  1.0000
  C   C426      1.0  0.20242  0.29587  0.92975  1.0000
  H   H723      1.0  0.21812  0.02861  0.88069  1.0000
  H   H724      1.0  0.27467  0.34984  0.94669  1.0000
  H   H725      1.0  0.16326  0.42218  0.77140  1.0000
  H   H726      1.0  0.19065  0.24679  0.80571  1.0000
  H   H727      1.0  0.15812  0.23679  0.80518  1.0000
  H   H728      1.0  0.18026  0.29546  0.87823  1.0000
  C   C427      1.0  0.04705  0.00710  0.77370  1.0000
  H   H729      1.0  0.15214  0.44432  0.77494  1.0000
  C   C428      1.0  0.16743  0.43992  0.77715  1.0000
  C   C429      1.0  0.19096  0.29722  0.84927  1.0000
  H   H730      1.0  0.19580  0.47745  0.77932  1.0000
  H   H731      1.0  0.22050  0.31210  0.80866  1.0000
  N   N23       1.0  0.01086  0.13731  0.86671  1.0000
  H   H732      1.0  0.14964  0.99905  0.87558  1.0000
  C   C430      1.0  0.17939  0.26836  0.81973  1.0000
  H   H733      1.0  0.22765  0.29515  0.86436  1.0000
  H   H734      1.0  0.15927  0.30269  0.86812  1.0000
  H   H735      1.0  0.24877  0.17451  0.90643  1.0000
  H   H736      1.0  0.21510  0.32649  0.86530  1.0000
  H   H737      1.0  0.26261  0.46314  0.76484  1.0000
  H   H738      1.0  0.24298  0.33941  0.81838  1.0000
  Fe  Fe49      1.0  0.30758  0.23663  0.91910  1.0000
  C   C431      1.0  0.19637  0.31876  0.86030  1.0000
  H   H739      1.0  0.00198  0.06724  0.81688  1.0000
  H   H740      1.0  0.06438  0.01498  0.76788  1.0000
  H   H741      1.0  0.27808  0.30777  0.95097  1.0000
  C   C432      1.0  0.19063  0.46535  0.75657  1.0000
  H   H742      1.0  0.30821  0.22512  0.86399  1.0000
  C   C433      1.0  0.31459  0.21284  0.86906  1.0000
  H   H743      1.0  0.28682  0.26243  0.96952  1.0000
  H   H744      1.0  0.20610  0.18329  0.91267  1.0000
  H   H745      1.0  0.01468  0.05138  0.79166  1.0000
  H   H746      1.0  0.26857  0.29923  0.86913  1.0000
  H   H747      1.0  0.26899  0.15216  0.89579  1.0000
  H   H748      1.0  0.00860  0.25495  0.83453  1.0000
  C   C434      1.0  0.23951  0.29810  0.85518  1.0000
  H   H749      1.0  0.21457  0.15202  0.87307  1.0000
  C   C435      1.0  0.25495  0.14708  0.88691  1.0000
  H   H750      1.0  0.09105  0.46258  0.74930  1.0000
  Fe  Fe50      1.0  0.16186  0.39771  0.73704  1.0000
  C   C436      1.0  0.04499  0.16894  0.88437  1.0000
  H   H751      1.0  0.27028  0.33329  0.96881  1.0000
  H   H752      1.0  0.99452  0.07615  0.77044  1.0000
  C   C437      1.0  0.98779  0.16018  0.87756  1.0000
  C   C438      1.0  0.21637  0.17641  0.85005  1.0000
  H   H753      1.0  0.27680  0.41080  0.74434  1.0000
  C   C439      1.0  0.99707  0.07034  0.78111  1.0000
  H   H754      1.0  0.06470  0.15967  0.90070  1.0000
  C   C440      1.0  0.19183  0.46077  0.77257  1.0000
  H   H755      1.0  0.20606  0.45489  0.77472  1.0000
  H   H756      1.0  0.15423  0.99335  0.89340  1.0000
  H   H757      1.0  0.02949  0.12982  0.88426  1.0000
  H   H758      1.0  0.25049  0.21332  0.89466  1.0000
  C   C441      1.0  0.26890  0.31175  0.94189  1.0000
  Fe  Fe51      1.0  0.28193  0.01692  0.90604  1.0000
  C   C442      1.0  0.23428  0.16264  0.87045  1.0000
  C   C443      1.0  0.23787  0.10108  0.89090  1.0000
  S   S97       1.0  0.27942  0.04217  0.92330  1.0000
  H   H759      1.0  0.27895  0.31337  0.85238  1.0000
  S   S98       1.0  0.28403  0.25131  0.92950  1.0000
  Fe  Fe52      1.0  0.28488  0.26956  0.90900  1.0000
  S   S99       1.0  0.24993  0.27229  0.90279  1.0000
  C   C444      1.0  0.23496  0.48312  0.75143  1.0000
  H   H760      1.0  0.02244  0.17470  0.85970  1.0000
  H   H761      1.0  0.27701  0.07853  0.94745  1.0000
  C   C445      1.0  0.30924  0.30170  0.97339  1.0000
  H   H762      1.0  0.99818  0.18506  0.84248  1.0000
  H   H763      1.0  0.21925  0.19318  0.88806  1.0000
  H   H764      1.0  0.05978  0.13256  0.79143  1.0000
  H   H765      1.0  0.27081  0.32917  0.86620  1.0000
  H   H766      1.0  0.98615  0.10618  0.85274  1.0000
  H   H767      1.0  0.01977  0.22255  0.82732  1.0000
  H   H768      1.0  0.27070  0.14306  0.92777  1.0000
  H   H769      1.0  0.24160  0.33287  0.84841  1.0000
  H   H770      1.0  0.03428  0.15812  0.85003  1.0000
  H   H771      1.0  0.01612  0.09288  0.87406  1.0000
  C   C446      1.0  0.23802  0.17310  0.89645  1.0000
  H   H772      1.0  0.22158  0.08422  0.89424  1.0000
  H   H773      1.0  0.23563  0.27970  0.85051  1.0000
  H   H774      1.0  0.23747  0.14994  0.86307  1.0000
  C   C447      1.0  0.28783  0.14770  0.92274  1.0000
  H   H775      1.0  0.21955  0.19219  0.84332  1.0000
  C   C448      1.0  0.29095  0.27815  0.97668  1.0000
  H   H776      1.0  0.31642  0.09298  0.97165  1.0000
  H   H777      1.0  0.99798  0.36105  0.95329  1.0000
  H   H778      1.0  0.21554  0.16102  0.84310  1.0000
  H   H779      1.0  0.99806  0.13555  0.83542  1.0000
  C   C449      1.0  0.04254  0.06354  0.74467  1.0000
  C   C450      1.0  0.28577  0.44657  0.73645  1.0000
  H   H780      1.0  0.03218  0.16924  0.89235  1.0000
  H   H781      1.0  0.19844  0.17029  0.85511  1.0000
  H   H782      1.0  0.23644  0.33369  0.98302  1.0000
  H   H783      1.0  0.00553  0.17653  0.88064  1.0000
  H   H784      1.0  0.99861  0.06557  0.85229  1.0000
  C   C451      1.0  0.30985  0.35162  0.94354  1.0000
  H   H785      1.0  0.98850  0.32882  0.95407  1.0000
  H   H786      1.0  0.03500  0.23975  0.81207  1.0000
  H   H787      1.0  0.99082  0.27366  0.86423  1.0000
  H   H788      1.0  0.21643  0.11806  0.88318  1.0000
  C   C452      1.0  0.98975  0.23348  0.88239  1.0000
  H   H789      1.0  0.25354  0.10514  0.89848  1.0000
  C   C453      1.0  0.31483  0.32170  0.98318  1.0000
  H   H790      1.0  0.28533  0.19667  0.89316  1.0000
  H   H791      1.0  0.00651  0.28882  0.84057  1.0000
  H   H792      1.0  0.28295  0.17866  0.86193  1.0000
  C   C454      1.0  0.12699  0.43674  0.73790  1.0000
  H   H793      1.0  0.31319  0.34964  0.95496  1.0000
  C   C455      1.0  0.99189  0.48222  0.78234  1.0000
  H   H794      1.0  0.01865  0.18065  0.83056  1.0000
  H   H795      1.0  0.99592  0.03495  0.77675  1.0000
  H   H796      1.0  0.23734  0.20005  0.86788  1.0000
  S   S100      1.0  0.01048  0.47959  0.76888  1.0000
  S   S101      1.0  0.13650  0.41457  0.74349  1.0000
  C   C456      1.0  0.27533  0.19121  0.88260  1.0000
  H   H797      1.0  0.99121  0.12922  0.88624  1.0000
  H   H798      1.0  0.28268  0.48970  0.75509  1.0000
  N   N24       1.0  0.21256  0.48733  0.75103  1.0000
  S   S102      1.0  0.25075  0.99697  0.88898  1.0000
  H   H799      1.0  0.07658  0.47830  0.79153  1.0000
  C   C457      1.0  0.99004  0.13593  0.87552  1.0000
  C   C458      1.0  0.98660  0.06569  0.86088  1.0000
  S   S103      1.0  0.31693  0.04699  0.89751  1.0000
  C   C459      1.0  0.31723  0.13485  0.91398  1.0000
  Fe  Fe53      1.0  0.01785  0.69659  0.04171  1.0000
  S   S104      1.0  0.02515  0.73422  0.05041  1.0000
  H   H800      1.0  0.06841  0.58993  0.02009  1.0000
  Fe  Fe54      1.0  0.05055  0.69086  0.06502  1.0000
  S   S105      1.0  0.06093  0.72852  0.07528  1.0000
  S   S106      1.0  0.06591  0.66364  0.06951  1.0000
  Fe  Fe55      1.0  0.02080  0.71864  0.07212  1.0000
  Fe  Fe56      1.0  0.06504  0.74286  0.05324  1.0000
  S   S107      1.0  0.09224  0.78206  0.04665  1.0000
  S   S108      1.0  0.01027  0.68000  0.06339  1.0000
  S   S109      1.0  0.05775  0.70613  0.04299  1.0000
  Fe  Fe57      1.0  0.26428  0.94404  0.03475  1.0000
  S   S110      1.0  0.22568  0.93091  0.04220  1.0000
  S   S111      1.0  0.27145  0.94758  0.01060  1.0000
  Fe  Fe58      1.0  0.28369  0.93955  0.06477  1.0000
  S   S112      1.0  0.24634  0.92722  0.07378  1.0000
  C   C460      1.0  0.28878  0.62976  0.23228  1.0000
  Fe  Fe59      1.0  0.23041  0.90200  0.05426  1.0000
  S   S113      1.0  0.20619  0.86055  0.05824  1.0000
  Fe  Fe60      1.0  0.24422  0.95702  0.06138  1.0000
  S   S114      1.0  0.26784  0.91313  0.04568  1.0000
  S   S115      1.0  0.28271  0.97153  0.05346  1.0000
  H   H801      1.0  0.29103  0.52579  0.12873  1.0000
  H   H802      1.0  0.10322  0.68959  0.02380  1.0000
  Fe  Fe61      1.0  0.05868  0.55044  0.11993  1.0000
  S   S116      1.0  0.07052  0.54719  0.14243  1.0000
  S   S117      1.0  0.05255  0.58448  0.11650  1.0000
  Fe  Fe62      1.0  0.09676  0.53600  0.13228  1.0000
  S   S118      1.0  0.13437  0.54523  0.14262  1.0000
  Fe  Fe63      1.0  0.04205  0.50707  0.14036  1.0000
  N   N25       1.0  0.01118  0.50939  0.22594  1.0000
  S   S119      1.0  0.08685  0.54168  0.11001  1.0000
  S   S120      1.0  0.02846  0.51053  0.11843  1.0000
  H   H803      1.0  0.21858  0.55140  0.10623  1.0000
  S   S121      1.0  0.29189  0.66496  0.17161  1.0000
  H   H804      1.0  0.28626  0.69303  0.22268  1.0000
  C   C461      1.0  0.12262  0.51175  0.09881  1.0000
  Fe  Fe64      1.0  0.28031  0.63865  0.15231  1.0000
  S   S122      1.0  0.24604  0.62935  0.13800  1.0000
  S   S123      1.0  0.29133  0.61200  0.16216  1.0000
  H   H805      1.0  0.31515  0.74247  0.22466  1.0000
  C   C462      1.0  0.02706  0.97194  0.12949  1.0000
  H   H806      1.0  0.15699  0.52401  0.12245  1.0000
  C   C463      1.0  0.03932  0.59645  0.01071  1.0000
  H   H807      1.0  0.07558  0.95624  0.10906  1.0000
  C   C464      1.0  0.28873  0.86285  0.05084  1.0000
  C   C465      1.0  0.02326  0.97902  0.11432  1.0000
  H   H808      1.0  0.05922  0.55902  0.18919  1.0000
  C   C466      1.0  0.99978  0.52607  0.22894  1.0000
  C   C467      1.0  0.16523  0.56888  0.14106  1.0000
  C   C468      1.0  0.18317  0.57124  0.15141  1.0000
  C   C469      1.0  0.20792  0.58954  0.15064  1.0000
  C   C470      1.0  0.21512  0.60572  0.13945  1.0000
  C   C471      1.0  0.19724  0.60312  0.12898  1.0000
  C   C472      1.0  0.17248  0.58475  0.12972  1.0000
  H   H809      1.0  0.17785  0.55895  0.16017  1.0000
  H   H810      1.0  0.22142  0.59121  0.15876  1.0000
  H   H811      1.0  0.20267  0.61531  0.12017  1.0000
  H   H812      1.0  0.15912  0.58266  0.12146  1.0000
  C   C473      1.0  0.20191  0.67288  0.13235  1.0000
  C   C474      1.0  0.05472  0.60497  0.10274  1.0000
  C   C475      1.0  0.06518  0.60485  0.08972  1.0000
  C   C476      1.0  0.06822  0.62276  0.07968  1.0000
  C   C477      1.0  0.06026  0.64064  0.08229  1.0000
  C   C478      1.0  0.04914  0.64029  0.09513  1.0000
  C   C479      1.0  0.04668  0.62279  0.10532  1.0000
  H   H813      1.0  0.07127  0.59123  0.08748  1.0000
  H   H814      1.0  0.07685  0.62278  0.06981  1.0000
  H   H815      1.0  0.04298  0.65390  0.09738  1.0000
  H   H816      1.0  0.03856  0.62313  0.11533  1.0000
  C   C480      1.0  0.12397  0.80354  0.05016  1.0000
  C   C481      1.0  0.13995  0.79758  0.05795  1.0000
  C   C482      1.0  0.16492  0.81530  0.06037  1.0000
  C   C483      1.0  0.17435  0.83921  0.05501  1.0000
  C   C484      1.0  0.15837  0.84515  0.04720  1.0000
  C   C485      1.0  0.13338  0.82745  0.04484  1.0000
  H   H817      1.0  0.13320  0.77921  0.06190  1.0000
  H   H818      1.0  0.17708  0.81041  0.06637  1.0000
  H   H819      1.0  0.16529  0.86335  0.04294  1.0000
  H   H820      1.0  0.12129  0.83230  0.03872  1.0000
  H   H821      1.0  0.17513  0.52732  0.09831  1.0000
  H   H822      1.0  0.03495  0.63519  0.04618  1.0000
  H   H823      1.0  0.02168  0.93996  0.14938  1.0000
  H   H824      1.0  0.98689  0.97550  0.11793  1.0000
  H   H825      1.0  0.07482  0.64472  0.02574  1.0000
  H   H826      1.0  0.20489  0.65729  0.13596  1.0000
  C   C486      1.0  0.30799  0.54185  0.13325  1.0000
  H   H827      1.0  0.99476  0.89893  0.10233  1.0000
  H   H828      1.0  0.05512  0.79599  0.13727  1.0000
  H   H829      1.0  0.00877  0.96147  0.13415  1.0000
  S   S124      1.0  0.99165  0.67214  0.02333  1.0000
  H   H830      1.0  0.30891  0.90340  0.05496  1.0000
  H   H831      1.0  0.30002  0.85025  0.08504  1.0000
  H   H832      1.0  0.16998  0.50524  0.12789  1.0000
  H   H833      1.0  0.01418  0.54576  0.23047  1.0000
  C   C487      1.0  0.00490  0.98924  0.11402  1.0000
  H   H834      1.0  0.98804  0.52932  0.20695  1.0000
  S   S125      1.0  0.06906  0.49548  0.13156  1.0000
  H   H835      1.0  0.03428  0.66021  0.01918  1.0000
  H   H836      1.0  0.04356  0.50709  0.23353  1.0000
  H   H837      1.0  0.21123  0.68866  0.14026  1.0000
  H   H838      1.0  0.02306  0.58587  0.00339  1.0000
  H   H839      1.0  0.24936  0.68186  0.20718  1.0000
  H   H840      1.0  0.12937  0.88125  0.07223  1.0000
  H   H841      1.0  0.27008  0.61518  0.23045  1.0000
  C   C488      1.0  0.04551  0.53992  0.19167  1.0000
  H   H842      1.0  0.03148  0.55215  0.20903  1.0000
  H   H843      1.0  0.14551  0.86305  0.07110  1.0000
  H   H844      1.0  0.13456  0.77831  0.09883  1.0000
  H   H845      1.0  0.08057  0.96889  0.13366  1.0000
  H   H846      1.0  0.21052  0.67878  0.12196  1.0000
  H   H847      1.0  0.10216  0.76006  0.10165  1.0000
  H   H848      1.0  0.13193  0.84705  0.09483  1.0000
  C   C489      1.0  0.02079  0.51240  0.21115  1.0000
  H   H849      1.0  0.04631  0.60865  0.03310  1.0000
  H   H850      1.0  0.01258  0.61256  0.99447  1.0000
  N   N26       1.0  0.28259  0.85449  0.06583  1.0000
  H   H851      1.0  0.10608  0.50738  0.10499  1.0000
  C   C490      1.0  0.27280  0.87022  0.07303  1.0000
  C   C491      1.0  0.26367  0.82747  0.06513  1.0000
  H   H852      1.0  0.98680  0.59176  0.01724  1.0000
  C   C492      1.0  0.11701  0.51604  0.08354  1.0000
  H   H853      1.0  0.21220  0.53779  0.12336  1.0000
  C   C493      1.0  0.23760  0.82160  0.05935  1.0000
  C   C494      1.0  0.26423  0.86354  0.08840  1.0000
  C   C495      1.0  0.25189  0.87857  0.09386  1.0000
  H   H854      1.0  0.19943  0.55771  0.11803  1.0000
  C   C496      1.0  0.31503  0.49667  0.12371  1.0000
  C   C497      1.0  0.22073  0.79367  0.05762  1.0000
  C   C498      1.0  0.00307  0.91594  0.12382  1.0000
  C   C499      1.0  0.29945  0.71225  0.20291  1.0000
  H   H855      1.0  0.28706  0.88987  0.07375  1.0000
  H   H856      1.0  0.25748  0.87018  0.06648  1.0000
  H   H857      1.0  0.26175  0.81945  0.07578  1.0000
  H   H858      1.0  0.26995  0.81660  0.05826  1.0000
  H   H859      1.0  0.02004  0.71516  0.00604  1.0000
  H   H860      1.0  0.27288  0.86368  0.04543  1.0000
  C   C500      1.0  0.99793  0.61205  0.01592  1.0000
  C   C501      1.0  0.26041  0.67193  0.20592  1.0000
  H   H861      1.0  0.01914  0.80422  0.06532  1.0000
  C   C502      1.0  0.05391  0.97212  0.15734  1.0000
  H   H862      1.0  0.23828  0.82960  0.04885  1.0000
  H   H863      1.0  0.22885  0.82918  0.06679  1.0000
  H   H864      1.0  0.25085  0.84368  0.08904  1.0000
  H   H865      1.0  0.28021  0.86788  0.09576  1.0000
  H   H866      1.0  0.24605  0.87360  0.10488  1.0000
  H   H867      1.0  0.26490  0.89873  0.09395  1.0000
  H   H868      1.0  0.23537  0.87462  0.08704  1.0000
  H   H869      1.0  0.03056  0.50125  0.20943  1.0000
  C   C503      1.0  0.20431  0.54325  0.11424  1.0000
  H   H870      1.0  0.03177  0.93818  0.11008  1.0000
  H   H871      1.0  0.11319  0.76530  0.08379  1.0000
  H   H872      1.0  0.15506  0.88790  0.08433  1.0000
  H   H873      1.0  0.22807  0.78508  0.04985  1.0000
  H   H874      1.0  0.21878  0.78488  0.06800  1.0000
  H   H875      1.0  0.20221  0.79016  0.05361  1.0000
  N   N27       1.0  0.13341  0.63158  0.11887  1.0000
  C   C504      1.0  0.12237  0.62358  0.13316  1.0000
  C   C505      1.0  0.12447  0.64838  0.11226  1.0000
  C   C506      1.0  0.12429  0.60848  0.10927  1.0000
  C   C507      1.0  0.16117  0.64379  0.11978  1.0000
  C   C508      1.0  0.17443  0.66516  0.13114  1.0000
  C   C509      1.0  0.12982  0.60601  0.14107  1.0000
  C   C510      1.0  0.13150  0.61268  0.09349  1.0000
  C   C511      1.0  0.11979  0.66605  0.12238  1.0000
  C   C512      1.0  0.11487  0.68447  0.11402  1.0000
  C   C513      1.0  0.12149  0.60296  0.15637  1.0000
  C   C514      1.0  0.12235  0.58804  0.08503  1.0000
  H   H876      1.0  0.10188  0.61408  0.13194  1.0000
  H   H877      1.0  0.12704  0.63976  0.14054  1.0000
  H   H878      1.0  0.13721  0.65964  0.10405  1.0000
  H   H879      1.0  0.10644  0.63717  0.10642  1.0000
  H   H880      1.0  0.10383  0.59777  0.10930  1.0000
  H   H881      1.0  0.13117  0.59589  0.11330  1.0000
  H   H882      1.0  0.16753  0.62974  0.12152  1.0000
  H   H883      1.0  0.16883  0.65176  0.10947  1.0000
  H   H884      1.0  0.16716  0.65983  0.14184  1.0000
  H   H885      1.0  0.17267  0.68163  0.12805  1.0000
  H   H886      1.0  0.12115  0.58735  0.13564  1.0000
  H   H887      1.0  0.15001  0.61316  0.14160  1.0000
  H   H888      1.0  0.15173  0.62280  0.09264  1.0000
  H   H889      1.0  0.12339  0.62338  0.08826  1.0000
  H   H890      1.0  0.10322  0.65510  0.12855  1.0000
  H   H891      1.0  0.13547  0.67672  0.12999  1.0000
  H   H892      1.0  0.09894  0.67451  0.10636  1.0000
  H   H893      1.0  0.11055  0.69619  0.12145  1.0000
  H   H894      1.0  0.13127  0.69671  0.10811  1.0000
  H   H895      1.0  0.10148  0.59693  0.15666  1.0000
  H   H896      1.0  0.12520  0.58869  0.16133  1.0000
  H   H897      1.0  0.13175  0.62070  0.16270  1.0000
  H   H898      1.0  0.13078  0.57704  0.08952  1.0000
  H   H899      1.0  0.10202  0.57711  0.08520  1.0000
  H   H900      1.0  0.12754  0.59156  0.07379  1.0000
  C   C515      1.0  0.06756  0.81086  0.13042  1.0000
  N   N28       1.0  0.08088  0.81270  0.08980  1.0000
  C   C516      1.0  0.08141  0.82089  0.10516  1.0000
  C   C517      1.0  0.09774  0.83443  0.08125  1.0000
  C   C518      1.0  0.05482  0.80320  0.08390  1.0000
  C   C519      1.0  0.08745  0.79190  0.08837  1.0000
  C   C520      1.0  0.11308  0.79733  0.09454  1.0000
  C   C521      1.0  0.06449  0.80051  0.11511  1.0000
  C   C522      1.0  0.05055  0.79701  0.06765  1.0000
  C   C523      1.0  0.12155  0.85482  0.08897  1.0000
  C   C524      1.0  0.13882  0.87282  0.07848  1.0000
  C   C525      1.0  0.11581  0.77375  0.09470  1.0000
  H   H901      1.0  0.04362  0.98282  0.15810  1.0000
  C   C526      1.0  0.02385  0.78906  0.06300  1.0000
  H   H902      1.0  0.07624  0.83610  0.10571  1.0000
  H   H903      1.0  0.10020  0.82906  0.11012  1.0000
  H   H904      1.0  0.10306  0.82767  0.07146  1.0000
  H   H905      1.0  0.08789  0.84458  0.07735  1.0000
  H   H906      1.0  0.04814  0.81690  0.08642  1.0000
  H   H907      1.0  0.04209  0.78577  0.08894  1.0000
  H   H908      1.0  0.07319  0.77486  0.09306  1.0000
  H   H909      1.0  0.08720  0.78649  0.07699  1.0000
  H   H910      1.0  0.11646  0.80512  0.10561  1.0000
  H   H911      1.0  0.12756  0.81041  0.08775  1.0000
  H   H912      1.0  0.06289  0.97612  0.10415  1.0000
  H   H913      1.0  0.06267  0.97817  0.18002  1.0000
  H   H914      1.0  0.05434  0.78149  0.06483  1.0000
  H   H915      1.0  0.06245  0.81305  0.06136  1.0000
  H   H916      1.0  0.11676  0.86577  0.09672  1.0000
  S   S126      1.0  0.31708  0.66007  0.14246  1.0000
  H   H917      1.0  0.05275  0.61319  0.00550  1.0000
  C   C527      1.0  0.04103  0.64616  0.01856  1.0000
  C   C528      1.0  0.18166  0.52080  0.10754  1.0000
  H   H918      1.0  0.06715  0.66415  0.03693  1.0000
  H   H919      1.0  0.99219  0.69024  0.11460  1.0000
  H   H920      1.0  0.11093  0.53049  0.08354  1.0000
  C   C529      1.0  0.08508  0.68057  0.01793  1.0000
  H   H921      1.0  0.98653  0.62039  0.02012  1.0000
  H   H922      1.0  0.01634  0.58514  0.02851  1.0000
  H   H923      1.0  0.30701  0.82360  0.06791  1.0000
  H   H924      1.0  0.29637  0.70674  0.19134  1.0000
  C   C530      1.0  0.03053  0.93427  0.12153  1.0000
  C   C531      1.0  0.01779  0.62786  0.03944  1.0000
  C   C532      1.0  0.05469  0.96239  0.17202  1.0000
  C   C533      1.0  0.07561  0.97406  0.11181  1.0000
  H   H925      1.0  0.28861  0.72217  0.20506  1.0000
  N   N29       1.0  0.04160  0.95789  0.13078  1.0000
  H   H926      1.0  0.28765  0.56092  0.14019  1.0000
  C   C534      1.0  0.30039  0.55461  0.14485  1.0000
  H   H927      1.0  0.29913  0.89539  0.02874  1.0000
  C   C535      1.0  0.06826  0.97424  0.12745  1.0000
  H   H928      1.0  0.01113  0.77230  0.06857  1.0000
  H   H929      1.0  0.01225  0.64283  0.03960  1.0000
  H   H930      1.0  0.08765  0.67496  0.00703  1.0000
  H   H931      1.0  0.13793  0.52931  0.10331  1.0000
  H   H932      1.0  0.00442  0.88316  0.11507  1.0000
  H   H933      1.0  0.07313  0.98499  0.15481  1.0000
  H   H934      1.0  0.30193  0.75458  0.19174  1.0000
  H   H935      1.0  0.04481  0.79311  0.11182  1.0000
  H   H936      1.0  0.05650  0.54603  0.21385  1.0000
  C   C536      1.0  0.05150  0.58001  0.01312  1.0000
  H   H937      1.0  0.31620  0.55532  0.12482  1.0000
  H   H938      1.0  0.29664  0.67706  0.21027  1.0000
  C   C537      1.0  0.06722  0.65794  0.02577  1.0000
  C   C538      1.0  0.99894  0.61659  0.99974  1.0000
  H   H939      1.0  0.06274  0.82624  0.13103  1.0000
  H   H940      1.0  0.29091  0.54167  0.15336  1.0000
  C   C539      1.0  0.28699  0.68833  0.21131  1.0000
  H   H941      1.0  0.01603  0.96290  0.10664  1.0000
  H   H942      1.0  0.25964  0.66613  0.19456  1.0000
  H   H943      1.0  0.98798  0.75033  0.11349  1.0000
  H   H944      1.0  0.04136  0.92412  0.12316  1.0000
  C   C540      1.0  0.04096  0.95052  0.14602  1.0000
  H   H945      1.0  0.00040  0.90891  0.13470  1.0000
  C   C541      1.0  0.99259  0.61413  0.06155  1.0000
  H   H946      1.0  0.07815  0.69433  0.01717  1.0000
  H   H947      1.0  0.06637  0.95301  0.17206  1.0000
  H   H948      1.0  0.04356  0.64395  0.00711  1.0000
  S   S127      1.0  0.00574  0.73071  0.09120  1.0000
  C   C542      1.0  0.00613  0.70049  0.99922  1.0000
  H   H949      1.0  0.03591  0.94917  0.17516  1.0000
  S   S128      1.0  0.31083  0.93957  0.08222  1.0000
  H   H950      1.0  0.05673  0.57508  0.00277  1.0000
  H   H951      1.0  0.04933  0.93791  0.14708  1.0000
  C   C543      1.0  0.27778  0.97010  0.99732  1.0000
  H   H952      1.0  0.11679  0.49789  0.12636  1.0000
  C   C544      1.0  0.03108  0.60298  0.02489  1.0000
  H   H953      1.0  0.08678  0.81771  0.13458  1.0000
  H   H954      1.0  0.25210  0.65494  0.21213  1.0000
  N   N30       1.0  0.02219  0.62212  0.02439  1.0000
  H   H955      1.0  0.99127  0.92489  0.12200  1.0000
  C   C545      1.0  0.03914  0.53916  0.20732  1.0000
  C   C546      1.0  0.30503  0.85749  0.07425  1.0000
  H   H956      1.0  0.98977  0.92097  0.20076  1.0000
  H   H957      1.0  0.99077  0.50937  0.15875  1.0000
  S   S129      1.0  0.00177  0.97252  0.17594  1.0000
  H   H958      1.0  0.00406  0.63635  0.99814  1.0000
  C   C547      1.0  0.16134  0.50923  0.11849  1.0000
  C   C548      1.0  0.31552  0.89512  0.03375  1.0000
  H   H959      1.0  0.03864  0.56260  0.01809  1.0000
  H   H960      1.0  0.06898  0.78493  0.11519  1.0000
  S   S130      1.0  0.29251  0.62498  0.20335  1.0000
  S   S131      1.0  0.22447  0.97828  0.06992  1.0000
  H   H961      1.0  0.30096  0.49961  0.11768  1.0000
  H   H962      1.0  0.05341  0.52725  0.18928  1.0000
  H   H963      1.0  0.13366  0.52228  0.07718  1.0000
  C   C549      1.0  0.99364  0.89331  0.11352  1.0000
  H   H964      1.0  0.18757  0.50723  0.10362  1.0000
  C   C550      1.0  0.30416  0.63847  0.22069  1.0000
  H   H965      1.0  0.29165  0.84907  0.04430  1.0000
  Fe  Fe65      1.0  0.05756  0.50144  0.10995  1.0000
  H   H966      1.0  0.02118  0.78451  0.05138  1.0000
  Fe  Fe66      1.0  0.30484  0.63948  0.18118  1.0000
  H   H967      1.0  0.02883  0.53433  0.18465  1.0000
  H   H968      1.0  0.00561  0.59247  0.04986  1.0000
  C   C551      1.0  0.31141  0.88862  0.04935  1.0000
  H   H969      1.0  0.98586  0.56239  0.22174  1.0000
  C   C552      1.0  0.99004  0.67803  0.00500  1.0000
  H   H970      1.0  0.00969  0.62527  0.06819  1.0000
  C   C553      1.0  0.99842  0.60560  0.04741  1.0000
  H   H971      1.0  0.00532  0.50477  0.20304  1.0000
  H   H972      1.0  0.31673  0.57114  0.14962  1.0000
  H   H973      1.0  0.31666  0.52065  0.14798  1.0000
  H   H974      1.0  0.03611  0.98963  0.13599  1.0000
  H   H975      1.0  0.10199  0.49875  0.07845  1.0000
  H   H976      1.0  0.14130  0.49146  0.09071  1.0000
  C   C554      1.0  0.98482  0.49631  0.16713  1.0000
  Fe  Fe67      1.0  0.05531  0.74677  0.41998  1.0000
  S   S132      1.0  0.05756  0.71331  0.42809  1.0000
  S   S133      1.0  0.08412  0.78713  0.41629  1.0000
  Fe  Fe68      1.0  0.99902  0.71773  0.41512  1.0000
  H   H977      1.0  0.23742  0.87682  0.45662  1.0000
  C   C555      1.0  0.02034  0.83924  0.32831  1.0000
  Fe  Fe69      1.0  0.02406  0.70670  0.44068  1.0000
  S   S134      1.0  0.02084  0.69315  0.46355  1.0000
  Fe  Fe70      1.0  0.03054  0.69112  0.40996  1.0000
  S   S135      1.0  0.02573  0.65973  0.39378  1.0000
  S   S136      1.0  0.02351  0.74131  0.43363  1.0000
  S   S137      1.0  0.03033  0.72496  0.40109  1.0000
  Fe  Fe71      1.0  0.25486  0.94783  0.43604  1.0000
  S   S138      1.0  0.22092  0.93200  0.42123  1.0000
  S   S139      1.0  0.24828  0.96298  0.45738  1.0000
  Fe  Fe72      1.0  0.28374  0.93304  0.41433  1.0000
  S   S140      1.0  0.25141  0.91600  0.39871  1.0000
  H   H978      1.0  0.14479  0.90505  0.44878  1.0000
  Fe  Fe73      1.0  0.24687  0.95011  0.40368  1.0000
  H   H979      1.0  0.07375  0.97774  0.28357  1.0000
  Fe  Fe74      1.0  0.22786  0.89936  0.41750  1.0000
  S   S141      1.0  0.20098  0.85801  0.41986  1.0000
  S   S142      1.0  0.28039  0.96806  0.41856  1.0000
  S   S143      1.0  0.26074  0.91437  0.43296  1.0000
  H   H980      1.0  0.04829  0.60649  0.44383  1.0000
  S   S144      1.0  0.06843  0.50905  0.33474  1.0000
  Fe  Fe75      1.0  0.06683  0.55666  0.36288  1.0000
  S   S145      1.0  0.08192  0.56732  0.34115  1.0000
  S   S146      1.0  0.07190  0.58651  0.38021  1.0000
  Fe  Fe76      1.0  0.04854  0.53179  0.33314  1.0000
  S   S147      1.0  0.02355  0.53296  0.31492  1.0000
  Fe  Fe77      1.0  0.10060  0.54362  0.34442  1.0000
  S   S148      1.0  0.14094  0.55175  0.34309  1.0000
  S   S149      1.0  0.03272  0.52212  0.35485  1.0000
  S   S150      1.0  0.08747  0.53478  0.36670  1.0000
  H   H981      1.0  0.00740  0.70947  0.34909  1.0000
  S   S151      1.0  0.29736  0.68044  0.30041  1.0000
  S   S152      1.0  0.99742  0.97309  0.29921  1.0000
  N   N31       1.0  0.00808  0.61947  0.43758  1.0000
  Fe  Fe78      1.0  0.27313  0.64202  0.30820  1.0000
  S   S153      1.0  0.23133  0.62866  0.30803  1.0000
  H   H982      1.0  0.02428  0.74734  0.37439  1.0000
  C   C556      1.0  0.13009  0.52223  0.38781  1.0000
  C   C557      1.0  0.13724  0.63752  0.33617  1.0000
  H   H983      1.0  0.06011  0.53946  0.26162  1.0000
  H   H984      1.0  0.28715  0.56191  0.25986  1.0000
  S   S154      1.0  0.99765  0.68273  0.42306  1.0000
  C   C558      1.0  0.00629  0.51192  0.30047  1.0000
  H   H985      1.0  0.27537  0.84821  0.35483  1.0000
  C   C559      1.0  0.99811  0.63192  0.44770  1.0000
  C   C560      1.0  0.16572  0.57271  0.33294  1.0000
  C   C561      1.0  0.16217  0.58548  0.32179  1.0000
  C   C562      1.0  0.18242  0.60220  0.31423  1.0000
  C   C563      1.0  0.20651  0.60646  0.31766  1.0000
  C   C564      1.0  0.21004  0.59356  0.32877  1.0000
  C   C565      1.0  0.18977  0.57679  0.33633  1.0000
  H   H986      1.0  0.14382  0.58247  0.31897  1.0000
  H   H987      1.0  0.17940  0.61196  0.30563  1.0000
  H   H988      1.0  0.22841  0.59659  0.33157  1.0000
  H   H989      1.0  0.19281  0.56704  0.34492  1.0000
  H   H990      1.0  0.14140  0.91631  0.42427  1.0000
  C   C566      1.0  0.03996  0.64069  0.38971  1.0000
  C   C567      1.0  0.06005  0.64207  0.39772  1.0000
  C   C568      1.0  0.06950  0.62544  0.39462  1.0000
  C   C569      1.0  0.05939  0.60740  0.38332  1.0000
  C   C570      1.0  0.03960  0.60634  0.37514  1.0000
  C   C571      1.0  0.02997  0.62279  0.37834  1.0000
  H   H991      1.0  0.06821  0.65584  0.40636  1.0000
  H   H992      1.0  0.08485  0.62659  0.40102  1.0000
  H   H993      1.0  0.03155  0.59267  0.36643  1.0000
  H   H994      1.0  0.05864  0.50925  0.25916  1.0000
  C   C572      1.0  0.11674  0.80623  0.41712  1.0000
  C   C573      1.0  0.12651  0.83093  0.41295  1.0000
  C   C574      1.0  0.15214  0.84697  0.41356  1.0000
  C   C575      1.0  0.16843  0.83860  0.41850  1.0000
  C   C576      1.0  0.15868  0.81394  0.42269  1.0000
  C   C577      1.0  0.13306  0.79784  0.42199  1.0000
  H   H995      1.0  0.11412  0.83765  0.40913  1.0000
  H   H996      1.0  0.15928  0.86572  0.41014  1.0000
  H   H997      1.0  0.17105  0.80719  0.42651  1.0000
  H   H998      1.0  0.12593  0.77899  0.42527  1.0000
  H   H999      1.0  0.30208  0.55385  0.27399  1.0000
  H   H1000     1.0  0.30060  0.83911  0.32920  1.0000
  H   H1001     1.0  0.01578  0.82138  0.33325  1.0000
  H   H1002     1.0  0.20171  0.71324  0.37363  1.0000
  H   H1003     1.0  0.99089  0.64225  0.35836  1.0000
  C   C578      1.0  0.26464  0.97372  0.47423  1.0000
  H   H1004     1.0  0.03334  0.85480  0.33556  1.0000
  C   C579      1.0  0.18010  0.68879  0.35561  1.0000
  H   H1005     1.0  0.30457  0.51779  0.36852  1.0000
  H   H1006     1.0  0.03039  0.65281  0.42651  1.0000
  C   C580      1.0  0.05164  0.65408  0.44535  1.0000
  H   H1007     1.0  0.02960  0.83986  0.31824  1.0000
  C   C581      1.0  0.31166  0.96138  0.37615  1.0000
  H   H1008     1.0  0.14068  0.98798  0.39169  1.0000
  H   H1009     1.0  0.08181  0.98771  0.35511  1.0000
  C   C582      1.0  0.29722  0.64003  0.24619  1.0000
  H   H1010     1.0  0.11123  0.80352  0.44812  1.0000
  C   C583      1.0  0.99977  0.68997  0.47716  1.0000
  H   H1011     1.0  0.14120  0.52951  0.39792  1.0000
  H   H1012     1.0  0.26042  0.54458  0.28005  1.0000
  H   H1013     1.0  0.08138  0.95787  0.35455  1.0000
  C   C584      1.0  0.18489  0.70900  0.36703  1.0000
  H   H1014     1.0  0.00359  0.91669  0.32298  1.0000
  H   H1015     1.0  0.07966  0.67860  0.43135  1.0000
  H   H1016     1.0  0.13943  0.53548  0.37941  1.0000
  H   H1017     1.0  0.18854  0.91180  0.44773  1.0000
  C   C585      1.0  0.07794  0.66646  0.44026  1.0000
  C   C586      1.0  0.28901  0.95158  0.36557  1.0000
  S   S155      1.0  0.29827  0.64683  0.32711  1.0000
  C   C587      1.0  0.21591  0.89545  0.46238  1.0000
  H   H1018     1.0  0.30463  0.95312  0.38654  1.0000
  C   C588      1.0  0.02745  0.73814  0.36492  1.0000
  H   H1019     1.0  0.11168  0.52081  0.38938  1.0000
  H   H1020     1.0  0.12898  0.85431  0.45705  1.0000
  C   C589      1.0  0.15758  0.91412  0.42779  1.0000
  C   C590      1.0  0.10915  0.98556  0.36941  1.0000
  N   N32       1.0  0.16872  0.87662  0.45775  1.0000
  H   H1021     1.0  0.25412  0.90544  0.46709  1.0000
  C   C591      1.0  0.03273  0.63907  0.43305  1.0000
  H   H1022     1.0  0.01496  0.52029  0.25609  1.0000
  H   H1023     1.0  0.18334  0.98959  0.34882  1.0000
  C   C592      1.0  0.15081  0.89672  0.44014  1.0000
  H   H1024     1.0  0.21554  0.90689  0.47162  1.0000
  N   N33       1.0  0.17415  0.64352  0.35256  1.0000
  C   C593      1.0  0.16476  0.64401  0.33768  1.0000
  C   C594      1.0  0.19905  0.64445  0.35181  1.0000
  C   C595      1.0  0.15683  0.61891  0.35852  1.0000
  C   C596      1.0  0.17530  0.66412  0.36239  1.0000
  S   S156      1.0  0.29054  0.62462  0.29416  1.0000
  C   C597      1.0  0.16500  0.61324  0.37307  1.0000
  C   C598      1.0  0.21947  0.66696  0.34469  1.0000
  C   C599      1.0  0.24325  0.66489  0.34428  1.0000
  H   H1025     1.0  0.08331  0.65228  0.43668  1.0000
  H   H1026     1.0  0.16717  0.63063  0.33052  1.0000
  H   H1027     1.0  0.17584  0.66218  0.33298  1.0000
  H   H1028     1.0  0.20667  0.64451  0.36265  1.0000
  H   H1029     1.0  0.19712  0.62738  0.34605  1.0000
  H   H1030     1.0  0.15370  0.60338  0.35086  1.0000
  H   H1031     1.0  0.14519  0.50358  0.34464  1.0000
  H   H1032     1.0  0.18950  0.66857  0.37110  1.0000
  H   H1033     1.0  0.19597  0.69583  0.34868  1.0000
  H   H1034     1.0  0.00612  0.69083  0.37359  1.0000
  H   H1035     1.0  0.17075  0.62912  0.38087  1.0000
  H   H1036     1.0  0.18056  0.60904  0.37176  1.0000
  H   H1037     1.0  0.21404  0.66828  0.33356  1.0000
  H   H1038     1.0  0.22395  0.68430  0.35091  1.0000
  H   H1039     1.0  0.24013  0.64763  0.33835  1.0000
  H   H1040     1.0  0.25743  0.68086  0.33878  1.0000
  H   H1041     1.0  0.25047  0.66494  0.35521  1.0000
  H   H1042     1.0  0.31642  0.57492  0.24468  1.0000
  C   C600      1.0  0.14419  0.59054  0.37933  1.0000
  C   C601      1.0  0.02975  0.59172  0.44024  1.0000
  C   C602      1.0  0.19071  0.87208  0.45942  1.0000
  H   H1043     1.0  0.14890  0.83176  0.47271  1.0000
  H   H1044     1.0  0.05070  0.64224  0.45426  1.0000
  H   H1045     1.0  0.29261  0.75016  0.36434  1.0000
  H   H1046     1.0  0.16250  0.97220  0.40746  1.0000
  C   C603      1.0  0.13114  0.64488  0.32184  1.0000
  H   H1047     1.0  0.30003  0.79393  0.36136  1.0000
  H   H1048     1.0  0.18968  0.52183  0.34204  1.0000
  H   H1049     1.0  0.02981  0.58930  0.42856  1.0000
  H   H1050     1.0  0.09079  0.67804  0.44913  1.0000
  H   H1051     1.0  0.99152  0.58153  0.44397  1.0000
  H   H1052     1.0  0.28233  0.56916  0.29185  1.0000
  C   C604      1.0  0.23617  0.88835  0.46559  1.0000
  C   C605      1.0  0.28288  0.85190  0.34404  1.0000
  H   H1053     1.0  0.04252  0.51508  0.27327  1.0000
  H   H1054     1.0  0.16141  0.51281  0.36147  1.0000
  H   H1055     1.0  0.16898  0.70308  0.37401  1.0000
  H   H1056     1.0  0.17857  0.88536  0.43594  1.0000
  H   H1057     1.0  0.10453  0.81164  0.46549  1.0000
  C   C606      1.0  0.06396  0.98233  0.29194  1.0000
  H   H1058     1.0  0.22121  0.90700  0.45295  1.0000
  H   H1059     1.0  0.14628  0.49844  0.38344  1.0000
  H   H1060     1.0  0.99683  0.85210  0.34736  1.0000
  H   H1061     1.0  0.98946  0.62553  0.41959  1.0000
  H   H1062     1.0  0.12557  0.61718  0.33676  1.0000
  H   H1063     1.0  0.04587  0.96586  0.29326  1.0000
  H   H1064     1.0  0.14347  0.84765  0.44278  1.0000
  H   H1065     1.0  0.14148  0.66529  0.32090  1.0000
  C   C607      1.0  0.99578  0.91706  0.33345  1.0000
  H   H1066     1.0  0.27441  0.91249  0.36987  1.0000
  H   H1067     1.0  0.13206  0.64673  0.34478  1.0000
  H   H1068     1.0  0.04134  0.63100  0.42587  1.0000
  H   H1069     1.0  0.12784  0.97698  0.35313  1.0000
  C   C608      1.0  0.11747  0.80730  0.45951  1.0000
  C   C609      1.0  0.99489  0.64656  0.33594  1.0000
  H   H1070     1.0  0.00585  0.89113  0.34255  1.0000
  H   H1071     1.0  0.29293  0.96289  0.35606  1.0000
  H   H1072     1.0  0.98864  0.70501  0.37960  1.0000
  H   H1073     1.0  0.15052  0.58675  0.38966  1.0000
  C   C610      1.0  0.17298  0.89294  0.44524  1.0000
  H   H1074     1.0  0.04124  0.56360  0.44342  1.0000
  H   H1075     1.0  0.00265  0.85932  0.32005  1.0000
  H   H1076     1.0  0.18761  0.72620  0.36192  1.0000
  H   H1077     1.0  0.04768  0.66892  0.44960  1.0000
  H   H1078     1.0  0.15690  0.98534  0.33814  1.0000
  Fe  Fe79      1.0  0.05473  0.50125  0.35703  1.0000
  H   H1079     1.0  0.01102  0.67323  0.35334  1.0000
  H   H1080     1.0  0.29995  0.49962  0.39951  1.0000
  C   C611      1.0  0.99661  0.59521  0.41303  1.0000
  H   H1081     1.0  0.11833  0.50155  0.36207  1.0000
  H   H1082     1.0  0.26680  0.57603  0.27739  1.0000
  C   C612      1.0  0.29555  0.56716  0.27078  1.0000
  C   C613      1.0  0.29359  0.83461  0.34004  1.0000
  H   H1083     1.0  0.18850  0.85939  0.46806  1.0000
  H   H1084     1.0  0.28502  0.63342  0.25494  1.0000
  H   H1085     1.0  0.99024  0.52148  0.23917  1.0000
  H   H1086     1.0  0.18091  0.90958  0.47155  1.0000
  H   H1087     1.0  0.16381  0.68614  0.34901  1.0000
  H   H1088     1.0  0.13858  0.57410  0.37199  1.0000
  H   H1089     1.0  0.23530  0.97814  0.48365  1.0000
  C   C614      1.0  0.99701  0.84149  0.32518  1.0000
  C   C615      1.0  0.98880  0.51602  0.29269  1.0000
  H   H1090     1.0  0.12803  0.59359  0.38113  1.0000
  H   H1091     1.0  0.99809  0.66056  0.32788  1.0000
  C   C616      1.0  0.27509  0.56416  0.28064  1.0000
  H   H1092     1.0  0.98524  0.82587  0.31763  1.0000
  H   H1093     1.0  0.13576  0.63557  0.31299  1.0000
  H   H1094     1.0  0.04089  0.73153  0.36787  1.0000
  H   H1095     1.0  0.00841  0.55195  0.44291  1.0000
  H   H1096     1.0  0.01316  0.60298  0.45668  1.0000
  H   H1097     1.0  0.98815  0.52982  0.33859  1.0000
  C   C617      1.0  0.29875  0.75031  0.35334  1.0000
  H   H1098     1.0  0.15770  0.65795  0.36793  1.0000
  H   H1099     1.0  0.15142  0.95348  0.39115  1.0000
  H   H1100     1.0  0.23255  0.87793  0.47548  1.0000
  C   C618      1.0  0.30826  0.79523  0.35082  1.0000
  H   H1101     1.0  0.15594  0.97450  0.36837  1.0000
  C   C619      1.0  0.08391  0.97385  0.36160  1.0000
  C   C620      1.0  0.00329  0.71663  0.35906  1.0000
  H   H1102     1.0  0.26433  0.91843  0.35302  1.0000
  H   H1103     1.0  0.14684  0.86094  0.48557  1.0000
  H   H1104     1.0  0.14872  0.89182  0.46948  1.0000
  H   H1105     1.0  0.29726  0.87157  0.34382  1.0000
  H   H1106     1.0  0.02693  0.56948  0.45850  1.0000
  H   H1107     1.0  0.29249  0.78836  0.34293  1.0000
  H   H1108     1.0  0.01447  0.62145  0.37203  1.0000
  C   C621      1.0  0.16462  0.97210  0.39578  1.0000
  C   C622      1.0  0.17938  0.50247  0.34546  1.0000
  C   C623      1.0  0.14556  0.85240  0.45441  1.0000
  H   H1109     1.0  0.30593  0.83426  0.36151  1.0000
  H   H1110     1.0  0.27838  0.81533  0.33968  1.0000
  H   H1111     1.0  0.18365  0.97557  0.39379  1.0000
  Fe  Fe80      1.0  0.31749  0.63180  0.31262  1.0000
  H   H1112     1.0  0.03553  0.75213  0.35672  1.0000
  Fe  Fe81      1.0  0.31653  0.66298  0.28786  1.0000
  H   H1113     1.0  0.19223  0.86227  0.44963  1.0000
  H   H1114     1.0  0.11115  0.63908  0.32089  1.0000
  C   C624      1.0  0.25358  0.98018  0.48540  1.0000
  H   H1115     1.0  0.13494  0.87890  0.43636  1.0000
  H   H1116     1.0  0.11693  0.79026  0.46369  1.0000
  H   H1117     1.0  0.15604  0.82286  0.45588  1.0000
  H   H1118     1.0  0.10977  0.97124  0.37612  1.0000
  H   H1119     1.0  0.99069  0.72435  0.35640  1.0000
  H   H1120     1.0  0.99353  0.57711  0.41703  1.0000
  H   H1121     1.0  0.13836  0.61761  0.35994  1.0000
  H   H1122     1.0  0.17280  0.93270  0.43113  1.0000
  C   C625      1.0  0.16583  0.89010  0.47066  1.0000
  H   H1123     1.0  0.30655  0.73722  0.35243  1.0000
  C   C626      1.0  0.02628  0.56770  0.44670  1.0000
  H   H1124     1.0  0.27348  0.95238  0.37086  1.0000
  H   H1125     1.0  0.16328  0.90644  0.41863  1.0000
  S   S157      1.0  0.24108  0.96865  0.38404  1.0000
  C   C627      1.0  0.14363  0.82877  0.46125  1.0000
  H   H1126     1.0  0.28271  0.74375  0.34569  1.0000
  C   C628      1.0  0.02524  0.51062  0.25229  1.0000
  H   H1127     1.0  0.29521  0.92256  0.35535  1.0000
  H   H1128     1.0  0.29759  0.98846  0.39130  1.0000
  H   H1129     1.0  0.26776  0.84890  0.33630  1.0000
  H   H1130     1.0  0.07478  0.98668  0.30218  1.0000
  H   H1131     1.0  0.31662  0.73262  0.24991  1.0000
  C   C629      1.0  0.04811  0.51916  0.26212  1.0000
  C   C630      1.0  0.00963  0.59860  0.44501  1.0000
  C   C631      1.0  0.28032  0.92461  0.36067  1.0000
  H   H1132     1.0  0.01052  0.64225  0.33599  1.0000
  H   H1133     1.0  0.00981  0.93309  0.34002  1.0000
  C   C632      1.0  0.99070  0.60984  0.42464  1.0000
  H   H1134     1.0  0.30320  0.90608  0.38421  1.0000
  H   H1135     1.0  0.99843  0.64850  0.44292  1.0000
  H   H1136     1.0  0.19135  0.49900  0.35308  1.0000
  H   H1137     1.0  0.01576  0.60549  0.40969  1.0000
  C   C633      1.0  0.98890  0.89298  0.34101  1.0000
  C   C634      1.0  0.99187  0.69607  0.37000  1.0000
  H   H1138     1.0  0.29711  0.97160  0.46830  1.0000
  C   C635      1.0  0.15589  0.49892  0.35245  1.0000
  H   H1139     1.0  0.01015  0.63914  0.45755  1.0000
  C   C636      1.0  0.31428  0.83783  0.35093  1.0000
  H   H1140     1.0  0.98646  0.53207  0.29546  1.0000
  H   H1141     1.0  0.06923  0.96714  0.36945  1.0000
  C   C637      1.0  0.12758  0.49676  0.38377  1.0000
  C   C638      1.0  0.99319  0.65657  0.35070  1.0000
  H   H1142     1.0  0.98675  0.74438  0.38469  1.0000
  H   H1143     1.0  0.30931  0.60687  0.26919  1.0000
  C   C639      1.0  0.28829  0.97648  0.47671  1.0000
  C   C640      1.0  0.03233  0.51626  0.23658  1.0000
  C   C641      1.0  0.16445  0.87828  0.48513  1.0000
  C   C642      1.0  0.31698  0.59409  0.27179  1.0000
  H   H1144     1.0  0.30981  0.58450  0.35123  1.0000
  H   H1145     1.0  0.31398  0.56750  0.37457  1.0000
  H   H1146     1.0  0.31376  0.49838  0.35111  1.0000
  H   H1147     1.0  0.31726  0.60442  0.24545  1.0000
  H   H1148     1.0  0.04524  0.53647  0.23644  1.0000
  H   H1149     1.0  0.12251  0.79977  0.72593  1.0000
  C   C643      1.0  0.03005  0.93660  0.70136  1.0000
  H   H1150     1.0  0.09816  0.81423  0.71012  1.0000
  H   H1151     1.0  0.00205  0.92315  0.67655  1.0000
  Fe  Fe82      1.0  0.07538  0.84507  0.61819  1.0000
  S   S158      1.0  0.07004  0.85094  0.64135  1.0000
  S   S159      1.0  0.04570  0.82308  0.60061  1.0000
  Fe  Fe83      1.0  0.13097  0.88241  0.62064  1.0000
  S   S160      1.0  0.12969  0.89037  0.64415  1.0000
  S   S161      1.0  0.16480  0.89432  0.60680  1.0000
  Fe  Fe84      1.0  0.10555  0.84929  0.64586  1.0000
  S   S162      1.0  0.10426  0.82420  0.66396  1.0000
  Fe  Fe85      1.0  0.09430  0.89152  0.63835  1.0000
  S   S163      1.0  0.08902  0.92303  0.64867  1.0000
  S   S164      1.0  0.10925  0.84098  0.62282  1.0000
  S   S165      1.0  0.09730  0.88619  0.61487  1.0000
  Fe  Fe86      1.0  0.03192  0.51727  0.71962  1.0000
  H   H1152     1.0  0.29187  0.78997  0.70892  1.0000
  S   S166      1.0  0.07326  0.53932  0.71963  1.0000
  Fe  Fe87      1.0  0.18616  0.79484  0.72355  1.0000
  S   S167      1.0  0.20930  0.77520  0.72183  1.0000
  S   S168      1.0  0.18570  0.81878  0.70530  1.0000
  C   C644      1.0  0.04754  0.58725  0.67517  1.0000
  H   H1153     1.0  0.08520  0.63355  0.68474  1.0000
  H   H1154     1.0  0.98737  0.75125  0.57032  1.0000
  C   C645      1.0  0.30172  0.83289  0.72841  1.0000
  H   H1155     1.0  0.17120  0.85610  0.55427  1.0000
  C   C646      1.0  0.99482  0.55952  0.62467  1.0000
  C   C647      1.0  0.12732  0.82297  0.67524  1.0000
  C   C648      1.0  0.12026  0.80392  0.68495  1.0000
  C   C649      1.0  0.13775  0.80228  0.69425  1.0000
  C   C650      1.0  0.16261  0.81976  0.69395  1.0000
  C   C651      1.0  0.16962  0.83893  0.68434  1.0000
  C   C652      1.0  0.15214  0.84055  0.67504  1.0000
  H   H1156     1.0  0.10112  0.79022  0.68520  1.0000
  H   H1157     1.0  0.13205  0.78733  0.70148  1.0000
  H   H1158     1.0  0.18877  0.85257  0.68401  1.0000
  H   H1159     1.0  0.15787  0.85536  0.66770  1.0000
  H   H1160     1.0  0.08088  0.83672  0.69717  1.0000
  C   C653      1.0  0.01993  0.93402  0.64750  1.0000
  C   C654      1.0  0.04182  0.95154  0.65441  1.0000
  C   C655      1.0  0.06281  0.94797  0.65454  1.0000
  C   C656      1.0  0.06220  0.92686  0.64777  1.0000
  C   C657      1.0  0.04035  0.90943  0.64074  1.0000
  C   C658      1.0  0.01933  0.91301  0.64063  1.0000
  H   H1161     1.0  0.04267  0.96804  0.65943  1.0000
  H   H1162     1.0  0.07969  0.96164  0.65991  1.0000
  H   H1163     1.0  0.03964  0.89317  0.63541  1.0000
  H   H1164     1.0  0.00257  0.89947  0.63510  1.0000
  H   H1165     1.0  0.05821  0.95360  0.68532  1.0000
  H   H1166     1.0  0.02962  0.87073  0.69435  1.0000
  C   C659      1.0  0.04545  0.97993  0.61038  1.0000
  H   H1167     1.0  0.26268  0.68095  0.71346  1.0000
  C   C660      1.0  0.27712  0.68926  0.72215  1.0000
  H   H1168     1.0  0.26014  0.77737  0.72682  1.0000
  C   C661      1.0  0.21538  0.96739  0.58532  1.0000
  C   C662      1.0  0.19638  0.96600  0.59390  1.0000
  C   C663      1.0  0.18062  0.94385  0.60044  1.0000
  C   C664      1.0  0.18356  0.92263  0.59844  1.0000
  C   C665      1.0  0.20243  0.92395  0.58977  1.0000
  C   C666      1.0  0.21824  0.94613  0.58326  1.0000
  C   C667      1.0  0.26163  0.76215  0.72086  1.0000
  H   H1169     1.0  0.16623  0.94322  0.60705  1.0000
  H   H1170     1.0  0.20488  0.90768  0.58809  1.0000
  H   H1171     1.0  0.23248  0.94672  0.57655  1.0000
  N   N34       1.0  0.13358  0.83641  0.73516  1.0000
  C   C668      1.0  0.27749  0.96619  0.60615  1.0000
  C   C669      1.0  0.30365  0.95914  0.58802  1.0000
  H   H1172     1.0  0.01236  0.73365  0.60916  1.0000
  H   H1173     1.0  0.18003  0.87432  0.48710  1.0000
  H   H1174     1.0  0.21893  0.89291  0.73345  1.0000
  C   C670      1.0  0.01312  0.78258  0.58379  1.0000
  C   C671      1.0  0.02755  0.79060  0.59659  1.0000
  C   C672      1.0  0.02715  0.77273  0.60568  1.0000
  C   C673      1.0  0.01256  0.74725  0.60200  1.0000
  C   C674      1.0  0.00966  0.52053  0.63364  1.0000
  H   H1175     1.0  0.04265  0.94658  0.59978  1.0000
  H   H1176     1.0  0.03792  0.77852  0.61560  1.0000
  C   C675      1.0  0.21484  0.93086  0.63371  1.0000
  N   N35       1.0  0.10701  0.81694  0.57683  1.0000
  C   C676      1.0  0.08332  0.80171  0.56824  1.0000
  C   C677      1.0  0.10687  0.84012  0.58269  1.0000
  C   C678      1.0  0.12833  0.82327  0.56736  1.0000
  C   C679      1.0  0.10957  0.80283  0.58912  1.0000
  C   C680      1.0  0.08643  0.78924  0.59799  1.0000
  C   C681      1.0  0.07948  0.77627  0.56205  1.0000
  C   C682      1.0  0.15409  0.84125  0.57420  1.0000
  C   C683      1.0  0.10802  0.85888  0.57155  1.0000
  C   C684      1.0  0.10731  0.88128  0.57864  1.0000
  C   C685      1.0  0.09156  0.77676  0.61052  1.0000
  C   C686      1.0  0.05300  0.76037  0.55632  1.0000
  C   C687      1.0  0.17423  0.84697  0.56359  1.0000
  H   H1177     1.0  0.08208  0.81186  0.55892  1.0000
  H   H1178     1.0  0.06721  0.79885  0.57459  1.0000
  H   H1179     1.0  0.09005  0.83518  0.58868  1.0000
  H   H1180     1.0  0.12221  0.85021  0.59074  1.0000
  H   H1181     1.0  0.12565  0.83115  0.55735  1.0000
  H   H1182     1.0  0.12912  0.80613  0.56385  1.0000
  H   H1183     1.0  0.11519  0.78885  0.58541  1.0000
  H   H1184     1.0  0.12471  0.81560  0.59669  1.0000
  H   H1185     1.0  0.07089  0.77452  0.59152  1.0000
  H   H1186     1.0  0.08030  0.80240  0.60221  1.0000
  H   H1187     1.0  0.09184  0.77908  0.55312  1.0000
  H   H1188     1.0  0.08335  0.76552  0.57007  1.0000
  H   H1189     1.0  0.15836  0.83296  0.58350  1.0000
  H   H1190     1.0  0.15524  0.85920  0.57784  1.0000
  H   H1191     1.0  0.12522  0.86598  0.56567  1.0000
  H   H1192     1.0  0.09217  0.85033  0.56378  1.0000
  H   H1193     1.0  0.08962  0.87537  0.58393  1.0000
  H   H1194     1.0  0.12290  0.89083  0.58657  1.0000
  H   H1195     1.0  0.10884  0.89467  0.57050  1.0000
  H   H1196     1.0  0.10674  0.79058  0.61764  1.0000
  H   H1197     1.0  0.07482  0.76768  0.61681  1.0000
  H   H1198     1.0  0.09649  0.76238  0.60667  1.0000
  H   H1199     1.0  0.04811  0.77012  0.54807  1.0000
  H   H1200     1.0  0.05086  0.74263  0.55150  1.0000
  H   H1201     1.0  0.04002  0.75596  0.56509  1.0000
  H   H1202     1.0  0.19239  0.85979  0.56878  1.0000
  C   C688      1.0  0.99799  0.73919  0.58926  1.0000
  H   H1203     1.0  0.25461  0.79379  0.70259  1.0000
  H   H1204     1.0  0.01392  0.51383  0.65598  1.0000
  Fe  Fe88      1.0  0.18008  0.74498  0.73438  1.0000
  C   C689      1.0  0.27432  0.77272  0.70678  1.0000
  S   S169      1.0  0.99346  0.93846  0.64641  1.0000
  H   H1205     1.0  0.20623  0.91032  0.63382  1.0000
  C   C690      1.0  0.05891  0.98248  0.69906  1.0000
  H   H1206     1.0  0.08570  0.66132  0.71246  1.0000
  H   H1207     1.0  0.07243  0.98209  0.70693  1.0000
  C   C691      1.0  0.29714  0.97102  0.63710  1.0000
  C   C692      1.0  0.14640  0.67464  0.73380  1.0000
  C   C693      1.0  0.12884  0.84596  0.72137  1.0000
  H   H1208     1.0  0.02555  0.94114  0.61568  1.0000
  H   H1209     1.0  0.09546  0.60293  0.68276  1.0000
  H   H1210     1.0  0.06285  0.64121  0.69095  1.0000
  H   H1211     1.0  0.16347  0.83056  0.72769  1.0000
  C   C694      1.0  0.99450  0.91067  0.68551  1.0000
  H   H1212     1.0  0.02557  0.60760  0.61683  1.0000
  H   H1213     1.0  0.26239  0.96019  0.59785  1.0000
  H   H1214     1.0  0.03207  0.95906  0.68321  1.0000
  C   C695      1.0  0.11824  0.80858  0.73525  1.0000
  H   H1215     1.0  0.04346  0.93674  0.70958  1.0000
  H   H1216     1.0  0.10114  0.86548  0.70673  1.0000
  H   H1217     1.0  0.03406  0.97743  0.63210  1.0000
  H   H1218     1.0  0.16364  0.88654  0.50764  1.0000
  C   C696      1.0  0.03182  0.90468  0.68578  1.0000
  C   C697      1.0  0.98790  0.89766  0.71678  1.0000
  H   H1219     1.0  0.06548  0.62291  0.72217  1.0000
  H   H1220     1.0  0.17699  0.87556  0.72312  1.0000
  H   H1221     1.0  0.14034  0.84420  0.71286  1.0000
  H   H1222     1.0  0.01320  0.79620  0.57669  1.0000
  H   H1223     1.0  0.24242  0.74811  0.71775  1.0000
  H   H1224     1.0  0.02489  0.53979  0.63434  1.0000
  C   C698      1.0  0.26600  0.98945  0.49881  1.0000
  H   H1225     1.0  0.99417  0.87912  0.73468  1.0000
  H   H1226     1.0  0.22148  0.50737  0.73163  1.0000
  H   H1227     1.0  0.10466  0.68481  0.69078  1.0000
  H   H1228     1.0  0.05736  0.57606  0.67608  1.0000
  N   N36       1.0  0.06164  0.60879  0.70037  1.0000
  C   C699      1.0  0.17942  0.86961  0.73380  1.0000
  C   C700      1.0  0.14607  0.65278  0.72827  1.0000
  C   C701      1.0  0.30203  0.97796  0.59839  1.0000
  C   C702      1.0  0.07752  0.59657  0.70360  1.0000
  C   C703      1.0  0.10004  0.60324  0.69421  1.0000
  C   C704      1.0  0.09505  0.65435  0.70502  1.0000
  C   C705      1.0  0.04174  0.87334  0.67305  1.0000
  H   H1229     1.0  0.27557  0.94878  0.61052  1.0000
  N   N37       1.0  0.27437  0.98250  0.61739  1.0000
  C   C706      1.0  0.11064  0.58532  0.69602  1.0000
  C   C707      1.0  0.29973  0.77082  0.73379  1.0000
  S   S170      1.0  0.15571  0.76339  0.73450  1.0000
  H   H1230     1.0  0.02787  0.60073  0.68870  1.0000
  H   H1231     1.0  0.03001  0.56833  0.65506  1.0000
  H   H1232     1.0  0.02953  0.57396  0.69432  1.0000
  H   H1233     1.0  0.31018  0.77735  0.72399  1.0000
  H   H1234     1.0  0.19383  0.98222  0.59552  1.0000
  H   H1235     1.0  0.18284  0.91314  0.49777  1.0000
  H   H1236     1.0  0.08509  0.60100  0.71477  1.0000
  H   H1237     1.0  0.06602  0.57602  0.70305  1.0000
  H   H1238     1.0  0.11488  0.62214  0.69728  1.0000
  H   H1239     1.0  0.04050  0.62276  0.71212  1.0000
  C   C708      1.0  0.10228  0.83282  0.71467  1.0000
  H   H1240     1.0  0.10498  0.64678  0.71150  1.0000
  C   C709      1.0  0.16518  0.89561  0.49739  1.0000
  H   H1241     1.0  0.20113  0.93582  0.62897  1.0000
  S   S171      1.0  0.00777  0.52115  0.70180  1.0000
  C   C710      1.0  0.05064  0.61197  0.71397  1.0000
  H   H1242     1.0  0.05103  0.91428  0.69041  1.0000
  H   H1243     1.0  0.09698  0.56628  0.69223  1.0000
  H   H1244     1.0  0.12729  0.59124  0.68968  1.0000
  H   H1245     1.0  0.11595  0.58507  0.70734  1.0000
  H   H1246     1.0  0.03293  0.91190  0.67494  1.0000
  C   C711      1.0  0.04061  0.59261  0.69007  1.0000
  H   H1247     1.0  0.24038  0.76288  0.69429  1.0000
  C   C712      1.0  0.09931  0.84750  0.70257  1.0000
  C   C713      1.0  0.02579  0.87703  0.68408  1.0000
  C   C714      1.0  0.12843  0.62906  0.73238  1.0000
  H   H1248     1.0  0.17461  0.82972  0.55993  1.0000
  C   C715      1.0  0.07577  0.63419  0.69449  1.0000
  H   H1249     1.0  0.11338  0.85107  0.69454  1.0000
  H   H1250     1.0  0.21955  0.93854  0.64484  1.0000
  H   H1251     1.0  0.08828  0.83021  0.72249  1.0000
  H   H1252     1.0  0.01806  0.94273  0.70698  1.0000
  H   H1253     1.0  0.28940  0.73533  0.71533  1.0000
  H   H1254     1.0  0.03351  0.50819  0.64415  1.0000
  H   H1255     1.0  0.01018  0.51179  0.62325  1.0000
  C   C716      1.0  0.23789  0.94070  0.62498  1.0000
  H   H1256     1.0  0.23245  0.93095  0.61434  1.0000
  N   N38       1.0  0.01502  0.91079  0.69469  1.0000
  H   H1257     1.0  0.03708  0.87726  0.66229  1.0000
  H   H1258     1.0  0.00407  0.60890  0.62922  1.0000
  H   H1259     1.0  0.99514  0.87377  0.70274  1.0000
  H   H1260     1.0  0.23527  0.97100  0.61621  1.0000
  H   H1261     1.0  0.29851  0.95727  0.62976  1.0000
  H   H1262     1.0  0.14966  0.89998  0.49618  1.0000
  H   H1263     1.0  0.13470  0.86616  0.72264  1.0000
  C   C717      1.0  0.20568  0.87325  0.73511  1.0000
  C   C718      1.0  0.25821  0.77949  0.69717  1.0000
  C   C719      1.0  0.00532  0.89336  0.70673  1.0000
  C   C720      1.0  0.24901  0.96911  0.62333  1.0000
  N   N39       1.0  0.27372  0.75094  0.73026  1.0000
  C   C721      1.0  0.98954  0.50023  0.68749  1.0000
  H   H1264     1.0  0.28137  0.96147  0.64403  1.0000
  H   H1265     1.0  0.01778  0.67745  0.49237  1.0000
  H   H1266     1.0  0.05908  0.60456  0.66975  1.0000
  C   C722      1.0  0.98871  0.57599  0.61488  1.0000
  H   H1267     1.0  0.26775  0.78713  0.68723  1.0000
  H   H1268     1.0  0.12667  0.69088  0.70528  1.0000
  H   H1269     1.0  0.99542  0.52868  0.60579  1.0000
  H   H1270     1.0  0.06160  0.88569  0.67562  1.0000
  H   H1271     1.0  0.12495  0.67084  0.69045  1.0000
  H   H1272     1.0  0.02102  0.89443  0.71340  1.0000
  H   H1273     1.0  0.27813  0.75909  0.70079  1.0000
  C   C723      1.0  0.11391  0.67652  0.69733  1.0000
  H   H1274     1.0  0.28805  0.95186  0.58002  1.0000
  H   H1275     1.0  0.25091  0.93538  0.63013  1.0000
  H   H1276     1.0  0.05868  0.95402  0.61694  1.0000
  H   H1277     1.0  0.04607  0.98752  0.70464  1.0000
  C   C724      1.0  0.00617  0.60347  0.61818  1.0000
  H   H1278     1.0  0.99778  0.56745  0.63576  1.0000
  C   C725      1.0  0.99843  0.75707  0.58014  1.0000
  H   H1279     1.0  0.03841  0.85383  0.67280  1.0000
  H   H1280     1.0  0.30352  0.94350  0.59379  1.0000
  C   C726      1.0  0.04299  0.95387  0.61077  1.0000
  Fe  Fe89      1.0  0.07419  0.50793  0.73157  1.0000
  H   H1281     1.0  0.99747  0.91606  0.72249  1.0000
  H   H1282     1.0  0.28587  0.82607  0.72112  1.0000
  H   H1283     1.0  0.01320  0.56227  0.62159  1.0000
  C   C727      1.0  0.04471  0.95734  0.69106  1.0000
  Fe  Fe90      1.0  0.98523  0.96389  0.66096  1.0000
  H   H1284     1.0  0.15963  0.65420  0.72076  1.0000
  H   H1285     1.0  0.12880  0.61262  0.72817  1.0000
  S   S172      1.0  0.16897  0.70408  0.72793  1.0000
  H   H1286     1.0  0.00178  0.61481  0.61076  1.0000
  C   C728      1.0  0.98591  0.67765  0.50137  1.0000
  H   H1287     1.0  0.20855  0.86149  0.72694  1.0000
  H   H1288     1.0  0.09836  0.80280  0.73386  1.0000
  H   H1289     1.0  0.24863  0.97786  0.63380  1.0000
  H   H1290     1.0  0.29551  0.69837  0.71747  1.0000
  C   C729      1.0  0.01485  0.50641  0.64522  1.0000
  H   H1291     1.0  0.99112  0.57203  0.60363  1.0000
  C   C730      1.0  0.00260  0.68137  0.49047  1.0000
  H   H1292     1.0  0.98579  0.52903  0.64621  1.0000
  H   H1293     1.0  0.01553  0.57733  0.71463  1.0000
  S   S173      1.0  0.99093  0.96847  0.71372  1.0000
  C   C731      1.0  0.16029  0.84215  0.73586  1.0000
  C   C732      1.0  0.03291  0.58783  0.72109  1.0000
  H   H1294     1.0  0.01373  0.58215  0.66418  1.0000
  H   H1295     1.0  0.01277  0.55389  0.67034  1.0000
  C   C733      1.0  0.02452  0.57199  0.66563  1.0000
  C   C734      1.0  0.27338  0.72895  0.72230  1.0000
  H   H1296     1.0  0.25687  0.71979  0.71489  1.0000
  H   H1297     1.0  0.04171  0.57582  0.72256  1.0000
  H   H1298     1.0  0.22708  0.71215  0.73353  1.0000
  C   C735      1.0  0.30077  0.98592  0.49007  1.0000
  H   H1299     1.0  0.02890  0.97825  0.60453  1.0000
  H   H1300     1.0  0.98841  0.67099  0.51148  1.0000
  H   H1301     1.0  0.00632  0.86481  0.68077  1.0000
  S   S174      1.0  0.10234  0.49493  0.72477  1.0000
  H   H1302     1.0  0.27618  0.67413  0.72879  1.0000
  C   C736      1.0  0.27305  0.70792  0.73134  1.0000
  H   H1303     1.0  0.18935  0.49147  0.73471  1.0000
  H   H1304     1.0  0.98438  0.91865  0.69159  1.0000
  H   H1305     1.0  0.01574  0.60459  0.73443  1.0000
  C   C737      1.0  0.02583  0.59369  0.73561  1.0000
  C   C738      1.0  0.98448  0.52012  0.63555  1.0000
  H   H1306     1.0  0.98453  0.88022  0.66972  1.0000
  H   H1307     1.0  0.26430  0.92852  0.86277  1.0000
  H   H1308     1.0  0.13949  0.86984  0.74695  1.0000
  C   C739      1.0  0.27184  0.96193  0.98291  1.0000
  C   C740      1.0  0.11103  0.64858  0.74763  1.0000
  Fe  Fe91      1.0  0.08651  0.87588  0.84967  1.0000
  S   S175      1.0  0.09258  0.85886  0.86942  1.0000
  S   S176      1.0  0.07321  0.90488  0.85292  1.0000
  Fe  Fe92      1.0  0.11221  0.85382  0.83090  1.0000
  S   S177      1.0  0.12002  0.83584  0.84933  1.0000
  S   S178      1.0  0.12791  0.85671  0.80877  1.0000
  Fe  Fe93      1.0  0.08105  0.82436  0.85552  1.0000
  S   S179      1.0  0.06171  0.78444  0.86304  1.0000
  Fe  Fe94      1.0  0.13089  0.87145  0.86195  1.0000
  S   S180      1.0  0.16422  0.88608  0.87760  1.0000
  S   S181      1.0  0.07238  0.84041  0.83605  1.0000
  S   S182      1.0  0.12566  0.89040  0.84323  1.0000
  C   C741      1.0  0.13581  0.58977  0.81260  1.0000
  H   H1309     1.0  0.06066  0.73669  0.90914  1.0000
  H   H1310     1.0  0.14578  0.79086  0.83594  1.0000
  H   H1311     1.0  0.17700  0.90361  0.80684  1.0000
  H   H1312     1.0  0.03011  0.75992  0.95637  1.0000
  H   H1313     1.0  0.07252  0.78479  0.96674  1.0000
  S   S183      1.0  0.07483  0.52584  0.75300  1.0000
  Fe  Fe95      1.0  0.17687  0.78333  0.75492  1.0000
  S   S184      1.0  0.19981  0.76344  0.75521  1.0000
  S   S185      1.0  0.15739  0.78244  0.77551  1.0000
  C   C742      1.0  0.18874  0.85217  0.84542  1.0000
  H   H1314     1.0  0.21615  0.97320  0.86558  1.0000
  H   H1315     1.0  0.18281  0.82623  0.82732  1.0000
  H   H1316     1.0  0.15765  0.83328  0.82982  1.0000
  H   H1317     1.0  0.06716  0.53176  0.82095  1.0000
  C   C743      1.0  0.04950  0.55928  0.79518  1.0000
  H   H1318     1.0  0.24174  0.91825  0.87635  1.0000
  H   H1319     1.0  0.04282  0.76949  0.90294  1.0000
  H   H1320     1.0  0.23680  0.89422  0.82759  1.0000
  H   H1321     1.0  0.22507  0.87477  0.86677  1.0000
  C   C744      1.0  0.05736  0.57240  0.78092  1.0000
  C   C745      1.0  0.98739  0.96607  0.74270  1.0000
  H   H1322     1.0  0.05978  0.55611  0.82338  1.0000
  H   H1323     1.0  0.14239  0.59899  0.80242  1.0000
  Fe  Fe96      1.0  0.07129  0.55566  0.74092  1.0000
  H   H1324     1.0  0.20857  0.88488  0.80738  1.0000
  C   C746      1.0  0.13683  0.83618  0.80004  1.0000
  C   C747      1.0  0.15155  0.84415  0.78812  1.0000
  C   C748      1.0  0.15847  0.82821  0.78063  1.0000
  C   C749      1.0  0.15042  0.80394  0.78486  1.0000
  C   C750      1.0  0.13603  0.79615  0.79689  1.0000
  C   C751      1.0  0.12928  0.81213  0.80445  1.0000
  H   H1325     1.0  0.15762  0.86278  0.78468  1.0000
  H   H1326     1.0  0.16994  0.83461  0.77159  1.0000
  H   H1327     1.0  0.12977  0.77746  0.80029  1.0000
  H   H1328     1.0  0.11786  0.80567  0.81353  1.0000
  C   C752      1.0  0.01918  0.92038  0.82538  1.0000
  C   C753      1.0  0.02346  0.90026  0.82176  1.0000
  C   C754      1.0  0.04008  0.89538  0.82995  1.0000
  C   C755      1.0  0.05255  0.91052  0.84195  1.0000
  C   C756      1.0  0.04835  0.93070  0.84556  1.0000
  C   C757      1.0  0.03183  0.93567  0.83732  1.0000
  H   H1329     1.0  0.01379  0.88829  0.81256  1.0000
  H   H1330     1.0  0.04306  0.87977  0.82704  1.0000
  H   H1331     1.0  0.05785  0.94252  0.85483  1.0000
  H   H1332     1.0  0.02873  0.95118  0.84026  1.0000
  H   H1333     1.0  0.17087  0.88285  0.84065  1.0000
  H   H1334     1.0  0.99403  0.51651  0.77584  1.0000
  H   H1335     1.0  0.11822  0.80472  0.75855  1.0000
  H   H1336     1.0  0.21419  0.91728  0.82291  1.0000
  H   H1337     1.0  0.24697  0.49213  0.74242  1.0000
  H   H1338     1.0  0.24689  0.88495  0.85282  1.0000
  H   H1339     1.0  0.04394  0.58805  0.76478  1.0000
  C   C758      1.0  0.05665  0.54028  0.81596  1.0000
  C   C759      1.0  0.22716  0.96582  0.88603  1.0000
  C   C760      1.0  0.22239  0.94762  0.89592  1.0000
  C   C761      1.0  0.20301  0.92336  0.89319  1.0000
  C   C762      1.0  0.18804  0.91704  0.88065  1.0000
  C   C763      1.0  0.19296  0.93515  0.87070  1.0000
  C   C764      1.0  0.21241  0.95935  0.87338  1.0000
  H   H1340     1.0  0.23357  0.95225  0.90568  1.0000
  H   H1341     1.0  0.19953  0.90942  0.90090  1.0000
  H   H1342     1.0  0.18200  0.93038  0.86086  1.0000
  C   C765      1.0  0.22047  0.71517  0.75569  1.0000
  H   H1343     1.0  0.15555  0.95330  0.83733  1.0000
  C   C766      1.0  0.20359  0.54126  0.76873  1.0000
  C   C767      1.0  0.01855  0.77684  0.87603  1.0000
  C   C768      1.0  0.03420  0.76710  0.87218  1.0000
  C   C769      1.0  0.02814  0.74280  0.87590  1.0000
  C   C770      1.0  0.00673  0.72837  0.88331  1.0000
  H   H1344     1.0  0.99717  0.73992  0.94320  1.0000
  H   H1345     1.0  0.02289  0.79544  0.87322  1.0000
  H   H1346     1.0  0.04008  0.73506  0.87296  1.0000
  H   H1347     1.0  0.00227  0.70967  0.88596  1.0000
  H   H1348     1.0  0.02065  0.55950  0.77120  1.0000
  H   H1349     1.0  0.19917  0.92461  0.83692  1.0000
  N   N40       1.0  0.20268  0.87694  0.83877  1.0000
  C   C771      1.0  0.99324  0.74629  0.93308  1.0000
  C   C772      1.0  0.23545  0.89013  0.85966  1.0000
  H   H1350     1.0  0.08384  0.76590  0.74864  1.0000
  H   H1351     1.0  0.08006  0.76082  0.96072  1.0000
  S   S186      1.0  0.20564  0.81592  0.74406  1.0000
  H   H1352     1.0  0.08153  0.84975  0.76689  1.0000
  C   C773      1.0  0.99105  0.73810  0.88711  1.0000
  H   H1353     1.0  0.15109  0.90983  0.90306  1.0000
  C   C774      1.0  0.10080  0.85371  0.76528  1.0000
  C   C775      1.0  0.03014  0.73530  0.92152  1.0000
  H   H1354     1.0  0.06471  0.93710  0.89135  1.0000
  H   H1355     1.0  0.17786  0.88217  0.74196  1.0000
  H   H1356     1.0  0.09255  0.81586  0.90058  1.0000
  H   H1357     1.0  0.07618  0.96997  0.88926  1.0000
  H   H1358     1.0  0.28053  0.93890  0.94923  1.0000
  C   C776      1.0  0.09154  0.57119  0.80331  1.0000
  H   H1359     1.0  0.02708  0.69350  0.90680  1.0000
  H   H1360     1.0  0.20957  0.86851  0.74585  1.0000
  H   H1361     1.0  0.04251  0.60442  0.74262  1.0000
  H   H1362     1.0  0.11533  0.55357  0.80274  1.0000
  H   H1363     1.0  0.10650  0.76007  0.75781  1.0000
  H   H1364     1.0  0.22707  0.84608  0.80696  1.0000
  H   H1365     1.0  0.22445  0.72966  0.76422  1.0000
  S   S187      1.0  0.08785  0.59727  0.74782  1.0000
  H   H1366     1.0  0.03059  0.54384  0.79308  1.0000
  C   C777      1.0  0.99711  0.76239  0.88340  1.0000
  H   H1367     1.0  0.03638  0.98701  0.77068  1.0000
  C   C778      1.0  0.14364  0.94587  0.89018  1.0000
  C   C779      1.0  0.05503  0.77106  0.93869  1.0000
  H   H1368     1.0  0.15740  0.95088  0.86387  1.0000
  H   H1369     1.0  0.09756  0.64720  0.75519  1.0000
  H   H1370     1.0  0.22357  0.51107  0.77031  1.0000
  H   H1371     1.0  0.18813  0.93499  0.81376  1.0000
  H   H1372     1.0  0.16134  0.91030  0.82095  1.0000
  H   H1373     1.0  0.02778  0.52127  0.83937  1.0000
  H   H1374     1.0  0.11274  0.87411  0.76615  1.0000
  H   H1375     1.0  0.22783  0.70261  0.75911  1.0000
  H   H1376     1.0  0.24522  0.87853  0.80319  1.0000
  S   S188      1.0  0.99759  0.92521  0.81475  1.0000
  H   H1377     1.0  0.20495  0.89817  0.85806  1.0000
  H   H1378     1.0  0.01014  0.76948  0.91601  1.0000
  H   H1379     1.0  0.10632  0.55721  0.82047  1.0000
  H   H1380     1.0  0.21880  0.85845  0.79189  1.0000
  C   C780      1.0  0.98708  0.50238  0.78360  1.0000
  C   C781      1.0  0.18458  0.88465  0.83263  1.0000
  H   H1381     1.0  0.10671  0.91274  0.88934  1.0000
  H   H1382     1.0  0.11969  0.96713  0.85246  1.0000
  H   H1383     1.0  0.17735  0.85366  0.85407  1.0000
  H   H1384     1.0  0.12013  0.88494  0.90098  1.0000
  H   H1385     1.0  0.14795  0.80852  0.85204  1.0000
  S   S189      1.0  0.02977  0.53471  0.74066  1.0000
  H   H1386     1.0  0.17215  0.80081  0.84803  1.0000
  H   H1387     1.0  0.20166  0.84651  0.85052  1.0000
  H   H1388     1.0  0.29938  0.78725  0.73890  1.0000
  C   C782      1.0  0.10410  0.95958  0.89606  1.0000
  H   H1389     1.0  0.20019  0.70413  0.75404  1.0000
  H   H1390     1.0  0.01650  0.72156  0.98029  1.0000
  Fe  Fe97      1.0  0.98712  0.95647  0.81599  1.0000
  H   H1391     1.0  0.22874  0.91433  0.84623  1.0000
  H   H1392     1.0  0.19105  0.85310  0.81117  1.0000
  C   C783      1.0  0.19613  0.91170  0.82764  1.0000
  C   C784      1.0  0.20971  0.86906  0.81217  1.0000
  C   C785      1.0  0.21749  0.89579  0.85058  1.0000
  C   C786      1.0  0.06495  0.76466  0.96403  1.0000
  C   C787      1.0  0.12868  0.67230  0.74354  1.0000
  C   C788      1.0  0.07779  0.95592  0.89581  1.0000
  H   H1393     1.0  0.28462  0.92450  0.93328  1.0000
  C   C789      1.0  0.11167  0.95649  0.88085  1.0000
  C   C790      1.0  0.22633  0.86270  0.80306  1.0000
  H   H1394     1.0  0.01774  0.72958  0.91181  1.0000
  C   C791      1.0  0.19659  0.51796  0.75929  1.0000
  H   H1395     1.0  0.02332  0.50738  0.80729  1.0000
  N   N41       1.0  0.03859  0.76232  0.92536  1.0000
  C   C792      1.0  0.05334  0.77723  0.91324  1.0000
  H   H1396     1.0  0.02194  0.78455  0.93300  1.0000
  H   H1397     1.0  0.03024  0.69017  0.92571  1.0000
  H   H1398     1.0  0.27248  0.97217  0.96099  1.0000
  H   H1399     1.0  0.14442  0.95340  0.90119  1.0000
  H   H1400     1.0  0.17338  0.87195  0.82367  1.0000
  C   C793      1.0  0.13142  0.90539  0.90227  1.0000
  H   H1401     1.0  0.26248  0.94224  0.98023  1.0000
  H   H1402     1.0  0.12658  0.91185  0.91226  1.0000
  H   H1403     1.0  0.08176  0.83853  0.90238  1.0000
  H   H1404     1.0  0.12529  0.93204  0.86258  1.0000
  N   N42       1.0  0.13760  0.96037  0.87951  1.0000
  H   H1405     1.0  0.30701  0.75568  0.75339  1.0000
  C   C794      1.0  0.04486  0.75632  0.95221  1.0000
  H   H1406     1.0  0.05303  0.49589  0.80351  1.0000
  H   H1407     1.0  0.07066  0.77592  0.91235  1.0000
  C   C795      1.0  0.25257  0.91262  0.86924  1.0000
  C   C796      1.0  0.21993  0.87597  0.82788  1.0000
  H   H1408     1.0  0.13810  0.96697  0.82934  1.0000
  C   C797      1.0  0.11065  0.62673  0.74207  1.0000
  H   H1409     1.0  0.09577  0.85161  0.74263  1.0000
  H   H1410     1.0  0.17978  0.50281  0.76352  1.0000
  C   C798      1.0  0.21795  0.51120  0.75905  1.0000
  C   C799      1.0  0.12642  0.91751  0.88950  1.0000
  H   H1411     1.0  0.31455  0.97933  0.95786  1.0000
  H   H1412     1.0  0.07956  0.53832  0.78325  1.0000
  H   H1413     1.0  0.07394  0.59072  0.78262  1.0000
  C   C800      1.0  0.02256  0.50784  0.83013  1.0000
  C   C801      1.0  0.15867  0.80616  0.84338  1.0000
  C   C802      1.0  0.05070  0.72803  0.91878  1.0000
  N   N43       1.0  0.06595  0.54958  0.80150  1.0000
  H   H1414     1.0  0.12975  0.90911  0.87974  1.0000
  H   H1415     1.0  0.13349  0.60274  0.82016  1.0000
  H   H1416     1.0  0.06141  0.56105  0.77307  1.0000
  H   H1417     1.0  0.31703  0.83661  0.76357  1.0000
  C   C803      1.0  0.11161  0.56584  0.81007  1.0000
  C   C804      1.0  0.25987  0.74411  0.74382  1.0000
  H   H1418     1.0  0.00476  0.54391  0.85992  1.0000
  H   H1419     1.0  0.15006  0.58545  0.81719  1.0000
  C   C805      1.0  0.98624  0.68517  0.97548  1.0000
  C   C806      1.0  0.17185  0.82993  0.83528  1.0000
  C   C807      1.0  0.17958  0.91529  0.81664  1.0000
  H   H1420     1.0  0.98437  0.64403  0.86576  1.0000
  H   H1421     1.0  0.22267  0.73821  0.73849  1.0000
  H   H1422     1.0  0.12221  0.93654  0.83619  1.0000
  H   H1423     1.0  0.22678  0.86283  0.83111  1.0000
  C   C808      1.0  0.29102  0.94242  0.93938  1.0000
  H   H1424     1.0  0.13758  0.84600  0.75772  1.0000
  H   H1425     1.0  0.03775  0.73612  0.95025  1.0000
  H   H1426     1.0  0.26472  0.90791  0.87596  1.0000
  H   H1427     1.0  0.04776  0.57252  0.80288  1.0000
  H   H1428     1.0  0.09864  0.57877  0.79282  1.0000
  C   C809      1.0  0.06563  0.52968  0.79143  1.0000
  H   H1429     1.0  0.09107  0.58661  0.80969  1.0000
  H   H1430     1.0  0.28703  0.95495  0.93278  1.0000
  H   H1431     1.0  0.20731  0.53820  0.77990  1.0000
  H   H1432     1.0  0.06403  0.73372  0.92801  1.0000
  C   C810      1.0  0.23170  0.72707  0.74184  1.0000
  C   C811      1.0  0.06968  0.50879  0.79803  1.0000
  H   H1433     1.0  0.28726  0.71501  0.74008  1.0000
  C   C812      1.0  0.06111  0.80541  0.91411  1.0000
  H   H1434     1.0  0.99806  0.95622  0.74199  1.0000
  H   H1435     1.0  0.22012  0.55723  0.76479  1.0000
  C   C813      1.0  0.04002  0.70003  0.91626  1.0000
  C   C814      1.0  0.13745  0.96665  0.85238  1.0000
  H   H1436     1.0  0.15263  0.98595  0.85308  1.0000
  H   H1437     1.0  0.05715  0.75434  0.97373  1.0000
  H   H1438     1.0  0.12857  0.68880  0.74793  1.0000
  H   H1439     1.0  0.18816  0.54588  0.76852  1.0000
  C   C815      1.0  0.12134  0.79623  0.74877  1.0000
  H   H1440     1.0  0.01376  0.57616  0.74072  1.0000
  C   C816      1.0  0.27768  0.97891  0.97192  1.0000
  H   H1441     1.0  0.23403  0.52695  0.75449  1.0000
  S   S190      1.0  0.26849  0.81259  0.75021  1.0000
  H   H1442     1.0  0.04485  0.80866  0.91423  1.0000
  C   C817      1.0  0.00412  0.70403  0.98458  1.0000
  H   H1443     1.0  0.05967  0.79051  0.94172  1.0000
  H   H1444     1.0  0.26736  0.73516  0.75111  1.0000
  H   H1445     1.0  0.16237  0.94806  0.88865  1.0000
  H   H1446     1.0  0.07259  0.95793  0.90680  1.0000
  C   C818      1.0  0.01662  0.76693  0.92672  1.0000
  C   C819      1.0  0.03713  0.57722  0.77440  1.0000
  H   H1447     1.0  0.11636  0.97834  0.90082  1.0000
  H   H1448     1.0  0.06447  0.81092  0.89132  1.0000
  H   H1449     1.0  0.03217  0.49644  0.83123  1.0000
  H   H1450     1.0  0.01863  0.72317  0.92982  1.0000
  C   C820      1.0  0.13848  0.95511  0.83796  1.0000
  H   H1451     1.0  0.05509  0.69534  0.91429  1.0000
  Fe  Fe98      1.0  0.03329  0.50392  0.75100  1.0000
  S   S191      1.0  0.98443  0.69106  0.95714  1.0000
  H   H1452     1.0  0.07303  0.77168  0.93666  1.0000
  H   H1453     1.0  0.10486  0.75905  0.73865  1.0000
  H   H1454     1.0  0.26246  0.76118  0.74989  1.0000
  H   H1455     1.0  0.07292  0.81462  0.92377  1.0000
  C   C821      1.0  0.13978  0.95153  0.86475  1.0000
  C   C822      1.0  0.07587  0.81837  0.90132  1.0000
  C   C823      1.0  0.29827  0.82979  0.74302  1.0000
  H   H1456     1.0  0.03200  0.58806  0.78202  1.0000
  H   H1457     1.0  0.09806  0.93781  0.87645  1.0000
  H   H1458     1.0  0.10638  0.84504  0.77388  1.0000
  Fe  Fe99      1.0  0.22741  0.79487  0.74275  1.0000
  C   C824      1.0  0.15517  0.98757  0.88222  1.0000
  H   H1459     1.0  0.10473  0.94565  0.90312  1.0000
  C   C825      1.0  0.02890  0.52137  0.81623  1.0000
  H   H1460     1.0  0.19207  0.52186  0.74849  1.0000
  H   H1461     1.0  0.10856  0.96961  0.87421  1.0000
  H   H1462     1.0  0.26256  0.51351  0.76519  1.0000
  C   C826      1.0  0.12945  0.84941  0.74788  1.0000
  H   H1463     1.0  0.04777  0.52002  0.78524  1.0000
  C   C827      1.0  0.10295  0.76862  0.74837  1.0000
  C   C828      1.0  0.10255  0.84312  0.75068  1.0000
  H   H1464     1.0  0.18988  0.98688  0.88763  1.0000
  H   H1465     1.0  0.01763  0.53114  0.81527  1.0000
  H   H1466     1.0  0.14004  0.79793  0.74962  1.0000
  H   H1467     1.0  0.18560  0.99041  0.86902  1.0000
  H   H1468     1.0  0.16528  0.83715  0.74624  1.0000
  H   H1469     1.0  0.09017  0.82289  0.75054  1.0000
  H   H1470     1.0  0.98761  0.51142  0.85469  1.0000
  H   H1471     1.0  0.09166  0.50530  0.78111  1.0000
  H   H1472     1.0  0.08533  0.51604  0.80589  1.0000
  H   H1473     1.0  0.98582  0.57183  0.85418  1.0000
  C   C829      1.0  0.98606  0.52777  0.85890  1.0000
  C   C830      1.0  0.31602  0.76389  0.74346  1.0000
  H   H1474     1.0  0.98505  0.77007  0.88619  1.0000
  C   C831      1.0  0.07452  0.49353  0.78659  1.0000
  H   H1475     1.0  0.00243  0.49528  0.83013  1.0000
  H   H1476     1.0  0.31387  0.95396  0.97496  1.0000
  C   C832      1.0  0.25249  0.49292  0.76488  1.0000
  H   H1477     1.0  0.28433  0.49141  0.77425  1.0000
  H   H1478     1.0  0.98470  0.72996  0.92551  1.0000
  H   H1479     1.0  0.98447  0.76272  0.98009  1.0000
  H   H1480     1.0  0.98475  0.96366  0.76555  1.0000
  S   S192      1.0  0.00640  0.99103  0.80359  1.0000
  H   H1481     1.0  0.25498  0.69759  0.73622  1.0000
  H   H1482     1.0  0.52585  0.44558  0.18588  1.0000
  Fe  Fe100     1.0  0.50353  0.46673  0.22532  1.0000
  S   S193      1.0  0.51590  0.43843  0.21947  1.0000
  C   C833      1.0  0.45261  0.45892  0.09194  1.0000
  Fe  Fe101     1.0  0.50330  0.03889  0.21414  1.0000
  C   C834      1.0  0.55327  0.01208  0.17822  1.0000
  S   S194      1.0  0.49546  0.02678  0.19041  1.0000
  C   C835      1.0  0.35671  0.14673  0.99756  1.0000
  H   H1483     1.0  0.45290  0.24813  0.20411  1.0000
  S   S195      1.0  0.35349  0.18769  0.19678  1.0000
  H   H1484     1.0  0.35038  0.30248  0.07974  1.0000
  H   H1485     1.0  0.37395  0.48698  0.14831  1.0000
  H   H1486     1.0  0.49640  0.35481  0.22979  1.0000
  C   C836      1.0  0.37309  0.27808  0.21293  1.0000
  H   H1487     1.0  0.34948  0.15567  0.00519  1.0000
  C   C837      1.0  0.43804  0.34808  0.20134  1.0000
  H   H1488     1.0  0.35324  0.43606  0.03288  1.0000
  C   C838      1.0  0.44276  0.45948  0.07695  1.0000
  H   H1489     1.0  0.45410  0.00005  0.10761  1.0000
  C   C839      1.0  0.32757  0.15080  0.13309  1.0000
  H   H1490     1.0  0.42469  0.31724  0.21481  1.0000
  H   H1491     1.0  0.44301  0.45286  0.04791  1.0000
  H   H1492     1.0  0.43896  0.45693  0.09997  1.0000
  H   H1493     1.0  0.34534  0.33939  0.09660  1.0000
  H   H1494     1.0  0.39052  0.35876  0.09729  1.0000
  H   H1495     1.0  0.42615  0.45854  0.03414  1.0000
  H   H1496     1.0  0.33489  0.27038  0.05998  1.0000
  H   H1497     1.0  0.32715  0.48886  0.10335  1.0000
  H   H1498     1.0  0.44322  0.07995  0.23192  1.0000
  H   H1499     1.0  0.41753  0.99353  0.12204  1.0000
  C   C840      1.0  0.39197  0.26889  0.20919  1.0000
  H   H1500     1.0  0.35565  0.24733  0.15829  1.0000
  H   H1501     1.0  0.54184  0.48960  0.18139  1.0000
  C   C841      1.0  0.39276  0.26390  0.16805  1.0000
  H   H1502     1.0  0.33684  0.12973  0.17931  1.0000
  H   H1503     1.0  0.43744  0.27923  0.20408  1.0000
  S   S196      1.0  0.58777  0.47106  0.22666  1.0000
  C   C842      1.0  0.34324  0.40337  0.08086  1.0000
  C   C843      1.0  0.33340  0.41962  0.07888  1.0000
  C   C844      1.0  0.34591  0.44427  0.08465  1.0000
  C   C845      1.0  0.36828  0.45304  0.09265  1.0000
  C   C846      1.0  0.37784  0.43662  0.09492  1.0000
  C   C847      1.0  0.36553  0.41209  0.08896  1.0000
  H   H1504     1.0  0.34128  0.33697  0.11517  1.0000
  H   H1505     1.0  0.39487  0.44291  0.10110  1.0000
  H   H1506     1.0  0.37338  0.39978  0.09061  1.0000
  H   H1507     1.0  0.36798  0.22591  0.16057  1.0000
  C   C848      1.0  0.33150  0.28690  0.07997  1.0000
  H   H1508     1.0  0.37412  0.42382  0.03683  1.0000
  H   H1509     1.0  0.45310  0.24890  0.18489  1.0000
  N   N44       1.0  0.40342  0.27595  0.19493  1.0000
  H   H1510     1.0  0.43124  0.00278  0.14742  1.0000
  H   H1511     1.0  0.42625  0.44134  0.07467  1.0000
  H   H1512     1.0  0.44554  0.35327  0.19064  1.0000
  C   C849      1.0  0.38923  0.35094  0.10794  1.0000
  H   H1513     1.0  0.49413  0.47091  0.16137  1.0000
  Fe  Fe102     1.0  0.36794  0.18817  0.21951  1.0000
  C   C850      1.0  0.48115  0.99645  0.18224  1.0000
  H   H1514     1.0  0.37889  0.24794  0.14677  1.0000
  H   H1515     1.0  0.37501  0.24086  0.18581  1.0000
  H   H1516     1.0  0.41654  0.00675  0.18553  1.0000
  C   C851      1.0  0.42499  0.27065  0.19447  1.0000
  H   H1517     1.0  0.32233  0.07791  0.14436  1.0000
  H   H1518     1.0  0.45645  0.44295  0.09257  1.0000
  H   H1519     1.0  0.46998  0.47620  0.09457  1.0000
  H   H1520     1.0  0.38606  0.99319  0.13578  1.0000
  S   S197      1.0  0.35823  0.15889  0.23566  1.0000
  H   H1521     1.0  0.33177  0.27128  0.08551  1.0000
  S   S198      1.0  0.38413  0.48500  0.09860  1.0000
  H   H1522     1.0  0.42153  0.35081  0.20229  1.0000
  C   C852      1.0  0.41852  0.24292  0.19391  1.0000
  H   H1523     1.0  0.36928  0.31305  0.10023  1.0000
  C   C853      1.0  0.54530  0.44924  0.18632  1.0000
  H   H1524     1.0  0.33516  0.18408  0.16815  1.0000
  H   H1525     1.0  0.39046  0.45474  0.06809  1.0000
  H   H1526     1.0  0.34868  0.27587  0.22969  1.0000
  H   H1527     1.0  0.34058  0.10201  0.19710  1.0000
  S   S199      1.0  0.32925  0.37247  0.07307  1.0000
  H   H1528     1.0  0.36885  0.26594  0.18356  1.0000
  S   S200      1.0  0.40751  0.19619  0.21983  1.0000
  C   C854      1.0  0.43675  0.48128  0.07581  1.0000
  H   H1529     1.0  0.33555  0.27922  0.10845  1.0000
  H   H1530     1.0  0.36420  0.48831  0.16603  1.0000
  C   C855      1.0  0.38517  0.46079  0.04624  1.0000
  C   C856      1.0  0.31979  0.28230  0.11125  1.0000
  H   H1531     1.0  0.49105  0.00998  0.16125  1.0000
  H   H1532     1.0  0.63669  0.08378  0.22840  1.0000
  H   H1533     1.0  0.38235  0.24836  0.20986  1.0000
  H   H1534     1.0  0.42172  0.30809  0.18228  1.0000
  C   C857      1.0  0.44178  0.23989  0.19407  1.0000
  H   H1535     1.0  0.33268  0.09158  0.16892  1.0000
  C   C858      1.0  0.32013  0.11263  0.18202  1.0000
  C   C859      1.0  0.43169  0.32124  0.20398  1.0000
  H   H1536     1.0  0.40913  0.26104  0.16699  1.0000
  H   H1537     1.0  0.43666  0.21988  0.19336  1.0000
  H   H1538     1.0  0.43658  0.27951  0.18533  1.0000
  H   H1539     1.0  0.32292  0.28803  0.12278  1.0000
  C   C860      1.0  0.63874  0.10197  0.23115  1.0000
  H   H1540     1.0  0.40745  0.23301  0.18414  1.0000
  H   H1541     1.0  0.39744  0.28271  0.16451  1.0000
  H   H1542     1.0  0.46381  0.46000  0.02523  1.0000
  H   H1543     1.0  0.44904  0.31990  0.20375  1.0000
  H   H1544     1.0  0.31927  0.11324  0.12821  1.0000
  H   H1545     1.0  0.38800  0.36379  0.11609  1.0000
  H   H1546     1.0  0.35411  0.42489  0.05027  1.0000
  H   H1547     1.0  0.40784  0.23377  0.20320  1.0000
  H   H1548     1.0  0.48249  0.48406  0.03832  1.0000
  H   H1549     1.0  0.39695  0.30741  0.19169  1.0000
  C   C861      1.0  0.42669  0.10428  0.23419  1.0000
  H   H1550     1.0  0.33268  0.48376  0.14756  1.0000
  H   H1551     1.0  0.55094  0.44754  0.17540  1.0000
  C   C862      1.0  0.41259  0.30312  0.19260  1.0000
  H   H1552     1.0  0.35822  0.27213  0.20457  1.0000
  H   H1553     1.0  0.32139  0.16166  0.13999  1.0000
  H   H1554     1.0  0.33830  0.45672  0.08272  1.0000
  H   H1555     1.0  0.44173  0.01759  0.17370  1.0000
  H   H1556     1.0  0.39604  0.47020  0.03701  1.0000
  H   H1557     1.0  0.40634  0.27554  0.21795  1.0000
  H   H1558     1.0  0.34928  0.12693  0.00011  1.0000
  H   H1559     1.0  0.45222  0.36062  0.20941  1.0000
  H   H1560     1.0  0.33906  0.12249  0.15191  1.0000
  H   H1561     1.0  0.42441  0.47997  0.08459  1.0000
  H   H1562     1.0  0.40627  0.34952  0.11027  1.0000
  H   H1563     1.0  0.49761  0.46492  0.18724  1.0000
  C   C863      1.0  0.47429  0.31517  0.23188  1.0000
  H   H1564     1.0  0.52670  0.99271  0.12971  1.0000
  H   H1565     1.0  0.54661  0.43498  0.19282  1.0000
  C   C864      1.0  0.38402  0.26094  0.18352  1.0000
  C   C865      1.0  0.32308  0.17226  0.18918  1.0000
  H   H1566     1.0  0.45740  0.46177  0.06963  1.0000
  H   H1567     1.0  0.36687  0.31793  0.11884  1.0000
  C   C866      1.0  0.44299  0.46739  0.04121  1.0000
  C   C867      1.0  0.36685  0.32528  0.10818  1.0000
  H   H1568     1.0  0.38216  0.29859  0.21420  1.0000
  C   C868      1.0  0.37252  0.24511  0.15782  1.0000
  H   H1569     1.0  0.37548  0.47120  0.04993  1.0000
  H   H1570     1.0  0.54876  0.99706  0.15134  1.0000
  C   C869      1.0  0.31944  0.11852  0.15143  1.0000
  C   C870      1.0  0.49135  0.47778  0.18374  1.0000
  S   S201      1.0  0.52952  0.07947  0.21919  1.0000
  S   S202      1.0  0.44668  0.26439  0.23386  1.0000
  C   C871      1.0  0.48923  0.48113  0.16908  1.0000
  Fe  Fe103     1.0  0.54901  0.46120  0.23453  1.0000
  H   H1571     1.0  0.40520  0.44381  0.05636  1.0000
  H   H1572     1.0  0.55909  0.01428  0.18966  1.0000
  C   C872      1.0  0.32481  0.10611  0.19693  1.0000
  H   H1573     1.0  0.55601  0.47586  0.20398  1.0000
  H   H1574     1.0  0.63433  0.48119  0.21531  1.0000
  C   C873      1.0  0.40181  0.45983  0.05857  1.0000
  H   H1575     1.0  0.33651  0.47703  0.11839  1.0000
  C   C874      1.0  0.36551  0.43478  0.04128  1.0000
  H   H1576     1.0  0.56915  0.02508  0.17220  1.0000
  C   C875      1.0  0.44621  0.09824  0.23527  1.0000
  H   H1577     1.0  0.48777  0.31078  0.22726  1.0000
  H   H1578     1.0  0.32933  0.12212  0.20448  1.0000
  C   C876      1.0  0.46506  0.47603  0.03173  1.0000
  C   C877      1.0  0.34263  0.32677  0.10549  1.0000
  H   H1579     1.0  0.53813  0.01704  0.17712  1.0000
  H   H1580     1.0  0.33135  0.10319  0.23361  1.0000
  H   H1581     1.0  0.31862  0.13304  0.15844  1.0000
  C   C878      1.0  0.61785  0.10427  0.23486  1.0000
  N   N45       1.0  0.42550  0.48339  0.06181  1.0000
  H   H1582     1.0  0.40010  0.00373  0.16125  1.0000
  C   C879      1.0  0.56206  0.47497  0.19309  1.0000
  C   C880      1.0  0.44360  0.48951  0.05010  1.0000
  H   H1583     1.0  0.46539  0.49013  0.02443  1.0000
  H   H1584     1.0  0.34766  0.15790  0.13497  1.0000
  C   C881      1.0  0.31947  0.17369  0.17449  1.0000
  C   C882      1.0  0.48148  0.99368  0.16736  1.0000
  H   H1585     1.0  0.40879  0.09037  0.23011  1.0000
  H   H1586     1.0  0.58090  0.47690  0.19383  1.0000
  H   H1587     1.0  0.32410  0.15360  0.12186  1.0000
  H   H1588     1.0  0.34972  0.24740  0.22580  1.0000
  C   C883      1.0  0.32159  0.48021  0.11374  1.0000
  Fe  Fe104     1.0  0.54783  0.06611  0.23521  1.0000
  C   C884      1.0  0.32314  0.27789  0.06452  1.0000
  S   S203      1.0  0.48851  0.48847  0.21247  1.0000
  H   H1589     1.0  0.32493  0.29348  0.05803  1.0000
  C   C885      1.0  0.47930  0.34023  0.23333  1.0000
  C   C886      1.0  0.36098  0.26787  0.22689  1.0000
  C   C887      1.0  0.48527  0.49103  0.19382  1.0000
  H   H1590     1.0  0.37709  0.15611  0.99893  1.0000
  S   S204      1.0  0.52249  0.02546  0.22945  1.0000
  S   S205      1.0  0.47626  0.03814  0.23009  1.0000
  C   C888      1.0  0.42479  0.00105  0.17675  1.0000
  H   H1591     1.0  0.45372  0.99136  0.13340  1.0000
  N   N46       1.0  0.31911  0.30262  0.10280  1.0000
  H   H1592     1.0  0.37509  0.27281  0.23566  1.0000
  S   S206      1.0  0.37459  0.21846  0.23596  1.0000
  H   H1593     1.0  0.39410  0.18803  0.28438  1.0000
  Fe  Fe105     1.0  0.51625  0.46672  0.25723  1.0000
  S   S207      1.0  0.53045  0.43904  0.25359  1.0000
  C   C889      1.0  0.34488  0.99561  0.39025  1.0000
  H   H1594     1.0  0.36814  0.37352  0.32068  1.0000
  H   H1595     1.0  0.39302  0.45411  0.38578  1.0000
  C   C890      1.0  0.34079  0.09797  0.30184  1.0000
  H   H1596     1.0  0.35459  0.01586  0.39278  1.0000
  Fe  Fe106     1.0  0.49736  0.02735  0.24599  1.0000
  S   S208      1.0  0.52385  0.06672  0.25290  1.0000
  S   S209      1.0  0.40450  0.13435  0.23686  1.0000
  H   H1597     1.0  0.46751  0.01047  0.32629  1.0000
  H   H1598     1.0  0.40474  0.42674  0.33066  1.0000
  H   H1599     1.0  0.43859  0.06596  0.29174  1.0000
  H   H1600     1.0  0.48919  0.03376  0.30626  1.0000
  H   H1601     1.0  0.32017  0.08359  0.28237  1.0000
  H   H1602     1.0  0.35350  0.01067  0.33680  1.0000
  Fe  Fe107     1.0  0.36802  0.18969  0.25227  1.0000
  S   S210      1.0  0.40812  0.19900  0.25421  1.0000
  S   S211      1.0  0.35005  0.18893  0.27355  1.0000
  H   H1603     1.0  0.41794  0.17911  0.28147  1.0000
  C   C891      1.0  0.47227  0.03487  0.30897  1.0000
  H   H1604     1.0  0.63852  0.41527  0.25647  1.0000
  C   C892      1.0  0.49709  0.07198  0.28842  1.0000
  H   H1605     1.0  0.47157  0.48085  0.25876  1.0000
  S   S212      1.0  0.51934  0.48798  0.27830  1.0000
  C   C893      1.0  0.39083  0.40100  0.30648  1.0000
  H   H1606     1.0  0.43475  0.45483  0.29526  1.0000
  C   C894      1.0  0.43991  0.32692  0.24373  1.0000
  H   H1607     1.0  0.32831  0.11527  0.28596  1.0000
  C   C895      1.0  0.39427  0.10296  0.26993  1.0000
  H   H1608     1.0  0.43912  0.03005  0.29764  1.0000
  H   H1609     1.0  0.41072  0.45461  0.36154  1.0000
  H   H1610     1.0  0.46370  0.09146  0.28472  1.0000
  C   C896      1.0  0.45902  0.07615  0.29216  1.0000
  H   H1611     1.0  0.35826  0.27748  0.32083  1.0000
  C   C897      1.0  0.62086  0.12803  0.23822  1.0000
  C   C898      1.0  0.53849  0.10899  0.28431  1.0000
  C   C899      1.0  0.37857  0.44823  0.33914  1.0000
  C   C900      1.0  0.40985  0.09112  0.27514  1.0000
  H   H1612     1.0  0.43811  0.09880  0.30932  1.0000
  H   H1613     1.0  0.50391  0.07532  0.29967  1.0000
  H   H1614     1.0  0.39058  0.01392  0.40497  1.0000
  C   C901      1.0  0.33850  0.00145  0.36466  1.0000
  H   H1615     1.0  0.41797  0.28732  0.24600  1.0000
  H   H1616     1.0  0.37591  0.43990  0.31623  1.0000
  C   C902      1.0  0.41778  0.44115  0.35971  1.0000
  C   C903      1.0  0.43375  0.03772  0.26802  1.0000
  H   H1617     1.0  0.33026  0.33448  0.36036  1.0000
  C   C904      1.0  0.45850  0.03554  0.29508  1.0000
  H   H1618     1.0  0.46662  0.45354  0.28009  1.0000
  H   H1619     1.0  0.61534  0.10772  0.26602  1.0000
  C   C905      1.0  0.51066  0.09750  0.28156  1.0000
  C   C906      1.0  0.36341  0.00288  0.34320  1.0000
  H   H1620     1.0  0.48685  0.09640  0.30953  1.0000
  H   H1621     1.0  0.60115  0.09271  0.28190  1.0000
  H   H1622     1.0  0.54776  0.12656  0.27866  1.0000
  H   H1623     1.0  0.51129  0.01587  0.28319  1.0000
  C   C907      1.0  0.35844  0.45333  0.38089  1.0000
  C   C908      1.0  0.33277  0.43953  0.38215  1.0000
  H   H1624     1.0  0.37817  0.00054  0.37980  1.0000
  C   C909      1.0  0.33693  0.40646  0.39392  1.0000
  C   C910      1.0  0.36260  0.42037  0.39275  1.0000
  C   C911      1.0  0.37327  0.44358  0.38633  1.0000
  H   H1625     1.0  0.45115  0.46461  0.37232  1.0000
  H   H1626     1.0  0.36100  0.07701  0.27972  1.0000
  H   H1627     1.0  0.46870  0.06941  0.26519  1.0000
  H   H1628     1.0  0.54331  0.11317  0.29586  1.0000
  C   C912      1.0  0.46208  0.34634  0.23923  1.0000
  H   H1629     1.0  0.60727  0.07552  0.26810  1.0000
  C   C913      1.0  0.34599  0.10022  0.26121  1.0000
  H   H1630     1.0  0.36023  0.42561  0.35650  1.0000
  H   H1631     1.0  0.39515  0.14186  0.29534  1.0000
  C   C914      1.0  0.49593  0.48744  0.28929  1.0000
  N   N47       1.0  0.35678  0.10953  0.27612  1.0000
  H   H1632     1.0  0.54548  0.09630  0.28032  1.0000
  H   H1633     1.0  0.44441  0.43261  0.37060  1.0000
  H   H1634     1.0  0.65090  0.08154  0.26683  1.0000
  H   H1635     1.0  0.42642  0.33132  0.24832  1.0000
  H   H1636     1.0  0.41685  0.46633  0.25392  1.0000
  H   H1637     1.0  0.37490  0.46129  0.34581  1.0000
  S   S213      1.0  0.37081  0.48256  0.37258  1.0000
  C   C915      1.0  0.45657  0.48601  0.25807  1.0000
  C   C916      1.0  0.43613  0.44518  0.37201  1.0000
  H   H1638     1.0  0.45664  0.16433  0.24653  1.0000
  N   N48       1.0  0.37829  0.40674  0.34657  1.0000
  H   H1639     1.0  0.39878  0.45636  0.33928  1.0000
  H   H1640     1.0  0.40669  0.12315  0.26951  1.0000
  H   H1641     1.0  0.47065  0.04163  0.26719  1.0000
  C   C917      1.0  0.35937  0.38006  0.34846  1.0000
  H   H1642     1.0  0.38524  0.14320  0.26770  1.0000
  H   H1643     1.0  0.35081  0.29961  0.32952  1.0000
  H   H1644     1.0  0.35469  0.01976  0.36747  1.0000
  H   H1645     1.0  0.33120  0.12584  0.25652  1.0000
  H   H1646     1.0  0.32396  0.25754  0.33731  1.0000
  H   H1647     1.0  0.33343  0.03823  0.37857  1.0000
  H   H1648     1.0  0.42488  0.04959  0.26998  1.0000
  H   H1649     1.0  0.38734  0.09524  0.25898  1.0000
  H   H1650     1.0  0.34221  0.08056  0.30253  1.0000
  H   H1651     1.0  0.33828  0.18475  0.30290  1.0000
  H   H1652     1.0  0.42478  0.09495  0.26765  1.0000
  H   H1653     1.0  0.32769  0.10203  0.47580  1.0000
  H   H1654     1.0  0.32100  0.44679  0.37808  1.0000
  C   C918      1.0  0.47157  0.46863  0.28789  1.0000
  C   C919      1.0  0.63638  0.43093  0.26127  1.0000
  S   S214      1.0  0.32463  0.37668  0.40162  1.0000
  C   C920      1.0  0.31990  0.20745  0.33422  1.0000
  H   H1655     1.0  0.43539  0.01532  0.25013  1.0000
  H   H1656     1.0  0.37690  0.46868  0.32108  1.0000
  H   H1657     1.0  0.39834  0.42112  0.30481  1.0000
  C   C921      1.0  0.47292  0.13970  0.24473  1.0000
  C   C922      1.0  0.32012  0.02687  0.38644  1.0000
  H   H1658     1.0  0.35233  0.30970  0.43622  1.0000
  H   H1659     1.0  0.34896  0.44052  0.32326  1.0000
  H   H1660     1.0  0.33752  0.38767  0.36438  1.0000
  H   H1661     1.0  0.38639  0.41390  0.36925  1.0000
  Fe  Fe108     1.0  0.39861  0.16902  0.23706  1.0000
  H   H1662     1.0  0.37892  0.39054  0.29704  1.0000
  H   H1663     1.0  0.41226  0.18659  0.29917  1.0000
  S   S215      1.0  0.48198  0.44516  0.24361  1.0000
  H   H1664     1.0  0.34901  0.14708  0.47356  1.0000
  H   H1665     1.0  0.36026  0.39806  0.31853  1.0000
  H   H1666     1.0  0.46697  0.12241  0.30303  1.0000
  H   H1667     1.0  0.34686  0.41163  0.33990  1.0000
  C   C923      1.0  0.36933  0.44907  0.32403  1.0000
  C   C924      1.0  0.49591  0.99932  0.28673  1.0000
  H   H1668     1.0  0.31941  0.03021  0.47348  1.0000
  C   C925      1.0  0.61436  0.09395  0.27375  1.0000
  H   H1669     1.0  0.43709  0.04464  0.24542  1.0000
  H   H1670     1.0  0.37109  0.15050  0.29795  1.0000
  H   H1671     1.0  0.34115  0.19535  0.34755  1.0000
  H   H1672     1.0  0.51263  0.00161  0.30756  1.0000
  H   H1673     1.0  0.40635  0.39656  0.30738  1.0000
  C   C926      1.0  0.63969  0.10194  0.28083  1.0000
  C   C927      1.0  0.32208  0.41629  0.38857  1.0000
  H   H1674     1.0  0.49081  0.15359  0.24886  1.0000
  C   C928      1.0  0.32361  0.34838  0.36198  1.0000
  H   H1675     1.0  0.42698  0.44186  0.38234  1.0000
  H   H1676     1.0  0.35801  0.11325  0.30654  1.0000
  C   C929      1.0  0.45353  0.46935  0.29658  1.0000
  C   C930      1.0  0.33595  0.31273  0.43528  1.0000
  H   H1677     1.0  0.64930  0.01687  0.38673  1.0000
  C   C931      1.0  0.46190  0.05259  0.27157  1.0000
  Fe  Fe109     1.0  0.49672  0.41814  0.23889  1.0000
  C   C932      1.0  0.37264  0.09753  0.27982  1.0000
  H   H1678     1.0  0.33268  0.31563  0.42400  1.0000
  C   C933      1.0  0.37158  0.13744  0.27616  1.0000
  C   C934      1.0  0.45844  0.10709  0.31045  1.0000
  H   H1679     1.0  0.42478  0.02108  0.27443  1.0000
  H   H1680     1.0  0.35729  0.37616  0.37172  1.0000
  H   H1681     1.0  0.32069  0.25345  0.45678  1.0000
  H   H1682     1.0  0.31853  0.11322  0.31134  1.0000
  H   H1683     1.0  0.64651  0.16709  0.24111  1.0000
  C   C935      1.0  0.39601  0.41465  0.35934  1.0000
  C   C936      1.0  0.31980  0.09567  0.31107  1.0000
  H   H1684     1.0  0.46428  0.11499  0.32150  1.0000
  N   N49       1.0  0.46932  0.05937  0.28715  1.0000
  H   H1685     1.0  0.42802  0.44518  0.34978  1.0000
  C   C937      1.0  0.32482  0.16589  0.28240  1.0000
  C   C938      1.0  0.46666  0.08743  0.30751  1.0000
  H   H1686     1.0  0.47788  0.05149  0.31608  1.0000
  H   H1687     1.0  0.32121  0.19699  0.32480  1.0000
  C   C939      1.0  0.45353  0.14590  0.24339  1.0000
  C   C940      1.0  0.45633  0.01221  0.31739  1.0000
  H   H1688     1.0  0.40364  0.40143  0.36051  1.0000
  H   H1689     1.0  0.50391  0.05948  0.28373  1.0000
  C   C941      1.0  0.38482  0.15064  0.29048  1.0000
  H   H1690     1.0  0.44897  0.99500  0.31050  1.0000
  H   H1691     1.0  0.38071  0.10285  0.29079  1.0000
  C   C942      1.0  0.32004  0.26255  0.32669  1.0000
  H   H1692     1.0  0.35958  0.14577  0.27324  1.0000
  C   C943      1.0  0.34511  0.37466  0.36245  1.0000
  H   H1693     1.0  0.42966  0.44831  0.26202  1.0000
  C   C944      1.0  0.36506  0.42220  0.34564  1.0000
  H   H1694     1.0  0.50486  0.11086  0.28597  1.0000
  H   H1695     1.0  0.41840  0.09909  0.28581  1.0000
  C   C945      1.0  0.33576  0.10179  0.28610  1.0000
  C   C946      1.0  0.34394  0.28360  0.32171  1.0000
  H   H1696     1.0  0.39843  0.07073  0.27558  1.0000
  S   S216      1.0  0.53722  0.49011  0.23928  1.0000
  C   C947      1.0  0.42838  0.02876  0.25243  1.0000
  C   C948      1.0  0.37585  0.39389  0.31985  1.0000
  H   H1697     1.0  0.33558  0.22646  0.33435  1.0000
  H   H1698     1.0  0.34511  0.37346  0.33963  1.0000
  C   C949      1.0  0.39204  0.40748  0.33337  1.0000
  C   C950      1.0  0.32355  0.16897  0.29718  1.0000
  S   S217      1.0  0.49478  0.10922  0.24284  1.0000
  C   C951      1.0  0.32488  0.10568  0.25620  1.0000
  C   C952      1.0  0.40339  0.17772  0.28868  1.0000
  H   H1699     1.0  0.33874  0.07975  0.26003  1.0000
  H   H1700     1.0  0.45760  0.07276  0.31522  1.0000
  H   H1701     1.0  0.36049  0.10839  0.25328  1.0000
  H   H1702     1.0  0.33976  0.32982  0.44167  1.0000
  H   H1703     1.0  0.36819  0.36777  0.34790  1.0000
  H   H1704     1.0  0.37437  0.41317  0.39693  1.0000
  H   H1705     1.0  0.50710  0.09568  0.26992  1.0000
  H   H1706     1.0  0.40431  0.39897  0.33532  1.0000
  C   C953      1.0  0.46952  0.11590  0.24061  1.0000
  H   H1707     1.0  0.64599  0.12049  0.28602  1.0000
  C   C954      1.0  0.45962  0.48862  0.30695  1.0000
  C   C955      1.0  0.33317  0.11388  0.48573  1.0000
  C   C956      1.0  0.43275  0.46244  0.25406  1.0000
  H   H1708     1.0  0.63733  0.08873  0.28927  1.0000
  H   H1709     1.0  0.61739  0.42769  0.25865  1.0000
  C   C957      1.0  0.43498  0.30188  0.24236  1.0000
  H   H1710     1.0  0.34086  0.28977  0.31121  1.0000
  H   H1711     1.0  0.63884  0.43138  0.27302  1.0000
  H   H1712     1.0  0.32967  0.03081  0.39709  1.0000
  Fe  Fe110     1.0  0.50361  0.07750  0.23636  1.0000
  C   C958      1.0  0.33551  0.13905  0.48199  1.0000
  H   H1713     1.0  0.38050  0.01826  0.34817  1.0000
  C   C959      1.0  0.45210  0.29576  0.23634  1.0000
  C   C960      1.0  0.32303  0.19514  0.34746  1.0000
  C   C961      1.0  0.43021  0.12820  0.23811  1.0000
  H   H1714     1.0  0.60509  0.13023  0.24113  1.0000
  H   H1715     1.0  0.40824  0.01929  0.25004  1.0000
  H   H1716     1.0  0.32209  0.20518  0.35727  1.0000
  H   H1717     1.0  0.32599  0.00583  0.35798  1.0000
  H   H1718     1.0  0.32318  0.09181  0.32213  1.0000
  H   H1719     1.0  0.32335  0.26287  0.43360  1.0000
  S   S218      1.0  0.47251  0.99607  0.26029  1.0000
  S   S219      1.0  0.46656  0.37750  0.24068  1.0000
  H   H1720     1.0  0.43395  0.45475  0.24344  1.0000
  S   S220      1.0  0.43598  0.48844  0.31759  1.0000
  H   H1721     1.0  0.45751  0.01990  0.28817  1.0000
  H   H1722     1.0  0.32737  0.05849  0.46438  1.0000
  Fe  Fe111     1.0  0.41382  0.22576  0.23679  1.0000
  C   C962      1.0  0.64446  0.14894  0.23826  1.0000
  H   H1723     1.0  0.32470  0.23633  0.31242  1.0000
  C   C963      1.0  0.38175  0.99394  0.40164  1.0000
  H   H1724     1.0  0.44070  0.01401  0.32186  1.0000
  H   H1725     1.0  0.34499  0.48536  0.34356  1.0000
  H   H1726     1.0  0.32342  0.48283  0.32953  1.0000
  S   S221      1.0  0.58921  0.07673  0.23640  1.0000
  H   H1727     1.0  0.36866  0.99161  0.33597  1.0000
  H   H1728     1.0  0.65098  0.45428  0.24374  1.0000
  C   C964      1.0  0.50863  0.35231  0.64395  1.0000
  S   S222      1.0  0.33510  0.05145  0.54982  1.0000
  H   H1729     1.0  0.36169  0.39772  0.60566  1.0000
  H   H1730     1.0  0.55777  0.13436  0.67502  1.0000
  H   H1731     1.0  0.34371  0.42851  0.71745  1.0000
  S   S223      1.0  0.35531  0.02786  0.58618  1.0000
  H   H1732     1.0  0.64042  0.40187  0.61044  1.0000
  Fe  Fe112     1.0  0.33608  0.27865  0.56023  1.0000
  S   S224      1.0  0.37109  0.29731  0.57514  1.0000
  S   S225      1.0  0.33082  0.25778  0.53907  1.0000
  Fe  Fe113     1.0  0.54510  0.47069  0.61127  1.0000
  S   S226      1.0  0.55502  0.45915  0.63206  1.0000
  Fe  Fe114     1.0  0.49547  0.42157  0.60738  1.0000
  S   S227      1.0  0.50217  0.40703  0.62782  1.0000
  S   S228      1.0  0.46343  0.40472  0.59042  1.0000
  Fe  Fe115     1.0  0.51524  0.44565  0.63749  1.0000
  H   H1733     1.0  0.62896  0.00604  0.63702  1.0000
  Fe  Fe116     1.0  0.54142  0.42121  0.62140  1.0000
  S   S229      1.0  0.55880  0.39502  0.62128  1.0000
  S   S230      1.0  0.50607  0.45943  0.61752  1.0000
  S   S231      1.0  0.53391  0.43350  0.60021  1.0000
  C   C965      1.0  0.46604  0.48451  0.67039  1.0000
  S   S232      1.0  0.62246  0.36715  0.66501  1.0000
  Fe  Fe117     1.0  0.62272  0.28184  0.65940  1.0000
  S   S233      1.0  0.58936  0.24334  0.65513  1.0000
  S   S234      1.0  0.61766  0.30257  0.67819  1.0000
  Fe  Fe118     1.0  0.49784  0.06445  0.61153  1.0000
  S   S235      1.0  0.50550  0.08264  0.63349  1.0000
  S   S236      1.0  0.47232  0.06791  0.59437  1.0000
  Fe  Fe119     1.0  0.53952  0.04942  0.61553  1.0000
  S   S237      1.0  0.54893  0.06598  0.63801  1.0000
  S   S238      1.0  0.55746  0.02814  0.60428  1.0000
  Fe  Fe120     1.0  0.50790  0.04870  0.64069  1.0000
  S   S239      1.0  0.48536  0.03135  0.66025  1.0000
  Fe  Fe121     1.0  0.54568  0.09846  0.62923  1.0000
  S   S240      1.0  0.57727  0.13815  0.63270  1.0000
  S   S241      1.0  0.49833  0.02986  0.61877  1.0000
  S   S242      1.0  0.53819  0.08245  0.60670  1.0000
  C   C966      1.0  0.58132  0.45116  0.57247  1.0000
  H   H1734     1.0  0.56606  0.43469  0.65780  1.0000
  C   C967      1.0  0.48572  0.01009  0.67275  1.0000
  C   C968      1.0  0.48864  0.47859  0.58524  1.0000
  H   H1735     1.0  0.37061  0.44888  0.67592  1.0000
  C   C969      1.0  0.58657  0.21434  0.64883  1.0000
  C   C970      1.0  0.56363  0.19294  0.64937  1.0000
  C   C971      1.0  0.56046  0.16949  0.64462  1.0000
  C   C972      1.0  0.58013  0.16714  0.63905  1.0000
  C   C973      1.0  0.60311  0.18850  0.63860  1.0000
  C   C974      1.0  0.60636  0.21194  0.64348  1.0000
  H   H1736     1.0  0.54826  0.19449  0.65367  1.0000
  H   H1737     1.0  0.54297  0.15318  0.64550  1.0000
  H   H1738     1.0  0.61851  0.18690  0.63438  1.0000
  H   H1739     1.0  0.62412  0.22816  0.64300  1.0000
  H   H1740     1.0  0.50340  0.48952  0.59344  1.0000
  H   H1741     1.0  0.55803  0.48582  0.54574  1.0000
  C   C975      1.0  0.31884  0.06331  0.49377  1.0000
  H   H1742     1.0  0.53209  0.43313  0.56770  1.0000
  S   S243      1.0  0.50684  0.44918  0.66085  1.0000
  C   C976      1.0  0.57635  0.38752  0.63372  1.0000
  C   C977      1.0  0.57660  0.36468  0.63195  1.0000
  C   C978      1.0  0.59041  0.35799  0.64142  1.0000
  C   C979      1.0  0.60440  0.37423  0.65275  1.0000
  C   C980      1.0  0.60443  0.39720  0.65440  1.0000
  C   C981      1.0  0.59064  0.40388  0.64492  1.0000
  H   H1743     1.0  0.56584  0.35195  0.62324  1.0000
  H   H1744     1.0  0.59018  0.34026  0.63997  1.0000
  H   H1745     1.0  0.61544  0.41007  0.66300  1.0000
  H   H1746     1.0  0.59146  0.42187  0.64610  1.0000
  H   H1747     1.0  0.31853  0.27430  0.61293  1.0000
  C   C982      1.0  0.61100  0.02573  0.58024  1.0000
  C   C983      1.0  0.58920  0.01937  0.58759  1.0000
  C   C984      1.0  0.58534  0.03753  0.59502  1.0000
  C   C985      1.0  0.60368  0.06224  0.59491  1.0000
  H   H1748     1.0  0.33619  0.40642  0.70335  1.0000
  H   H1749     1.0  0.61331  0.01161  0.57436  1.0000
  C   C986      1.0  0.63234  0.02062  0.62933  1.0000
  H   H1750     1.0  0.60111  0.07651  0.60050  1.0000
  C   C987      1.0  0.43801  0.37458  0.58637  1.0000
  C   C988      1.0  0.42348  0.37063  0.57380  1.0000
  C   C989      1.0  0.40316  0.34724  0.57012  1.0000
  C   C990      1.0  0.39668  0.32742  0.57908  1.0000
  C   C991      1.0  0.41118  0.33141  0.59167  1.0000
  C   C992      1.0  0.43166  0.35472  0.59529  1.0000
  H   H1751     1.0  0.42814  0.38572  0.56676  1.0000
  H   H1752     1.0  0.39283  0.34444  0.56019  1.0000
  H   H1753     1.0  0.40659  0.31626  0.59867  1.0000
  H   H1754     1.0  0.44253  0.35730  0.60499  1.0000
  H   H1755     1.0  0.48439  0.46826  0.56305  1.0000
  C   C993      1.0  0.38799  0.03950  0.58822  1.0000
  C   C994      1.0  0.40444  0.05447  0.57829  1.0000
  C   C995      1.0  0.43004  0.06306  0.58044  1.0000
  C   C996      1.0  0.43972  0.05681  0.59247  1.0000
  C   C997      1.0  0.42330  0.04194  0.60242  1.0000
  C   C998      1.0  0.39770  0.03340  0.60029  1.0000
  H   H1756     1.0  0.39742  0.05940  0.56896  1.0000
  H   H1757     1.0  0.44242  0.07454  0.57264  1.0000
  H   H1758     1.0  0.43027  0.03690  0.61174  1.0000
  H   H1759     1.0  0.38529  0.02187  0.60807  1.0000
  H   H1760     1.0  0.33229  0.37458  0.57621  1.0000
  H   H1761     1.0  0.64585  0.36576  0.60193  1.0000
  H   H1762     1.0  0.63963  0.08772  0.58780  1.0000
  C   C999      1.0  0.38612  0.42342  0.69839  1.0000
  H   H1763     1.0  0.49408  0.99126  0.55248  1.0000
  C   C1000     1.0  0.49980  0.47834  0.57097  1.0000
  C   C1001     1.0  0.57057  0.44090  0.66915  1.0000
  C   C1002     1.0  0.50677  0.44583  0.54764  1.0000
  H   H1764     1.0  0.51742  0.04187  0.53865  1.0000
  C   C1003     1.0  0.61784  0.20758  0.70742  1.0000
  H   H1765     1.0  0.36267  0.47328  0.71302  1.0000
  H   H1766     1.0  0.57990  0.20432  0.67861  1.0000
  C   C1004     1.0  0.64726  0.40726  0.62170  1.0000
  C   C1005     1.0  0.49124  0.46342  0.66990  1.0000
  H   H1767     1.0  0.34518  0.16026  0.55795  1.0000
  H   H1768     1.0  0.64852  0.01150  0.58807  1.0000
  H   H1769     1.0  0.34786  0.31819  0.60916  1.0000
  H   H1770     1.0  0.56154  0.09548  0.57777  1.0000
  C   C1006     1.0  0.52129  0.05121  0.56745  1.0000
  C   C1007     1.0  0.62961  0.05037  0.58039  1.0000
  H   H1771     1.0  0.39771  0.46175  0.69661  1.0000
  S   S244      1.0  0.43156  0.47512  0.73382  1.0000
  H   H1772     1.0  0.33751  0.07414  0.48975  1.0000
  C   C1008     1.0  0.59139  0.23992  0.70757  1.0000
  H   H1773     1.0  0.54796  0.35679  0.67077  1.0000
  H   H1774     1.0  0.62071  0.43353  0.62107  1.0000
  H   H1775     1.0  0.36937  0.39949  0.58730  1.0000
  N   N50       1.0  0.50381  0.02373  0.56630  1.0000
  H   H1776     1.0  0.56124  0.09449  0.55850  1.0000
  H   H1777     1.0  0.47644  0.48729  0.58421  1.0000
  H   H1778     1.0  0.33011  0.19093  0.55382  1.0000
  H   H1779     1.0  0.45842  0.41408  0.53765  1.0000
  C   C1009     1.0  0.47035  0.00447  0.68442  1.0000
  H   H1780     1.0  0.49250  0.33373  0.64199  1.0000
  H   H1781     1.0  0.34159  0.44794  0.67743  1.0000
  H   H1782     1.0  0.48670  0.01613  0.53584  1.0000
  C   C1010     1.0  0.38248  0.44636  0.70186  1.0000
  C   C1011     1.0  0.56502  0.08672  0.56821  1.0000
  H   H1783     1.0  0.47822  0.40140  0.53178  1.0000
  H   H1784     1.0  0.47753  0.45941  0.58877  1.0000
  C   C1012     1.0  0.50887  0.01238  0.57921  1.0000
  H   H1785     1.0  0.55427  0.05208  0.57768  1.0000
  H   H1786     1.0  0.54641  0.15658  0.67381  1.0000
  H   H1787     1.0  0.54717  0.44327  0.55146  1.0000
  H   H1788     1.0  0.32385  0.09579  0.52512  1.0000
  C   C1013     1.0  0.51688  0.46626  0.57200  1.0000
  H   H1789     1.0  0.31998  0.99618  0.65459  1.0000
  H   H1790     1.0  0.57160  0.36497  0.70090  1.0000
  H   H1791     1.0  0.58153  0.26523  0.69675  1.0000
  H   H1792     1.0  0.35978  0.12186  0.51259  1.0000
  H   H1793     1.0  0.31975  0.40324  0.67881  1.0000
  C   C1014     1.0  0.59702  0.19097  0.71720  1.0000
  C   C1015     1.0  0.58449  0.17189  0.68184  1.0000
  H   H1794     1.0  0.58640  0.17201  0.71225  1.0000
  H   H1795     1.0  0.50186  0.41481  0.68875  1.0000
  C   C1016     1.0  0.47924  0.47471  0.69257  1.0000
  S   S245      1.0  0.32237  0.10711  0.55602  1.0000
  H   H1796     1.0  0.59825  0.23900  0.71843  1.0000
  H   H1797     1.0  0.34109  0.46865  0.69889  1.0000
  H   H1798     1.0  0.45805  0.38573  0.68911  1.0000
  H   H1799     1.0  0.64280  0.32576  0.61120  1.0000
  H   H1800     1.0  0.49013  0.36209  0.66001  1.0000
  H   H1801     1.0  0.52253  0.39341  0.69815  1.0000
  C   C1017     1.0  0.54348  0.48717  0.55196  1.0000
  H   H1802     1.0  0.45619  0.38635  0.54513  1.0000
  H   H1803     1.0  0.50709  0.44846  0.57740  1.0000
  H   H1804     1.0  0.50794  0.36474  0.63581  1.0000
  C   C1018     1.0  0.32903  0.32197  0.58993  1.0000
  C   C1019     1.0  0.65094  0.36984  0.62538  1.0000
  H   H1805     1.0  0.58390  0.19817  0.71919  1.0000
  H   H1806     1.0  0.57953  0.48279  0.56473  1.0000
  H   H1807     1.0  0.37409  0.35913  0.59098  1.0000
  H   H1808     1.0  0.32941  0.38993  0.65611  1.0000
  C   C1020     1.0  0.47156  0.37874  0.69091  1.0000
  H   H1809     1.0  0.37143  0.08795  0.53116  1.0000
  H   H1810     1.0  0.60763  0.28024  0.70931  1.0000
  C   C1021     1.0  0.32606  0.15380  0.55484  1.0000
  C   C1022     1.0  0.47844  0.47384  0.66269  1.0000
  H   H1811     1.0  0.47801  0.42217  0.56186  1.0000
  H   H1812     1.0  0.63136  0.22421  0.71389  1.0000
  H   H1813     1.0  0.51813  0.06100  0.55856  1.0000
  H   H1814     1.0  0.64605  0.46360  0.61822  1.0000
  H   H1815     1.0  0.59524  0.16586  0.68884  1.0000
  H   H1816     1.0  0.51495  0.44283  0.53782  1.0000
  C   C1023     1.0  0.58567  0.19650  0.68761  1.0000
  H   H1817     1.0  0.61681  0.32161  0.60005  1.0000
  H   H1818     1.0  0.53257  0.35248  0.68743  1.0000
  C   C1024     1.0  0.33983  0.40973  0.65979  1.0000
  H   H1819     1.0  0.56572  0.34017  0.68803  1.0000
  H   H1820     1.0  0.40960  0.40171  0.59392  1.0000
  C   C1025     1.0  0.54813  0.42600  0.67832  1.0000
  H   H1821     1.0  0.40951  0.42679  0.71694  1.0000
  C   C1026     1.0  0.46639  0.48509  0.68537  1.0000
  H   H1822     1.0  0.57015  0.43408  0.57823  1.0000
  C   C1027     1.0  0.32892  0.31029  0.60437  1.0000
  H   H1823     1.0  0.43873  0.04101  0.55210  1.0000
  H   H1824     1.0  0.37114  0.40622  0.70234  1.0000
  H   H1825     1.0  0.50663  0.36721  0.68662  1.0000
  H   H1826     1.0  0.36506  0.11238  0.53783  1.0000
  H   H1827     1.0  0.55014  0.14586  0.69097  1.0000
  C   C1028     1.0  0.57005  0.35993  0.68935  1.0000
  H   H1828     1.0  0.62776  0.25466  0.70044  1.0000
  C   C1029     1.0  0.55804  0.15095  0.68035  1.0000
  H   H1829     1.0  0.36253  0.35866  0.60797  1.0000
  C   C1030     1.0  0.51573  0.38771  0.68688  1.0000
  H   H1830     1.0  0.61347  0.03579  0.64235  1.0000
  H   H1831     1.0  0.47873  0.04178  0.54812  1.0000
  C   C1031     1.0  0.31920  0.28235  0.60243  1.0000
  H   H1832     1.0  0.39152  0.11970  0.52737  1.0000
  H   H1833     1.0  0.36197  0.36623  0.54346  1.0000
  C   C1032     1.0  0.37204  0.10589  0.52872  1.0000
  C   C1033     1.0  0.33822  0.42510  0.70590  1.0000
  H   H1834     1.0  0.49170  0.39609  0.67254  1.0000
  C   C1034     1.0  0.50816  0.36237  0.65893  1.0000
  H   H1835     1.0  0.61410  0.32020  0.61901  1.0000
  H   H1836     1.0  0.58635  0.44601  0.56212  1.0000
  C   C1035     1.0  0.54910  0.05861  0.56795  1.0000
  H   H1837     1.0  0.50884  0.34910  0.66639  1.0000
  H   H1838     1.0  0.34235  0.31919  0.58341  1.0000
  H   H1839     1.0  0.57098  0.19179  0.69530  1.0000
  H   H1840     1.0  0.58804  0.37139  0.68461  1.0000
  Fe  Fe122     1.0  0.63394  0.33640  0.66503  1.0000
  C   C1036     1.0  0.62559  0.06855  0.58768  1.0000
  H   H1841     1.0  0.49749  0.40920  0.55625  1.0000
  H   H1842     1.0  0.62988  0.20264  0.68004  1.0000
  C   C1037     1.0  0.34755  0.36519  0.55068  1.0000
  N   N51       1.0  0.35794  0.44452  0.69737  1.0000
  C   C1038     1.0  0.48822  0.42005  0.55285  1.0000
  C   C1039     1.0  0.49561  0.39580  0.68407  1.0000
  C   C1040     1.0  0.57815  0.46857  0.67021  1.0000
  N   N52       1.0  0.53702  0.39806  0.67712  1.0000
  C   C1041     1.0  0.55655  0.39159  0.68241  1.0000
  C   C1042     1.0  0.52934  0.38927  0.66176  1.0000
  C   C1043     1.0  0.33278  0.35660  0.57589  1.0000
  H   H1843     1.0  0.62418  0.22620  0.67293  1.0000
  H   H1844     1.0  0.38610  0.45097  0.71352  1.0000
  H   H1845     1.0  0.40566  0.42581  0.60303  1.0000
  H   H1846     1.0  0.57306  0.40028  0.67594  1.0000
  H   H1847     1.0  0.54552  0.39120  0.65588  1.0000
  C   C1044     1.0  0.33020  0.47505  0.73546  1.0000
  H   H1848     1.0  0.52666  0.48677  0.53110  1.0000
  H   H1849     1.0  0.58683  0.43897  0.67274  1.0000
  H   H1850     1.0  0.52561  0.35049  0.64274  1.0000
  H   H1851     1.0  0.56387  0.47159  0.58079  1.0000
  H   H1852     1.0  0.47465  0.37838  0.70255  1.0000
  C   C1045     1.0  0.64599  0.32331  0.72593  1.0000
  C   C1046     1.0  0.60953  0.23975  0.69652  1.0000
  N   N53       1.0  0.50289  0.15126  0.60911  1.0000
  C   C1047     1.0  0.47931  0.14987  0.60304  1.0000
  C   C1048     1.0  0.52156  0.17792  0.61302  1.0000
  C   C1049     1.0  0.51341  0.14171  0.59763  1.0000
  C   C1050     1.0  0.49841  0.13519  0.62169  1.0000
  C   C1051     1.0  0.48655  0.14115  0.63451  1.0000
  C   C1052     1.0  0.45868  0.12367  0.59815  1.0000
  C   C1053     1.0  0.53913  0.14380  0.60117  1.0000
  C   C1054     1.0  0.51167  0.19584  0.61815  1.0000
  C   C1055     1.0  0.53263  0.22077  0.62369  1.0000
  C   C1056     1.0  0.48051  0.12198  0.64586  1.0000
  C   C1057     1.0  0.43525  0.12460  0.59335  1.0000
  C   C1058     1.0  0.54910  0.13666  0.58812  1.0000
  H   H1853     1.0  0.48338  0.16181  0.59371  1.0000
  H   H1854     1.0  0.47104  0.15748  0.61078  1.0000
  H   H1855     1.0  0.53517  0.17858  0.62126  1.0000
  H   H1856     1.0  0.53261  0.18693  0.60368  1.0000
  H   H1857     1.0  0.51463  0.15148  0.58762  1.0000
  H   H1858     1.0  0.50111  0.12171  0.59499  1.0000
  H   H1859     1.0  0.48718  0.11525  0.61836  1.0000
  H   H1860     1.0  0.51600  0.13661  0.62593  1.0000
  H   H1861     1.0  0.46918  0.14124  0.63131  1.0000
  H   H1862     1.0  0.49963  0.15939  0.63960  1.0000
  H   H1863     1.0  0.46435  0.11603  0.58899  1.0000
  H   H1864     1.0  0.45378  0.11058  0.60687  1.0000
  H   H1865     1.0  0.53787  0.13105  0.60962  1.0000
  H   H1866     1.0  0.55289  0.16282  0.60485  1.0000
  H   H1867     1.0  0.50209  0.19958  0.60913  1.0000
  H   H1868     1.0  0.49853  0.18819  0.62672  1.0000
  H   H1869     1.0  0.54221  0.21836  0.63318  1.0000
  H   H1870     1.0  0.54618  0.22948  0.61536  1.0000
  H   H1871     1.0  0.52517  0.23351  0.62681  1.0000
  H   H1872     1.0  0.47187  0.12661  0.65487  1.0000
  H   H1873     1.0  0.46743  0.10315  0.64143  1.0000
  H   H1874     1.0  0.49751  0.12192  0.65002  1.0000
  H   H1875     1.0  0.43877  0.13678  0.58422  1.0000
  H   H1876     1.0  0.42080  0.10567  0.58993  1.0000
  H   H1877     1.0  0.42817  0.13147  0.60222  1.0000
  H   H1878     1.0  0.56684  0.13705  0.59113  1.0000
  H   H1879     1.0  0.53596  0.11765  0.58398  1.0000
  H   H1880     1.0  0.55236  0.14995  0.57962  1.0000
  H   H1881     1.0  0.35906  0.41712  0.65640  1.0000
  H   H1882     1.0  0.35161  0.11677  0.48922  1.0000
  C   C1059     1.0  0.32915  0.08582  0.51701  1.0000
  H   H1883     1.0  0.46372  0.35964  0.68608  1.0000
  H   H1884     1.0  0.50136  0.45601  0.69060  1.0000
  H   H1885     1.0  0.61599  0.04444  0.62410  1.0000
  H   H1886     1.0  0.36425  0.09588  0.50658  1.0000
  H   H1887     1.0  0.59848  0.46274  0.57897  1.0000
  H   H1888     1.0  0.63708  0.43901  0.60477  1.0000
  H   H1889     1.0  0.53432  0.43182  0.67504  1.0000
  H   H1890     1.0  0.47821  0.05525  0.56503  1.0000
  H   H1891     1.0  0.45891  0.01339  0.68568  1.0000
  H   H1892     1.0  0.56287  0.47195  0.66628  1.0000
  H   H1893     1.0  0.47801  0.47363  0.65120  1.0000
  H   H1894     1.0  0.57260  0.22443  0.70556  1.0000
  H   H1895     1.0  0.61856  0.35980  0.61116  1.0000
  H   H1896     1.0  0.34735  0.40071  0.68053  1.0000
  C   C1060     1.0  0.62929  0.22010  0.68296  1.0000
  C   C1061     1.0  0.62684  0.32954  0.61042  1.0000
  H   H1897     1.0  0.52696  0.01257  0.57854  1.0000
  H   H1898     1.0  0.63808  0.36385  0.63428  1.0000
  C   C1062     1.0  0.46916  0.40463  0.54107  1.0000
  C   C1063     1.0  0.37148  0.39236  0.59764  1.0000
  H   H1899     1.0  0.56281  0.39928  0.69351  1.0000
  C   C1064     1.0  0.54980  0.36380  0.68199  1.0000
  C   C1065     1.0  0.63107  0.01034  0.61391  1.0000
  H   H1900     1.0  0.51760  0.05954  0.57720  1.0000
  H   H1901     1.0  0.40210  0.39914  0.61245  1.0000
  H   H1902     1.0  0.52324  0.40152  0.65631  1.0000
  C   C1066     1.0  0.39885  0.40547  0.60205  1.0000
  H   H1903     1.0  0.37129  0.37376  0.56923  1.0000
  H   H1904     1.0  0.55353  0.43286  0.68961  1.0000
  H   H1905     1.0  0.59405  0.01350  0.62864  1.0000
  H   H1906     1.0  0.53204  0.47833  0.57961  1.0000
  C   C1067     1.0  0.36122  0.36382  0.59687  1.0000
  H   H1907     1.0  0.33119  0.42007  0.65469  1.0000
  H   H1908     1.0  0.32948  0.35064  0.54622  1.0000
  H   H1909     1.0  0.49549  0.45459  0.54412  1.0000
  H   H1910     1.0  0.57684  0.26390  0.71552  1.0000
  C   C1068     1.0  0.54254  0.44991  0.56153  1.0000
  C   C1069     1.0  0.35684  0.10305  0.51508  1.0000
  C   C1070     1.0  0.61276  0.02905  0.63118  1.0000
  C   C1071     1.0  0.35289  0.35892  0.56553  1.0000
  H   H1911     1.0  0.32711  0.06868  0.52202  1.0000
  C   C1072     1.0  0.47091  0.03743  0.55871  1.0000
  N   N54       1.0  0.52703  0.46252  0.55825  1.0000
  H   H1912     1.0  0.38723  0.42129  0.68672  1.0000
  H   H1913     1.0  0.34754  0.38336  0.55102  1.0000
  H   H1914     1.0  0.58332  0.47593  0.68138  1.0000
  H   H1915     1.0  0.63068  0.39847  0.62819  1.0000
  H   H1916     1.0  0.63932  0.32902  0.71676  1.0000
  N   N55       1.0  0.61031  0.21562  0.69395  1.0000
  Fe  Fe123     1.0  0.32792  0.03055  0.56986  1.0000
  S   S246      1.0  0.63621  0.31521  0.64579  1.0000
  C   C1073     1.0  0.58932  0.26383  0.70725  1.0000
  H   H1917     1.0  0.60543  0.24610  0.68627  1.0000
  C   C1074     1.0  0.44305  0.02697  0.55681  1.0000
  H   H1918     1.0  0.47245  0.02046  0.57781  1.0000
  C   C1075     1.0  0.60758  0.18867  0.73160  1.0000
  C   C1076     1.0  0.56720  0.46580  0.57018  1.0000
  C   C1077     1.0  0.35908  0.46920  0.70133  1.0000
  H   H1919     1.0  0.58475  0.09133  0.56866  1.0000
  C   C1078     1.0  0.31804  0.35333  0.60006  1.0000
  H   H1920     1.0  0.63052  0.02386  0.60645  1.0000
  C   C1079     1.0  0.47749  0.01921  0.56660  1.0000
  N   N56       1.0  0.33532  0.34898  0.59071  1.0000
  C   C1080     1.0  0.50616  0.02147  0.53872  1.0000
  C   C1081     1.0  0.35298  0.43949  0.68149  1.0000
  H   H1921     1.0  0.51033  0.02370  0.58903  1.0000
  H   H1922     1.0  0.59228  0.17453  0.67112  1.0000
  H   H1923     1.0  0.55395  0.05076  0.55853  1.0000
  H   H1924     1.0  0.57513  0.00021  0.58745  1.0000
  H   H1925     1.0  0.32108  0.37268  0.59923  1.0000
  C   C1082     1.0  0.63535  0.35737  0.61146  1.0000
  H   H1926     1.0  0.42603  0.44378  0.70191  1.0000
  H   H1927     1.0  0.54759  0.19689  0.73351  1.0000
  H   H1928     1.0  0.41321  0.41058  0.70169  1.0000
  C   C1083     1.0  0.41021  0.42642  0.70517  1.0000
  H   H1929     1.0  0.62784  0.19687  0.70484  1.0000
  C   C1084     1.0  0.33933  0.41191  0.67598  1.0000
  H   H1930     1.0  0.61268  0.99379  0.61248  1.0000
  H   H1931     1.0  0.35387  0.34135  0.56452  1.0000
  H   H1932     1.0  0.62024  0.18057  0.73019  1.0000
  C   C1085     1.0  0.50782  0.01121  0.55330  1.0000
  H   H1933     1.0  0.33149  0.27824  0.59569  1.0000
  H   H1934     1.0  0.51236  0.00251  0.66241  1.0000
  C   C1086     1.0  0.50047  0.99846  0.67130  1.0000
  H   H1935     1.0  0.47970  0.47497  0.70407  1.0000
  H   H1936     1.0  0.37677  0.48880  0.68204  1.0000
  H   H1937     1.0  0.34207  0.15209  0.49147  1.0000
  H   H1938     1.0  0.43512  0.01013  0.54959  1.0000
  H   H1939     1.0  0.46469  0.99998  0.56253  1.0000
  H   H1940     1.0  0.65045  0.03675  0.63216  1.0000
  C   C1087     1.0  0.63909  0.44334  0.61641  1.0000
  C   C1088     1.0  0.49149  0.46391  0.68488  1.0000
  H   H1941     1.0  0.59420  0.47882  0.66356  1.0000
  H   H1942     1.0  0.43426  0.02217  0.56723  1.0000
  H   H1943     1.0  0.53496  0.01566  0.52897  1.0000
  H   H1944     1.0  0.51319  0.01744  0.51656  1.0000
  H   H1945     1.0  0.52591  0.01130  0.55434  1.0000
  C   C1089     1.0  0.64808  0.99638  0.59454  1.0000
  H   H1946     1.0  0.31980  0.04810  0.49955  1.0000
  H   H1947     1.0  0.32209  0.35186  0.61148  1.0000
  H   H1948     1.0  0.32749  0.32494  0.48702  1.0000
  C   C1090     1.0  0.51522  0.01035  0.52697  1.0000
  H   H1949     1.0  0.33703  0.99167  0.64039  1.0000
  H   H1950     1.0  0.58113  0.29540  0.73527  1.0000
  S   S247      1.0  0.33777  0.06101  0.93023  1.0000
  C   C1091     1.0  0.53559  0.38466  0.89583  1.0000
  Fe  Fe124     1.0  0.33730  0.03477  0.91283  1.0000
  S   S248      1.0  0.37237  0.03017  0.91100  1.0000
  C   C1092     1.0  0.42963  0.42423  0.84493  1.0000
  Fe  Fe125     1.0  0.34087  0.28715  0.90631  1.0000
  C   C1093     1.0  0.47941  0.39714  0.80222  1.0000
  S   S249      1.0  0.37062  0.30500  0.88950  1.0000
  H   H1951     1.0  0.49301  0.99181  0.77076  1.0000
  S   S250      1.0  0.34324  0.26967  0.92688  1.0000
  Fe  Fe126     1.0  0.49583  0.06607  0.86139  1.0000
  S   S251      1.0  0.51201  0.08623  0.84140  1.0000
  S   S252      1.0  0.45652  0.06078  0.86492  1.0000
  Fe  Fe127     1.0  0.54360  0.06233  0.86853  1.0000
  S   S253      1.0  0.56240  0.08232  0.84919  1.0000
  S   S254      1.0  0.56022  0.04805  0.88588  1.0000
  Fe  Fe128     1.0  0.54723  0.10868  0.85424  1.0000
  S   S255      1.0  0.56900  0.15129  0.85620  1.0000
  Fe  Fe129     1.0  0.52573  0.05832  0.83754  1.0000
  S   S256      1.0  0.52610  0.04351  0.81490  1.0000
  S   S257      1.0  0.53045  0.09011  0.87453  1.0000
  S   S258      1.0  0.50761  0.03669  0.85661  1.0000
  Fe  Fe130     1.0  0.51467  0.45486  0.84093  1.0000
  S   S259      1.0  0.52001  0.46284  0.86471  1.0000
  S   S260      1.0  0.49534  0.47376  0.82910  1.0000
  Fe  Fe131     1.0  0.53712  0.41909  0.84238  1.0000
  S   S261      1.0  0.54363  0.42478  0.86608  1.0000
  S   S262      1.0  0.54442  0.39264  0.82786  1.0000
  Fe  Fe132     1.0  0.50534  0.42143  0.86650  1.0000
  S   S263      1.0  0.47728  0.39993  0.88339  1.0000
  Fe  Fe133     1.0  0.55759  0.46563  0.86247  1.0000
  S   S264      1.0  0.49816  0.41352  0.84298  1.0000
  S   S265      1.0  0.55291  0.45985  0.83852  1.0000
  C   C1094     1.0  0.35288  0.19869  0.94737  1.0000
  S   S266      1.0  0.61549  0.29591  0.80420  1.0000
  S   S267      1.0  0.36689  0.46217  0.74345  1.0000
  Fe  Fe134     1.0  0.63223  0.32607  0.82145  1.0000
  S   S268      1.0  0.61382  0.34182  0.83679  1.0000
  H   H1952     1.0  0.57547  0.10088  0.90038  1.0000
  S   S269      1.0  0.48475  0.49113  0.76309  1.0000
  H   H1953     1.0  0.55360  0.29235  0.85887  1.0000
  C   C1095     1.0  0.58650  0.26942  0.74827  1.0000
  H   H1954     1.0  0.55462  0.31195  0.84474  1.0000
  H   H1955     1.0  0.39356  0.45180  0.80534  1.0000
  H   H1956     1.0  0.36988  0.00278  0.93866  1.0000
  H   H1957     1.0  0.45773  0.02085  0.80901  1.0000
  H   H1958     1.0  0.37868  0.04046  0.95047  1.0000
  H   H1959     1.0  0.40222  0.41891  0.79555  1.0000
  H   H1960     1.0  0.63032  0.23481  0.78159  1.0000
  C   C1096     1.0  0.56484  0.37979  0.83040  1.0000
  C   C1097     1.0  0.57761  0.38242  0.84337  1.0000
  C   C1098     1.0  0.59236  0.37056  0.84512  1.0000
  C   C1099     1.0  0.59511  0.35650  0.83385  1.0000
  C   C1100     1.0  0.58270  0.35425  0.82082  1.0000
  C   C1101     1.0  0.56751  0.36564  0.81917  1.0000
  H   H1961     1.0  0.57579  0.39324  0.85211  1.0000
  H   H1962     1.0  0.60180  0.37238  0.85527  1.0000
  H   H1963     1.0  0.58455  0.34349  0.81205  1.0000
  H   H1964     1.0  0.55774  0.36347  0.80909  1.0000
  C   C1102     1.0  0.50544  0.01574  0.80517  1.0000
  H   H1965     1.0  0.49204  0.30990  0.88061  1.0000
  H   H1966     1.0  0.35581  0.35963  0.80580  1.0000
  C   C1103     1.0  0.63239  0.15323  0.90106  1.0000
  C   C1104     1.0  0.62289  0.13417  0.86885  1.0000
  C   C1105     1.0  0.58338  0.17484  0.84370  1.0000
  C   C1106     1.0  0.58663  0.16950  0.82960  1.0000
  C   C1107     1.0  0.59909  0.18893  0.82032  1.0000
  C   C1108     1.0  0.60827  0.21396  0.82493  1.0000
  C   C1109     1.0  0.60468  0.21929  0.83896  1.0000
  C   C1110     1.0  0.59247  0.19987  0.84828  1.0000
  H   H1967     1.0  0.57986  0.15042  0.82589  1.0000
  H   H1968     1.0  0.60177  0.18452  0.80952  1.0000
  H   H1969     1.0  0.61161  0.23837  0.84270  1.0000
  H   H1970     1.0  0.59007  0.20429  0.85914  1.0000
  H   H1971     1.0  0.64071  0.39776  0.83439  1.0000
  H   H1972     1.0  0.54146  0.99886  0.77592  1.0000
  C   C1111     1.0  0.60863  0.06006  0.87952  1.0000
  C   C1112     1.0  0.58924  0.04840  0.88863  1.0000
  C   C1113     1.0  0.59331  0.03769  0.90080  1.0000
  C   C1114     1.0  0.61648  0.03904  0.90400  1.0000
  H   H1973     1.0  0.60573  0.06793  0.87000  1.0000
  H   H1974     1.0  0.57848  0.02850  0.90793  1.0000
  H   H1975     1.0  0.37793  0.39816  0.82104  1.0000
  C   C1115     1.0  0.50540  0.47243  0.80042  1.0000
  C   C1116     1.0  0.40013  0.33183  0.88804  1.0000
  C   C1117     1.0  0.41312  0.34785  0.89968  1.0000
  C   C1118     1.0  0.43651  0.36844  0.89800  1.0000
  C   C1119     1.0  0.44739  0.37364  0.88466  1.0000
  C   C1120     1.0  0.43438  0.35769  0.87298  1.0000
  C   C1121     1.0  0.41107  0.33696  0.87469  1.0000
  H   H1976     1.0  0.40520  0.34431  0.91003  1.0000
  H   H1977     1.0  0.44625  0.38050  0.90715  1.0000
  H   H1978     1.0  0.44232  0.36127  0.86266  1.0000
  H   H1979     1.0  0.40136  0.32476  0.86558  1.0000
  C   C1122     1.0  0.39582  0.03938  0.89814  1.0000
  C   C1123     1.0  0.39409  0.04934  0.88521  1.0000
  C   C1124     1.0  0.41286  0.05584  0.87531  1.0000
  C   C1125     1.0  0.43381  0.05273  0.87815  1.0000
  C   C1126     1.0  0.43560  0.04285  0.89111  1.0000
  C   C1127     1.0  0.41672  0.03616  0.90096  1.0000
  H   H1980     1.0  0.37824  0.05197  0.88279  1.0000
  H   H1981     1.0  0.41118  0.06349  0.86538  1.0000
  H   H1982     1.0  0.45146  0.04024  0.89351  1.0000
  H   H1983     1.0  0.41840  0.02851  0.91089  1.0000
  H   H1984     1.0  0.36317  0.34262  0.81887  1.0000
  H   H1985     1.0  0.44241  0.41091  0.79695  1.0000
  H   H1986     1.0  0.32368  0.16147  0.94479  1.0000
  H   H1987     1.0  0.35220  0.05495  0.97326  1.0000
  C   C1128     1.0  0.36093  0.12145  0.94771  1.0000
  C   C1129     1.0  0.52499  0.35338  0.87512  1.0000
  C   C1130     1.0  0.38916  0.13572  0.94593  1.0000
  H   H1988     1.0  0.61774  0.20713  0.73724  1.0000
  C   C1131     1.0  0.54199  0.18728  0.74366  1.0000
  C   C1132     1.0  0.58518  0.15865  0.90013  1.0000
  H   H1989     1.0  0.37961  0.14950  0.97218  1.0000
  H   H1990     1.0  0.35933  0.15851  0.93823  1.0000
  C   C1133     1.0  0.48732  0.99533  0.81173  1.0000
  C   C1134     1.0  0.42507  0.43312  0.81554  1.0000
  H   H1991     1.0  0.61965  0.40433  0.81332  1.0000
  H   H1992     1.0  0.54902  0.17360  0.74444  1.0000
  H   H1993     1.0  0.31832  0.34250  0.93698  1.0000
  H   H1994     1.0  0.33946  0.20605  0.94765  1.0000
  H   H1995     1.0  0.57471  0.25341  0.74096  1.0000
  H   H1996     1.0  0.35942  0.20003  0.93639  1.0000
  H   H1997     1.0  0.55822  0.16180  0.88608  1.0000
  C   C1135     1.0  0.50750  0.01411  0.79037  1.0000
  H   H1998     1.0  0.54468  0.19545  0.76605  1.0000
  Fe  Fe135     1.0  0.63879  0.27988  0.81353  1.0000
  H   H1999     1.0  0.64502  0.43499  0.84168  1.0000
  H   H2000     1.0  0.62133  0.11478  0.92011  1.0000
  H   H2001     1.0  0.34636  0.03106  0.95027  1.0000
  H   H2002     1.0  0.37412  0.01808  0.85587  1.0000
  H   H2003     1.0  0.39483  0.15393  0.94122  1.0000
  C   C1136     1.0  0.34882  0.14896  0.98238  1.0000
  C   C1137     1.0  0.34048  0.17177  0.95174  1.0000
  H   H2004     1.0  0.59468  0.27844  0.77094  1.0000
  C   C1138     1.0  0.63466  0.40419  0.80708  1.0000
  S   S270      1.0  0.62454  0.23763  0.81279  1.0000
  H   H2005     1.0  0.45828  0.42206  0.83407  1.0000
  H   H2006     1.0  0.36870  0.21035  0.95479  1.0000
  H   H2007     1.0  0.40951  0.41734  0.84453  1.0000
  C   C1139     1.0  0.58010  0.21970  0.75725  1.0000
  H   H2008     1.0  0.52158  0.02970  0.78519  1.0000
  H   H2009     1.0  0.61927  0.03090  0.91347  1.0000
  H   H2010     1.0  0.65053  0.42558  0.85875  1.0000
  H   H2011     1.0  0.32692  0.20987  0.86174  1.0000
  H   H2012     1.0  0.35613  0.16903  0.98067  1.0000
  H   H2013     1.0  0.32534  0.22219  0.87907  1.0000
  H   H2014     1.0  0.61865  0.10301  0.85510  1.0000
  H   H2015     1.0  0.58949  0.30573  0.75360  1.0000
  H   H2016     1.0  0.43310  0.39254  0.83664  1.0000
  H   H2017     1.0  0.48916  0.06335  0.80373  1.0000
  H   H2018     1.0  0.64951  0.35096  0.86333  1.0000
  C   C1140     1.0  0.59339  0.11510  0.90540  1.0000
  C   C1141     1.0  0.60568  0.10146  0.91310  1.0000
  C   C1142     1.0  0.58766  0.08184  0.92263  1.0000
  H   H2019     1.0  0.39927  0.13881  0.95632  1.0000
  C   C1143     1.0  0.61962  0.25409  0.76549  1.0000
  C   C1144     1.0  0.39745  0.12103  0.93604  1.0000
  H   H2020     1.0  0.60567  0.27720  0.74490  1.0000
  Fe  Fe136     1.0  0.31914  0.28511  0.93600  1.0000
  H   H2021     1.0  0.45284  0.01963  0.84993  1.0000
  H   H2022     1.0  0.59682  0.07206  0.92782  1.0000
  S   S271      1.0  0.31912  0.30460  0.91593  1.0000
  H   H2023     1.0  0.51635  0.46365  0.80354  1.0000
  C   C1145     1.0  0.36271  0.03552  0.95725  1.0000
  H   H2024     1.0  0.46730  0.33588  0.87888  1.0000
  H   H2025     1.0  0.32951  0.99232  0.94234  1.0000
  H   H2026     1.0  0.45746  0.42721  0.86081  1.0000
  H   H2027     1.0  0.35646  0.11927  0.97520  1.0000
  H   H2028     1.0  0.57136  0.06789  0.91626  1.0000
  C   C1146     1.0  0.44402  0.00361  0.84212  1.0000
  H   H2029     1.0  0.62985  0.15748  0.91230  1.0000
  H   H2030     1.0  0.62998  0.38471  0.80408  1.0000
  H   H2031     1.0  0.33653  0.19669  0.90932  1.0000
  C   C1147     1.0  0.53434  0.31374  0.86305  1.0000
  C   C1148     1.0  0.44818  0.41171  0.80832  1.0000
  H   H2032     1.0  0.59372  0.10306  0.87854  1.0000
  H   H2033     1.0  0.52822  0.39460  0.90262  1.0000
  H   H2034     1.0  0.58146  0.09053  0.93102  1.0000
  C   C1149     1.0  0.38244  0.38283  0.82259  1.0000
  H   H2035     1.0  0.62496  0.22073  0.76396  1.0000
  H   H2036     1.0  0.32907  0.33998  0.98087  1.0000
  C   C1150     1.0  0.63337  0.12147  0.85902  1.0000
  N   N57       1.0  0.60832  0.13323  0.89450  1.0000
  H   H2037     1.0  0.45815  0.38720  0.82083  1.0000
  H   H2038     1.0  0.38527  0.38114  0.83409  1.0000
  H   H2039     1.0  0.40090  0.38449  0.80296  1.0000
  H   H2040     1.0  0.41763  0.13154  0.93484  1.0000
  H   H2041     1.0  0.60834  0.13608  0.86263  1.0000
  C   C1151     1.0  0.63248  0.23865  0.77013  1.0000
  H   H2042     1.0  0.52158  0.17709  0.74354  1.0000
  H   H2043     1.0  0.62315  0.11025  0.88541  1.0000
  C   C1152     1.0  0.33592  0.45714  0.74083  1.0000
  H   H2044     1.0  0.56460  0.25510  0.76629  1.0000
  H   H2045     1.0  0.44707  0.04691  0.83462  1.0000
  H   H2046     1.0  0.47770  0.40065  0.79084  1.0000
  C   C1153     1.0  0.43784  0.41153  0.83326  1.0000
  C   C1154     1.0  0.58740  0.23516  0.78260  1.0000
  C   C1155     1.0  0.56397  0.23400  0.78912  1.0000
  C   C1156     1.0  0.55983  0.22296  0.80379  1.0000
  H   H2047     1.0  0.58729  0.21711  0.78418  1.0000
  H   H2048     1.0  0.60279  0.24887  0.78966  1.0000
  C   C1157     1.0  0.47213  0.06015  0.80912  1.0000
  H   H2049     1.0  0.56607  0.25302  0.79055  1.0000
  H   H2050     1.0  0.54722  0.22287  0.78235  1.0000
  H   H2051     1.0  0.55824  0.20408  0.80321  1.0000
  H   H2052     1.0  0.57528  0.23496  0.81135  1.0000
  H   H2053     1.0  0.54261  0.22168  0.80800  1.0000
  C   C1158     1.0  0.49879  0.35005  0.85416  1.0000
  C   C1159     1.0  0.52052  0.32551  0.85490  1.0000
  C   C1160     1.0  0.48564  0.31446  0.87048  1.0000
  H   H2054     1.0  0.38821  0.11788  0.92533  1.0000
  C   C1161     1.0  0.48423  0.33555  0.84033  1.0000
  H   H2055     1.0  0.51507  0.36705  0.85084  1.0000
  C   C1162     1.0  0.47158  0.34860  0.83286  1.0000
  C   C1163     1.0  0.54275  0.29955  0.85286  1.0000
  H   H2056     1.0  0.47778  0.03750  0.82416  1.0000
  H   H2057     1.0  0.35727  0.10376  0.95256  1.0000
  H   H2058     1.0  0.53427  0.34030  0.84846  1.0000
  H   H2059     1.0  0.50760  0.31100  0.84705  1.0000
  H   H2060     1.0  0.47868  0.29718  0.86361  1.0000
  H   H2061     1.0  0.57649  0.13114  0.88300  1.0000
  H   H2062     1.0  0.49701  0.33409  0.83268  1.0000
  H   H2063     1.0  0.47012  0.31651  0.84255  1.0000
  C   C1164     1.0  0.35998  0.35885  0.81727  1.0000
  H   H2064     1.0  0.42845  0.30009  0.88457  1.0000
  H   H2065     1.0  0.54239  0.37462  0.90281  1.0000
  H   H2066     1.0  0.48563  0.36648  0.82896  1.0000
  H   H2067     1.0  0.46029  0.33696  0.82353  1.0000
  H   H2068     1.0  0.45939  0.35189  0.84014  1.0000
  H   H2069     1.0  0.52668  0.28363  0.84742  1.0000
  H   H2070     1.0  0.42794  0.03637  0.81904  1.0000
  H   H2071     1.0  0.47656  0.07621  0.81660  1.0000
  H   H2072     1.0  0.41106  0.43364  0.82249  1.0000
  H   H2073     1.0  0.61234  0.09205  0.90552  1.0000
  H   H2074     1.0  0.44234  0.45024  0.81871  1.0000
  H   H2075     1.0  0.40861  0.37067  0.81705  1.0000
  H   H2076     1.0  0.53198  0.34353  0.88211  1.0000
  H   H2077     1.0  0.37091  0.07401  0.95960  1.0000
  H   H2078     1.0  0.42549  0.47453  0.80399  1.0000
  H   H2079     1.0  0.49489  0.41388  0.80749  1.0000
  C   C1165     1.0  0.46252  0.03614  0.81707  1.0000
  H   H2080     1.0  0.62411  0.25834  0.75422  1.0000
  H   H2081     1.0  0.40680  0.45941  0.78816  1.0000
  H   H2082     1.0  0.35206  0.11624  0.93687  1.0000
  H   H2083     1.0  0.48768  0.35725  0.85980  1.0000
  C   C1166     1.0  0.55166  0.20601  0.75633  1.0000
  S   S272      1.0  0.64068  0.32692  0.76895  1.0000
  C   C1167     1.0  0.57837  0.28929  0.74637  1.0000
  H   H2084     1.0  0.57034  0.14499  0.90650  1.0000
  H   H2085     1.0  0.63768  0.15310  0.87183  1.0000
  C   C1168     1.0  0.46260  0.31778  0.87354  1.0000
  H   H2086     1.0  0.56900  0.18347  0.90121  1.0000
  C   C1169     1.0  0.39247  0.02096  0.83593  1.0000
  C   C1170     1.0  0.49134  0.99263  0.78216  1.0000
  C   C1171     1.0  0.32222  0.11927  0.95472  1.0000
  H   H2087     1.0  0.63602  0.41416  0.79719  1.0000
  N   N58       1.0  0.42862  0.41068  0.81806  1.0000
  H   H2088     1.0  0.31892  0.37166  0.94139  1.0000
  H   H2089     1.0  0.43892  0.27893  0.87781  1.0000
  H   H2090     1.0  0.37420  0.01953  0.97417  1.0000
  H   H2091     1.0  0.39311  0.10281  0.94041  1.0000
  H   H2092     1.0  0.43380  0.44139  0.79315  1.0000
  C   C1172     1.0  0.63191  0.06176  0.88282  1.0000
  C   C1173     1.0  0.41791  0.43616  0.80007  1.0000
  C   C1174     1.0  0.44498  0.29759  0.88292  1.0000
  H   H2093     1.0  0.36115  0.02653  0.84099  1.0000
  H   H2094     1.0  0.34375  0.35629  0.82331  1.0000
  H   H2095     1.0  0.50086  0.35277  0.89202  1.0000
  H   H2096     1.0  0.45228  0.31660  0.86348  1.0000
  C   C1175     1.0  0.41050  0.45675  0.79942  1.0000
  C   C1176     1.0  0.50240  0.47615  0.78592  1.0000
  H   H2097     1.0  0.58555  0.20551  0.76038  1.0000
  H   H2098     1.0  0.44088  0.37319  0.80451  1.0000
  H   H2099     1.0  0.62901  0.27226  0.77163  1.0000
  C   C1177     1.0  0.49401  0.47986  0.81077  1.0000
  C   C1178     1.0  0.35800  0.01333  0.96659  1.0000
  H   H2100     1.0  0.46510  0.42975  0.81013  1.0000
  H   H2101     1.0  0.50767  0.37701  0.87961  1.0000
  H   H2102     1.0  0.60384  0.15917  0.88106  1.0000
  C   C1179     1.0  0.51520  0.36648  0.88545  1.0000
  C   C1180     1.0  0.40552  0.38673  0.81459  1.0000
  N   N59       1.0  0.50694  0.33574  0.86383  1.0000
  C   C1181     1.0  0.48780  0.48707  0.78155  1.0000
  H   H2103     1.0  0.52247  0.30075  0.87093  1.0000
  C   C1182     1.0  0.59337  0.14517  0.88893  1.0000
  C   C1183     1.0  0.58411  0.26147  0.76390  1.0000
  H   H2104     1.0  0.64703  0.46417  0.86064  1.0000
  C   C1184     1.0  0.33200  0.15936  0.90998  1.0000
  H   H2105     1.0  0.55118  0.32844  0.86866  1.0000
  N   N60       1.0  0.59213  0.24225  0.76727  1.0000
  H   H2106     1.0  0.48384  0.38154  0.80286  1.0000
  H   H2107     1.0  0.58690  0.22460  0.74634  1.0000
  H   H2108     1.0  0.58856  0.18825  0.88641  1.0000
  C   C1185     1.0  0.45548  0.39070  0.80963  1.0000
  S   S273      1.0  0.32808  0.11267  0.91132  1.0000
  C   C1186     1.0  0.32483  0.17794  0.91237  1.0000
  C   C1187     1.0  0.61174  0.11898  0.88216  1.0000
  H   H2109     1.0  0.34219  0.01058  0.97314  1.0000
  H   H2110     1.0  0.54134  0.36795  0.87001  1.0000
  H   H2111     1.0  0.60080  0.17125  0.90739  1.0000
  H   H2112     1.0  0.55122  0.39860  0.89006  1.0000
  H   H2113     1.0  0.43869  0.44458  0.84361  1.0000
  H   H2114     1.0  0.43199  0.43004  0.86793  1.0000
  H   H2115     1.0  0.33451  0.17147  0.96273  1.0000
  C   C1188     1.0  0.57465  0.17399  0.89299  1.0000
  H   H2116     1.0  0.62983  0.33795  0.74109  1.0000
  H   H2117     1.0  0.41238  0.01335  0.85204  1.0000
  H   H2118     1.0  0.45394  0.29879  0.89350  1.0000
  C   C1189     1.0  0.44018  0.03214  0.82595  1.0000
  H   H2119     1.0  0.34926  0.16406  0.90508  1.0000
  C   C1190     1.0  0.36798  0.05857  0.96651  1.0000
  H   H2120     1.0  0.45827  0.05889  0.80093  1.0000
  C   C1191     1.0  0.43722  0.42006  0.85979  1.0000
  H   H2121     1.0  0.58875  0.12457  0.91412  1.0000
  H   H2122     1.0  0.54377  0.21885  0.75510  1.0000
  H   H2123     1.0  0.63820  0.17099  0.89565  1.0000
  H   H2124     1.0  0.38695  0.01746  0.82449  1.0000
  H   H2125     1.0  0.42788  0.40003  0.86199  1.0000
  H   H2126     1.0  0.38480  0.06429  0.97341  1.0000
  C   C1192     1.0  0.64069  0.32840  0.73976  1.0000
  C   C1193     1.0  0.63607  0.05130  0.89508  1.0000
  H   H2127     1.0  0.64820  0.11922  0.86464  1.0000
  H   H2128     1.0  0.51129  0.47032  0.77801  1.0000
  H   H2129     1.0  0.37639  0.17344  0.95430  1.0000
  H   H2130     1.0  0.32040  0.41993  0.74816  1.0000
  H   H2131     1.0  0.41382  0.99830  0.93432  1.0000
  H   H2132     1.0  0.32846  0.13971  0.98174  1.0000
  H   H2133     1.0  0.55862  0.28193  0.74863  1.0000
  N   N61       1.0  0.34984  0.13478  0.95623  1.0000
  Fe  Fe137     1.0  0.64872  0.31930  0.79167  1.0000
  H   H2134     1.0  0.45845  0.99523  0.86900  1.0000
  H   H2135     1.0  0.35561  0.99495  0.84217  1.0000
  H   H2136     1.0  0.39130  0.01026  0.95327  1.0000
  H   H2137     1.0  0.40505  0.04114  0.83782  1.0000
  C   C1194     1.0  0.64927  0.32125  0.75185  1.0000
  H   H2138     1.0  0.41186  0.00606  0.80293  1.0000
  H   H2139     1.0  0.59242  0.17633  0.73829  1.0000
  C   C1195     1.0  0.36944  0.01467  0.84427  1.0000
  H   H2140     1.0  0.65065  0.12963  0.90442  1.0000
  C   C1196     1.0  0.37359  0.99525  0.94856  1.0000
  S   S274      1.0  0.32572  0.30723  0.95734  1.0000
  C   C1197     1.0  0.35935  0.13751  0.97143  1.0000
  C   C1198     1.0  0.35772  0.15984  0.94999  1.0000
  H   H2141     1.0  0.64112  0.13289  0.84966  1.0000
  H   H2142     1.0  0.64678  0.07113  0.87576  1.0000
  C   C1199     1.0  0.40553  0.00596  0.84093  1.0000
  H   H2143     1.0  0.45933  0.00349  0.83623  1.0000
  H   H2144     1.0  0.48614  0.99597  0.82314  1.0000
  N   N62       1.0  0.42631  0.00700  0.83218  1.0000
  Fe  Fe138     1.0  0.62605  0.93213  0.06337  1.0000
  C   C1200     1.0  0.48701  0.89049  0.16287  1.0000
  S   S275      1.0  0.59093  0.93609  0.06683  1.0000
  H   H2145     1.0  0.48514  0.55612  0.21012  1.0000
  C   C1201     1.0  0.50575  0.90940  0.15330  1.0000
  C   C1202     1.0  0.33771  0.91973  0.09548  1.0000
  S   S276      1.0  0.62719  0.91157  0.04332  1.0000
  C   C1203     1.0  0.33625  0.59633  0.22075  1.0000
  C   C1204     1.0  0.51721  0.95493  0.13563  1.0000
  Fe  Fe139     1.0  0.63767  0.68389  0.06606  1.0000
  H   H2146     1.0  0.49357  0.58459  0.22043  1.0000
  S   S277      1.0  0.60985  0.65928  0.08231  1.0000
  C   C1205     1.0  0.33946  0.96483  0.12427  1.0000
  H   H2147     1.0  0.64417  0.92898  0.99455  1.0000
  S   S278      1.0  0.63273  0.70716  0.04933  1.0000
  H   H2148     1.0  0.47010  0.96820  0.14892  1.0000
  Fe  Fe140     1.0  0.43598  0.90369  0.13684  1.0000
  S   S279      1.0  0.45470  0.92396  0.11757  1.0000
  S   S280      1.0  0.43958  0.91889  0.15975  1.0000
  Fe  Fe141     1.0  0.40947  0.85314  0.12038  1.0000
  S   S281      1.0  0.42676  0.87018  0.09987  1.0000
  S   S282      1.0  0.38100  0.81179  0.11989  1.0000
  Fe  Fe142     1.0  0.46251  0.89198  0.11272  1.0000
  S   S283      1.0  0.50118  0.89533  0.10963  1.0000
  Fe  Fe143     1.0  0.41762  0.90091  0.10607  1.0000
  S   S284      1.0  0.40266  0.91781  0.08934  1.0000
  S   S285      1.0  0.44545  0.87272  0.13281  1.0000
  S   S286      1.0  0.39850  0.88276  0.12571  1.0000
  Fe  Fe144     1.0  0.47184  0.55812  0.10933  1.0000
  S   S287      1.0  0.47672  0.56376  0.13329  1.0000
  S   S288      1.0  0.49599  0.58178  0.09144  1.0000
  Fe  Fe145     1.0  0.42034  0.51113  0.11113  1.0000
  S   S289      1.0  0.42249  0.51395  0.13503  1.0000
  Fe  Fe146     1.0  0.43662  0.55504  0.13304  1.0000
  S   S290      1.0  0.42088  0.57299  0.14866  1.0000
  Fe  Fe147     1.0  0.46200  0.52225  0.13365  1.0000
  N   N63       1.0  0.57364  0.52146  0.19102  1.0000
  S   S291      1.0  0.43262  0.55202  0.10921  1.0000
  S   S292      1.0  0.45912  0.51689  0.10961  1.0000
  H   H2149     1.0  0.33340  0.74293  0.18499  1.0000
  S   S293      1.0  0.35109  0.62313  0.13898  1.0000
  H   H2150     1.0  0.44512  0.52916  0.08059  1.0000
  S   S294      1.0  0.35535  0.72614  0.16416  1.0000
  S   S295      1.0  0.34322  0.66055  0.17336  1.0000
  H   H2151     1.0  0.54294  0.86160  0.98840  1.0000
  C   C1206     1.0  0.54892  0.55375  0.16474  1.0000
  H   H2152     1.0  0.51805  0.98318  0.15683  1.0000
  H   H2153     1.0  0.40427  0.96163  0.11641  1.0000
  H   H2154     1.0  0.56004  0.98094  0.17428  1.0000
  C   C1207     1.0  0.53505  0.98113  0.15712  1.0000
  H   H2155     1.0  0.35427  0.72592  0.23195  1.0000
  H   H2156     1.0  0.60915  0.55500  0.21308  1.0000
  H   H2157     1.0  0.51369  0.93784  0.12941  1.0000
  C   C1208     1.0  0.40203  0.58752  0.14577  1.0000
  C   C1209     1.0  0.39015  0.59166  0.15736  1.0000
  C   C1210     1.0  0.37468  0.60271  0.15556  1.0000
  C   C1211     1.0  0.37099  0.60988  0.14212  1.0000
  C   C1212     1.0  0.38310  0.60602  0.13057  1.0000
  C   C1213     1.0  0.39849  0.59489  0.13237  1.0000
  H   H2158     1.0  0.39286  0.58616  0.16779  1.0000
  H   H2159     1.0  0.36557  0.60559  0.16455  1.0000
  H   H2160     1.0  0.38047  0.61157  0.12014  1.0000
  H   H2161     1.0  0.40774  0.59217  0.12340  1.0000
  C   C1214     1.0  0.45649  0.94894  0.16808  1.0000
  C   C1215     1.0  0.45630  0.95168  0.18295  1.0000
  C   C1216     1.0  0.34252  0.85063  0.07636  1.0000
  H   H2162     1.0  0.44635  0.93547  0.18908  1.0000
  C   C1217     1.0  0.37361  0.78866  0.13271  1.0000
  C   C1218     1.0  0.38731  0.79296  0.14551  1.0000
  C   C1219     1.0  0.38129  0.77368  0.15503  1.0000
  C   C1220     1.0  0.36151  0.74989  0.15192  1.0000
  C   C1221     1.0  0.34755  0.74569  0.13924  1.0000
  C   C1222     1.0  0.35366  0.76491  0.12968  1.0000
  H   H2163     1.0  0.40270  0.81108  0.14800  1.0000
  H   H2164     1.0  0.39218  0.77723  0.16482  1.0000
  H   H2165     1.0  0.33207  0.72764  0.13678  1.0000
  H   H2166     1.0  0.34287  0.76136  0.11984  1.0000
  H   H2167     1.0  0.32437  0.91502  0.10364  1.0000
  H   H2168     1.0  0.52279  0.68119  0.09393  1.0000
  C   C1223     1.0  0.35795  0.91500  0.09745  1.0000
  C   C1224     1.0  0.37572  0.92159  0.08716  1.0000
  C   C1225     1.0  0.37237  0.93206  0.07469  1.0000
  C   C1226     1.0  0.35205  0.93661  0.07268  1.0000
  H   H2169     1.0  0.36002  0.90665  0.10701  1.0000
  H   H2170     1.0  0.38592  0.93719  0.06662  1.0000
  H   H2171     1.0  0.35031  0.94542  0.06324  1.0000
  C   C1227     1.0  0.57794  0.63818  0.08458  1.0000
  C   C1228     1.0  0.55991  0.63109  0.07356  1.0000
  C   C1229     1.0  0.53508  0.61408  0.07593  1.0000
  C   C1230     1.0  0.52771  0.60377  0.08930  1.0000
  C   C1231     1.0  0.54569  0.61114  0.10036  1.0000
  C   C1232     1.0  0.57051  0.62818  0.09800  1.0000
  H   H2172     1.0  0.56513  0.63842  0.06316  1.0000
  H   H2173     1.0  0.52147  0.60865  0.06726  1.0000
  H   H2174     1.0  0.54051  0.60355  0.11071  1.0000
  H   H2175     1.0  0.58414  0.63345  0.10665  1.0000
  C   C1233     1.0  0.56599  0.92409  0.07878  1.0000
  C   C1234     1.0  0.56592  0.91084  0.09069  1.0000
  C   C1235     1.0  0.54599  0.90224  0.09991  1.0000
  C   C1236     1.0  0.52561  0.90645  0.09736  1.0000
  C   C1237     1.0  0.52563  0.91961  0.08541  1.0000
  C   C1238     1.0  0.54568  0.92844  0.07629  1.0000
  H   H2176     1.0  0.58128  0.90730  0.09285  1.0000
  H   H2177     1.0  0.54631  0.89209  0.10906  1.0000
  H   H2178     1.0  0.51024  0.92309  0.08322  1.0000
  H   H2179     1.0  0.54541  0.93868  0.06717  1.0000
  H   H2180     1.0  0.58683  0.94031  0.03429  1.0000
  C   C1239     1.0  0.54455  0.98528  0.17289  1.0000
  S   S296      1.0  0.47939  0.50177  0.14570  1.0000
  C   C1240     1.0  0.54054  0.87445  0.99601  1.0000
  H   H2181     1.0  0.54340  0.51647  0.16454  1.0000
  H   H2182     1.0  0.52539  0.95568  0.10637  1.0000
  C   C1241     1.0  0.36959  0.49832  0.15601  1.0000
  N   N64       1.0  0.59379  0.73061  0.08293  1.0000
  C   C1242     1.0  0.61160  0.72140  0.08746  1.0000
  C   C1243     1.0  0.58710  0.72423  0.06727  1.0000
  C   C1244     1.0  0.60720  0.75858  0.08485  1.0000
  C   C1245     1.0  0.57093  0.72044  0.09157  1.0000
  C   C1246     1.0  0.56211  0.69417  0.09747  1.0000
  H   H2183     1.0  0.59996  0.51465  0.20331  1.0000
  C   C1247     1.0  0.59346  0.77244  0.07905  1.0000
  C   C1248     1.0  0.57329  0.69631  0.06275  1.0000
  C   C1249     1.0  0.56763  0.69250  0.04669  1.0000
  C   C1250     1.0  0.53606  0.68366  0.10281  1.0000
  H   H2184     1.0  0.35549  0.87072  0.07585  1.0000
  H   H2185     1.0  0.55268  0.56945  0.17235  1.0000
  H   H2186     1.0  0.62705  0.72763  0.08007  1.0000
  H   H2187     1.0  0.60289  0.70095  0.08651  1.0000
  H   H2188     1.0  0.57485  0.73180  0.06350  1.0000
  H   H2189     1.0  0.60398  0.73316  0.06099  1.0000
  H   H2190     1.0  0.65089  0.55804  0.19466  1.0000
  H   H2191     1.0  0.61175  0.76433  0.09631  1.0000
  H   H2192     1.0  0.57351  0.73294  0.10102  1.0000
  H   H2193     1.0  0.55533  0.72026  0.08523  1.0000
  H   H2194     1.0  0.57432  0.69506  0.10657  1.0000
  H   H2195     1.0  0.56222  0.68056  0.08951  1.0000
  H   H2196     1.0  0.37807  0.70536  0.21465  1.0000
  H   H2197     1.0  0.61040  0.73192  0.11007  1.0000
  H   H2198     1.0  0.57399  0.76349  0.08210  1.0000
  H   H2199     1.0  0.58635  0.53952  0.17123  1.0000
  H   H2200     1.0  0.58424  0.68683  0.06556  1.0000
  H   H2201     1.0  0.55529  0.68718  0.06779  1.0000
  H   H2202     1.0  0.58469  0.70194  0.04073  1.0000
  H   H2203     1.0  0.55874  0.67238  0.04368  1.0000
  H   H2204     1.0  0.55489  0.69984  0.04351  1.0000
  H   H2205     1.0  0.53063  0.66522  0.10723  1.0000
  H   H2206     1.0  0.53511  0.69612  0.11131  1.0000
  H   H2207     1.0  0.32292  0.79901  0.18776  1.0000
  C   C1251     1.0  0.35613  0.51804  0.13665  1.0000
  H   H2208     1.0  0.56982  0.97554  0.14739  1.0000
  H   H2209     1.0  0.33511  0.78328  0.17658  1.0000
  C   C1252     1.0  0.33241  0.69017  0.10865  1.0000
  H   H2210     1.0  0.61840  0.89645  0.01313  1.0000
  H   H2211     1.0  0.39018  0.97339  0.16772  1.0000
  H   H2212     1.0  0.32361  0.84899  0.05667  1.0000
  C   C1253     1.0  0.63942  0.88491  0.00026  1.0000
  H   H2213     1.0  0.32520  0.69231  0.09814  1.0000
  C   C1254     1.0  0.58004  0.93889  0.13633  1.0000
  H   H2214     1.0  0.58015  0.92857  0.14583  1.0000
  H   H2215     1.0  0.33152  0.53480  0.10858  1.0000
  C   C1255     1.0  0.36908  0.73097  0.20344  1.0000
  H   H2216     1.0  0.59274  0.97176  0.03211  1.0000
  H   H2217     1.0  0.47153  0.51735  0.19671  1.0000
  H   H2218     1.0  0.59394  0.77266  0.06726  1.0000
  C   C1256     1.0  0.38191  0.71488  0.20444  1.0000
  C   C1257     1.0  0.34851  0.50230  0.15004  1.0000
  S   S297      1.0  0.63332  0.85380  0.05181  1.0000
  H   H2219     1.0  0.52891  0.86344  0.00465  1.0000
  H   H2220     1.0  0.33150  0.91383  0.03305  1.0000
  H   H2221     1.0  0.54079  0.92224  0.13412  1.0000
  C   C1258     1.0  0.61209  0.93737  0.01027  1.0000
  C   C1259     1.0  0.55641  0.94117  0.13524  1.0000
  H   H2222     1.0  0.60165  0.87650  0.99788  1.0000
  C   C1260     1.0  0.60121  0.95510  0.01377  1.0000
  H   H2223     1.0  0.38411  0.89732  0.15430  1.0000
  H   H2224     1.0  0.49853  0.95289  0.13733  1.0000
  H   H2225     1.0  0.37489  0.74132  0.19355  1.0000
  H   H2226     1.0  0.37581  0.74474  0.21254  1.0000
  H   H2227     1.0  0.53392  0.52609  0.18034  1.0000
  C   C1261     1.0  0.55444  0.95642  0.14824  1.0000
  C   C1262     1.0  0.37423  0.55350  0.09585  1.0000
  C   C1263     1.0  0.64394  0.79262  0.05245  1.0000
  H   H2228     1.0  0.34198  0.55003  0.14478  1.0000
  C   C1264     1.0  0.32082  0.76559  0.19651  1.0000
  H   H2229     1.0  0.38480  0.54620  0.11629  1.0000
  H   H2230     1.0  0.42969  0.97590  0.15507  1.0000
  H   H2231     1.0  0.57394  0.88422  0.00815  1.0000
  H   H2232     1.0  0.45731  0.53481  0.06309  1.0000
  H   H2233     1.0  0.37561  0.70086  0.19545  1.0000
  H   H2234     1.0  0.42590  0.70241  0.16412  1.0000
  H   H2235     1.0  0.37889  0.57298  0.09880  1.0000
  C   C1265     1.0  0.33474  0.93084  0.08318  1.0000
  H   H2236     1.0  0.58200  0.55820  0.18418  1.0000
  H   H2237     1.0  0.46824  0.97706  0.20147  1.0000
  N   N65       1.0  0.32651  0.72908  0.20623  1.0000
  H   H2238     1.0  0.32759  0.67035  0.10960  1.0000
  H   H2239     1.0  0.46780  0.52317  0.17091  1.0000
  H   H2240     1.0  0.42986  0.55296  0.05669  1.0000
  H   H2241     1.0  0.37138  0.53655  0.14012  1.0000
  C   C1266     1.0  0.36820  0.53802  0.10903  1.0000
  H   H2242     1.0  0.55093  0.56478  0.22541  1.0000
  H   H2243     1.0  0.56305  0.55998  0.15657  1.0000
  H   H2244     1.0  0.34063  0.66329  0.21453  1.0000
  C   C1267     1.0  0.33384  0.94616  0.99116  1.0000
  H   H2245     1.0  0.63199  0.94767  0.01340  1.0000
  H   H2246     1.0  0.35710  0.89360  0.16310  1.0000
  H   H2247     1.0  0.60445  0.92205  0.01767  1.0000
  H   H2248     1.0  0.39810  0.70218  0.17019  1.0000
  H   H2249     1.0  0.55674  0.95034  0.12519  1.0000
  H   H2250     1.0  0.47010  0.89266  0.16312  1.0000
  C   C1268     1.0  0.44054  0.52975  0.06918  1.0000
  Fe  Fe148     1.0  0.32936  0.68428  0.16236  1.0000
  H   H2251     1.0  0.62524  0.76625  0.07966  1.0000
  C   C1269     1.0  0.56545  0.89397  0.00237  1.0000
  C   C1270     1.0  0.51322  0.93617  0.15879  1.0000
  H   H2252     1.0  0.49744  0.90559  0.14237  1.0000
  C   C1271     1.0  0.58202  0.91040  0.99069  1.0000
  C   C1272     1.0  0.59975  0.52771  0.19536  1.0000
  H   H2253     1.0  0.49725  0.53972  0.23066  1.0000
  H   H2254     1.0  0.44870  0.56813  0.07250  1.0000
  C   C1273     1.0  0.33584  0.72467  0.23300  1.0000
  H   H2255     1.0  0.43922  0.68391  0.11353  1.0000
  H   H2256     1.0  0.53247  0.53160  0.22406  1.0000
  C   C1274     1.0  0.48077  0.49755  0.16430  1.0000
  C   C1275     1.0  0.64621  0.83375  0.05565  1.0000
  C   C1276     1.0  0.36082  0.95867  0.12466  1.0000
  C   C1277     1.0  0.55129  0.54706  0.22308  1.0000
  H   H2257     1.0  0.63504  0.86844  0.00663  1.0000
  H   H2258     1.0  0.62555  0.80882  0.08242  1.0000
  H   H2259     1.0  0.33315  0.97990  0.98683  1.0000
  H   H2260     1.0  0.49487  0.89279  0.17389  1.0000
  C   C1278     1.0  0.61605  0.55372  0.20247  1.0000
  H   H2261     1.0  0.41677  0.54613  0.07407  1.0000
  C   C1279     1.0  0.61923  0.89259  0.00169  1.0000
  C   C1280     1.0  0.32635  0.53338  0.13941  1.0000
  H   H2262     1.0  0.48182  0.87143  0.15868  1.0000
  C   C1281     1.0  0.53049  0.97740  0.12610  1.0000
  H   H2263     1.0  0.50174  0.96475  0.10926  1.0000
  C   C1282     1.0  0.57398  0.53884  0.17984  1.0000
  Fe  Fe149     1.0  0.64647  0.89537  0.05678  1.0000
  C   C1283     1.0  0.46954  0.97004  0.16033  1.0000
  H   H2264     1.0  0.32626  0.57582  0.21921  1.0000
  C   C1284     1.0  0.46873  0.97524  0.19002  1.0000
  H   H2265     1.0  0.40210  0.72669  0.20394  1.0000
  H   H2266     1.0  0.56396  0.54532  0.23103  1.0000
  H   H2267     1.0  0.32334  0.69565  0.11707  1.0000
  H   H2268     1.0  0.36472  0.50980  0.12953  1.0000
  H   H2269     1.0  0.58256  0.94822  0.00874  1.0000
  C   C1285     1.0  0.52171  0.97077  0.11051  1.0000
  N   N66       1.0  0.60862  0.92773  0.99499  1.0000
  H   H2270     1.0  0.46763  0.71158  0.11105  1.0000
  H   H2271     1.0  0.60366  0.80054  0.09632  1.0000
  H   H2272     1.0  0.39901  0.67341  0.16686  1.0000
  C   C1286     1.0  0.43342  0.55045  0.06799  1.0000
  C   C1287     1.0  0.54857  0.53203  0.17254  1.0000
  H   H2273     1.0  0.32851  0.88914  0.05374  1.0000
  C   C1288     1.0  0.47837  0.56575  0.21757  1.0000
  H   H2274     1.0  0.35347  0.55794  0.12049  1.0000
  C   C1289     1.0  0.32839  0.65705  0.22326  1.0000
  C   C1290     1.0  0.31869  0.84399  0.06778  1.0000
  H   H2275     1.0  0.54760  0.55016  0.20069  1.0000
  S   S298      1.0  0.64338  0.91428  0.07706  1.0000
  C   C1291     1.0  0.61832  0.49548  0.23072  1.0000
  Fe  Fe150     1.0  0.32905  0.63519  0.15370  1.0000
  H   H2276     1.0  0.35842  0.54558  0.08799  1.0000
  C   C1292     1.0  0.63501  0.80954  0.04938  1.0000
  C   C1293     1.0  0.63805  0.49570  0.22331  1.0000
  C   C1294     1.0  0.39333  0.94104  0.14097  1.0000
  C   C1295     1.0  0.37764  0.92945  0.15393  1.0000
  C   C1296     1.0  0.55955  0.52186  0.20390  1.0000
  C   C1297     1.0  0.47436  0.51052  0.17439  1.0000
  H   H2277     1.0  0.35459  0.76348  0.19836  1.0000
  C   C1298     1.0  0.36838  0.90146  0.15374  1.0000
  H   H2278     1.0  0.40402  0.49931  0.07126  1.0000
  H   H2279     1.0  0.57852  0.56293  0.20762  1.0000
  H   H2280     1.0  0.33605  0.69987  0.21035  1.0000
  H   H2281     1.0  0.53974  0.50803  0.20241  1.0000
  C   C1299     1.0  0.59966  0.95826  0.02982  1.0000
  H   H2282     1.0  0.52948  0.97341  0.17979  1.0000
  H   H2283     1.0  0.33880  0.84600  0.08767  1.0000
  H   H2284     1.0  0.38341  0.92959  0.13123  1.0000
  H   H2285     1.0  0.40969  0.93804  0.14238  1.0000
  H   H2286     1.0  0.36131  0.93252  0.15413  1.0000
  C   C1300     1.0  0.64251  0.55834  0.20492  1.0000
  N   N67       1.0  0.53023  0.95684  0.14976  1.0000
  H   H2287     1.0  0.35296  0.93839  0.12574  1.0000
  H   H2288     1.0  0.32311  0.60375  0.21895  1.0000
  C   C1301     1.0  0.62331  0.73004  0.10275  1.0000
  H   H2289     1.0  0.63662  0.96416  0.98960  1.0000
  H   H2290     1.0  0.56187  0.90548  0.01035  1.0000
  H   H2291     1.0  0.35688  0.89230  0.14393  1.0000
  H   H2292     1.0  0.46329  0.56768  0.21202  1.0000
  H   H2293     1.0  0.31871  0.94082  0.99868  1.0000
  H   H2294     1.0  0.53065  0.54779  0.15931  1.0000
  C   C1302     1.0  0.34635  0.53828  0.11672  1.0000
  H   H2295     1.0  0.52200  0.90614  0.15354  1.0000
  H   H2296     1.0  0.59696  0.80952  0.07935  1.0000
  C   C1303     1.0  0.60569  0.79944  0.08467  1.0000
  H   H2297     1.0  0.64304  0.54403  0.21171  1.0000
  H   H2298     1.0  0.61666  0.56868  0.19587  1.0000
  H   H2299     1.0  0.49609  0.93766  0.16046  1.0000
  H   H2300     1.0  0.44054  0.96713  0.10320  1.0000
  C   C1304     1.0  0.56001  0.54690  0.20806  1.0000
  H   H2301     1.0  0.52180  0.93771  0.16954  1.0000
  N   N68       1.0  0.39859  0.71900  0.12691  1.0000
  C   C1305     1.0  0.40447  0.71760  0.14242  1.0000
  C   C1306     1.0  0.40616  0.74558  0.12338  1.0000
  C   C1307     1.0  0.37100  0.70406  0.12450  1.0000
  C   C1308     1.0  0.41025  0.70777  0.11722  1.0000
  C   C1309     1.0  0.43848  0.71853  0.11890  1.0000
  C   C1310     1.0  0.39649  0.69125  0.14778  1.0000
  C   C1311     1.0  0.36028  0.70653  0.10986  1.0000
  C   C1312     1.0  0.42947  0.76633  0.13131  1.0000
  C   C1313     1.0  0.43779  0.79126  0.12447  1.0000
  C   C1314     1.0  0.44728  0.70321  0.10992  1.0000
  C   C1315     1.0  0.40550  0.69251  0.16319  1.0000
  C   C1316     1.0  0.44083  0.97650  0.12577  1.0000
  H   H2302     1.0  0.39563  0.72623  0.14914  1.0000
  H   H2303     1.0  0.42439  0.72870  0.14510  1.0000
  H   H2304     1.0  0.40836  0.74789  0.11172  1.0000
  H   H2305     1.0  0.39137  0.75043  0.12601  1.0000
  H   H2306     1.0  0.36153  0.70915  0.13289  1.0000
  H   H2307     1.0  0.36491  0.68392  0.12551  1.0000
  H   H2308     1.0  0.40169  0.68735  0.11834  1.0000
  H   H2309     1.0  0.40642  0.70999  0.10591  1.0000
  H   H2310     1.0  0.44463  0.71858  0.13006  1.0000
  H   H2311     1.0  0.44766  0.73765  0.11508  1.0000
  H   H2312     1.0  0.37616  0.68021  0.14742  1.0000
  H   H2313     1.0  0.40410  0.68121  0.14131  1.0000
  H   H2314     1.0  0.36820  0.70071  0.10099  1.0000
  H   H2315     1.0  0.36393  0.72587  0.10833  1.0000
  H   H2316     1.0  0.42528  0.76855  0.14252  1.0000
  H   H2317     1.0  0.44514  0.76225  0.13149  1.0000
  H   H2318     1.0  0.44370  0.79053  0.11349  1.0000
  H   H2319     1.0  0.42269  0.79633  0.12407  1.0000
  H   H2320     1.0  0.45357  0.80602  0.13081  1.0000
  H   H2321     1.0  0.44205  0.70282  0.09850  1.0000
  C   C1317     1.0  0.33483  0.75011  0.19618  1.0000
  N   N69       1.0  0.33607  0.52122  0.12893  1.0000
  H   H2322     1.0  0.57012  0.49535  0.17387  1.0000
  H   H2323     1.0  0.53088  0.88341  0.99047  1.0000
  C   C1318     1.0  0.62445  0.91521  0.99270  1.0000
  H   H2324     1.0  0.35240  0.80109  0.19238  1.0000
  C   C1319     1.0  0.33094  0.73964  0.22139  1.0000
  H   H2325     1.0  0.36456  0.51911  0.10570  1.0000
  H   H2326     1.0  0.55918  0.94956  0.15807  1.0000
  H   H2327     1.0  0.59641  0.95752  0.13698  1.0000
  H   H2328     1.0  0.32908  0.95926  0.13415  1.0000
  H   H2329     1.0  0.63511  0.77415  0.04752  1.0000
  H   H2330     1.0  0.61925  0.80383  0.04211  1.0000
  H   H2331     1.0  0.61325  0.97375  0.00978  1.0000
  H   H2332     1.0  0.60931  0.52540  0.18598  1.0000
  H   H2333     1.0  0.43974  0.95876  0.12891  1.0000
  H   H2334     1.0  0.39031  0.55349  0.09080  1.0000
  H   H2335     1.0  0.38906  0.93732  0.16390  1.0000
  H   H2336     1.0  0.35155  0.84009  0.07190  1.0000
  H   H2337     1.0  0.58121  0.92857  0.12672  1.0000
  H   H2338     1.0  0.45446  0.49827  0.07837  1.0000
  H   H2339     1.0  0.35050  0.60385  0.21268  1.0000
  H   H2340     1.0  0.41195  0.50764  0.05350  1.0000
  C   C1320     1.0  0.47662  0.50726  0.18904  1.0000
  H   H2341     1.0  0.55070  0.98457  0.12672  1.0000
  H   H2342     1.0  0.56613  0.51566  0.21333  1.0000
  N   N70       1.0  0.40112  0.96808  0.13891  1.0000
  H   H2343     1.0  0.61523  0.69356  0.11009  1.0000
  C   C1321     1.0  0.33366  0.78863  0.18777  1.0000
  H   H2344     1.0  0.32666  0.95465  0.11507  1.0000
  H   H2345     1.0  0.34713  0.75848  0.22223  1.0000
  H   H2346     1.0  0.31967  0.77171  0.20755  1.0000
  C   C1322     1.0  0.34063  0.71507  0.20303  1.0000
  H   H2347     1.0  0.63979  0.74854  0.10242  1.0000
  C   C1323     1.0  0.34838  0.60398  0.23568  1.0000
  C   C1324     1.0  0.56155  0.49561  0.18413  1.0000
  C   C1325     1.0  0.41813  0.98416  0.15111  1.0000
  H   H2348     1.0  0.33497  0.70561  0.19226  1.0000
  H   H2349     1.0  0.64093  0.88015  0.98898  1.0000
  C   C1326     1.0  0.46881  0.55099  0.23091  1.0000
  H   H2350     1.0  0.32232  0.70480  0.23231  1.0000
  C   C1327     1.0  0.63133  0.71212  0.10912  1.0000
  H   H2351     1.0  0.53171  0.98721  0.10404  1.0000
  H   H2352     1.0  0.36967  0.96366  0.11429  1.0000
  H   H2353     1.0  0.44085  0.50133  0.04221  1.0000
  C   C1328     1.0  0.41499  0.97512  0.12532  1.0000
  H   H2354     1.0  0.38628  0.51639  0.15836  1.0000
  C   C1329     1.0  0.41915  0.50435  0.06372  1.0000
  H   H2355     1.0  0.46273  0.50111  0.05455  1.0000
  C   C1330     1.0  0.37938  0.97302  0.13719  1.0000
  C   C1331     1.0  0.45215  0.98209  0.11119  1.0000
  H   H2356     1.0  0.34367  0.51188  0.15861  1.0000
  H   H2357     1.0  0.36857  0.96877  0.14689  1.0000
  H   H2358     1.0  0.61808  0.96524  0.03525  1.0000
  H   H2359     1.0  0.47065  0.98318  0.11183  1.0000
  C   C1332     1.0  0.40630  0.98997  0.16411  1.0000
  H   H2360     1.0  0.35163  0.95529  0.99739  1.0000
  H   H2361     1.0  0.64007  0.71927  0.11986  1.0000
  H   H2362     1.0  0.31836  0.87746  0.07617  1.0000
  H   H2363     1.0  0.34632  0.98498  0.12297  1.0000
  H   H2364     1.0  0.42986  0.98708  0.18076  1.0000
  H   H2365     1.0  0.64481  0.71007  0.10237  1.0000
  H   H2366     1.0  0.31940  0.88151  0.02776  1.0000
  H   H2367     1.0  0.45290  0.53301  0.22747  1.0000
  H   H2368     1.0  0.60608  0.95903  0.98637  1.0000
  H   H2369     1.0  0.57270  0.92098  0.98669  1.0000
  Fe  Fe151     1.0  0.62655  0.93220  0.40784  1.0000
  S   S299      1.0  0.59996  0.94031  0.39385  1.0000
  H   H2370     1.0  0.34448  0.57976  0.28850  1.0000
  S   S300      1.0  0.61992  0.90402  0.42449  1.0000
  Fe  Fe152     1.0  0.62135  0.68766  0.41020  1.0000
  S   S301      1.0  0.58137  0.67043  0.40123  1.0000
  S   S302      1.0  0.63053  0.70373  0.43282  1.0000
  Fe  Fe153     1.0  0.42221  0.87011  0.33720  1.0000
  S   S303      1.0  0.41859  0.87230  0.36070  1.0000
  S   S304      1.0  0.40376  0.83419  0.32314  1.0000
  Fe  Fe154     1.0  0.45374  0.92714  0.33599  1.0000
  S   S305      1.0  0.45135  0.93257  0.35976  1.0000
  S   S306      1.0  0.47821  0.96121  0.32334  1.0000
  Fe  Fe155     1.0  0.45928  0.90007  0.36171  1.0000
  S   S307      1.0  0.48389  0.89306  0.37791  1.0000
  Fe  Fe156     1.0  0.41096  0.90439  0.35686  1.0000
  S   S308      1.0  0.37358  0.90207  0.36271  1.0000
  S   S309      1.0  0.46316  0.89584  0.33824  1.0000
  S   S310      1.0  0.41331  0.90125  0.33299  1.0000
  Fe  Fe157     1.0  0.40737  0.50921  0.36250  1.0000
  S   S311      1.0  0.40283  0.51616  0.33948  1.0000
  Fe  Fe158     1.0  0.46299  0.54803  0.36318  1.0000
  S   S312      1.0  0.46139  0.55633  0.34004  1.0000
  S   S313      1.0  0.49888  0.56290  0.37713  1.0000
  Fe  Fe159     1.0  0.42575  0.55664  0.34508  1.0000
  S   S314      1.0  0.41883  0.58872  0.33803  1.0000
  Fe  Fe160     1.0  0.43841  0.51500  0.33609  1.0000
  C   C1333     1.0  0.36477  0.55787  0.37763  1.0000
  S   S315      1.0  0.42851  0.55028  0.36846  1.0000
  S   S316      1.0  0.44193  0.50631  0.35886  1.0000
  H   H2371     1.0  0.64259  0.62397  0.41685  1.0000
  H   H2372     1.0  0.42256  0.54598  0.27576  1.0000
  H   H2373     1.0  0.35083  0.57137  0.35176  1.0000
  S   S317      1.0  0.34125  0.71837  0.33440  1.0000
  S   S318      1.0  0.34440  0.66963  0.30576  1.0000
  H   H2374     1.0  0.33420  0.78149  0.35758  1.0000
  C   C1334     1.0  0.44253  0.55182  0.27536  1.0000
  C   C1335     1.0  0.35800  0.62588  0.26462  1.0000
  H   H2375     1.0  0.33535  0.98680  0.40007  1.0000
  H   H2376     1.0  0.37763  0.56066  0.27489  1.0000
  H   H2377     1.0  0.52087  0.52118  0.30103  1.0000
  H   H2378     1.0  0.53620  0.56378  0.25001  1.0000
  N   N71       1.0  0.34344  0.54335  0.36716  1.0000
  H   H2379     1.0  0.37059  0.94025  0.40948  1.0000
  C   C1336     1.0  0.39253  0.59094  0.33150  1.0000
  C   C1337     1.0  0.39315  0.61428  0.33191  1.0000
  C   C1338     1.0  0.37275  0.61704  0.32703  1.0000
  C   C1339     1.0  0.35133  0.59642  0.32169  1.0000
  C   C1340     1.0  0.35080  0.57311  0.32108  1.0000
  C   C1341     1.0  0.37130  0.57040  0.32584  1.0000
  H   H2380     1.0  0.40954  0.63036  0.33612  1.0000
  H   H2381     1.0  0.37352  0.63510  0.32755  1.0000
  H   H2382     1.0  0.51730  0.56273  0.43469  1.0000
  H   H2383     1.0  0.37076  0.55249  0.32506  1.0000
  C   C1342     1.0  0.47680  0.96961  0.30544  1.0000
  C   C1343     1.0  0.45622  0.95631  0.29625  1.0000
  H   H2384     1.0  0.43931  0.95423  0.27553  1.0000
  H   H2385     1.0  0.44078  0.93983  0.29981  1.0000
  C   C1344     1.0  0.38665  0.80209  0.32660  1.0000
  C   C1345     1.0  0.38214  0.79355  0.34038  1.0000
  C   C1346     1.0  0.36854  0.76791  0.34255  1.0000
  C   C1347     1.0  0.35897  0.75044  0.33098  1.0000
  C   C1348     1.0  0.36347  0.75900  0.31719  1.0000
  C   C1349     1.0  0.37726  0.78464  0.31504  1.0000
  H   H2386     1.0  0.38899  0.80668  0.34936  1.0000
  H   H2387     1.0  0.36518  0.76153  0.35327  1.0000
  H   H2388     1.0  0.35628  0.74587  0.30817  1.0000
  H   H2389     1.0  0.38060  0.79097  0.30431  1.0000
  H   H2390     1.0  0.31963  0.54913  0.35216  1.0000
  C   C1350     1.0  0.64803  0.53328  0.24381  1.0000
  C   C1351     1.0  0.37233  0.92345  0.38931  1.0000
  C   C1352     1.0  0.35949  0.91064  0.37674  1.0000
  S   S319      1.0  0.64855  0.72351  0.40100  1.0000
  N   N72       1.0  0.32622  0.98924  0.37804  1.0000
  H   H2391     1.0  0.39154  0.92831  0.39086  1.0000
  S   S320      1.0  0.32200  0.93573  0.41120  1.0000
  C   C1353     1.0  0.34900  0.58173  0.26516  1.0000
  C   C1354     1.0  0.55918  0.64046  0.39413  1.0000
  C   C1355     1.0  0.56280  0.61953  0.39476  1.0000
  C   C1356     1.0  0.54420  0.59608  0.38951  1.0000
  C   C1357     1.0  0.52190  0.59320  0.38328  1.0000
  C   C1358     1.0  0.51841  0.61419  0.38252  1.0000
  C   C1359     1.0  0.53682  0.63755  0.38801  1.0000
  H   H2392     1.0  0.57987  0.62136  0.39931  1.0000
  H   H2393     1.0  0.54717  0.58005  0.39016  1.0000
  H   H2394     1.0  0.50142  0.61238  0.37783  1.0000
  H   H2395     1.0  0.53372  0.65351  0.38744  1.0000
  C   C1360     1.0  0.56757  0.92652  0.38950  1.0000
  C   C1361     1.0  0.55021  0.90536  0.39592  1.0000
  C   C1362     1.0  0.52482  0.89555  0.39225  1.0000
  C   C1363     1.0  0.51630  0.90653  0.38206  1.0000
  C   C1364     1.0  0.53369  0.92754  0.37553  1.0000
  C   C1365     1.0  0.55906  0.93744  0.37927  1.0000
  H   H2396     1.0  0.55629  0.89671  0.40382  1.0000
  H   H2397     1.0  0.51166  0.87935  0.39743  1.0000
  H   H2398     1.0  0.52759  0.93630  0.36770  1.0000
  H   H2399     1.0  0.57217  0.95386  0.37424  1.0000
  H   H2400     1.0  0.60440  0.92598  0.34357  1.0000
  H   H2401     1.0  0.38312  0.59323  0.36653  1.0000
  H   H2402     1.0  0.36037  0.82190  0.35506  1.0000
  C   C1366     1.0  0.36259  0.63798  0.27985  1.0000
  C   C1367     1.0  0.60536  0.62212  0.43476  1.0000
  C   C1368     1.0  0.40737  0.59373  0.38330  1.0000
  N   N73       1.0  0.58078  0.75604  0.42365  1.0000
  C   C1369     1.0  0.59585  0.74719  0.43234  1.0000
  C   C1370     1.0  0.58547  0.75506  0.40798  1.0000
  C   C1371     1.0  0.58907  0.78278  0.42834  1.0000
  C   C1372     1.0  0.55369  0.74138  0.42621  1.0000
  C   C1373     1.0  0.54162  0.71311  0.42277  1.0000
  C   C1374     1.0  0.59435  0.74895  0.44873  1.0000
  C   C1375     1.0  0.58018  0.79760  0.41878  1.0000
  C   C1376     1.0  0.59102  0.73407  0.40251  1.0000
  C   C1377     1.0  0.59199  0.73329  0.38632  1.0000
  C   C1378     1.0  0.51529  0.70003  0.42778  1.0000
  C   C1379     1.0  0.60893  0.73787  0.45624  1.0000
  H   H2403     1.0  0.52477  0.55013  0.41919  1.0000
  H   H2404     1.0  0.61556  0.75808  0.42987  1.0000
  H   H2405     1.0  0.59106  0.72772  0.42939  1.0000
  H   H2406     1.0  0.56990  0.75433  0.40136  1.0000
  H   H2407     1.0  0.60182  0.77233  0.40517  1.0000
  H   H2408     1.0  0.60957  0.79337  0.42904  1.0000
  H   H2409     1.0  0.58298  0.78394  0.43924  1.0000
  H   H2410     1.0  0.54993  0.74448  0.43738  1.0000
  H   H2411     1.0  0.54302  0.74816  0.41968  1.0000
  H   H2412     1.0  0.55179  0.70446  0.42799  1.0000
  H   H2413     1.0  0.54056  0.70945  0.41109  1.0000
  H   H2414     1.0  0.60231  0.76859  0.45266  1.0000
  H   H2415     1.0  0.57508  0.73873  0.45201  1.0000
  H   H2416     1.0  0.56005  0.78762  0.41653  1.0000
  H   H2417     1.0  0.58936  0.80124  0.40846  1.0000
  H   H2418     1.0  0.60923  0.73735  0.40691  1.0000
  H   H2419     1.0  0.57720  0.71563  0.40568  1.0000
  C   C1380     1.0  0.54815  0.55049  0.26767  1.0000
  H   H2420     1.0  0.59653  0.71845  0.38282  1.0000
  H   H2421     1.0  0.50393  0.70753  0.42261  1.0000
  H   H2422     1.0  0.50695  0.67989  0.42487  1.0000
  H   H2423     1.0  0.51511  0.70234  0.43951  1.0000
  H   H2424     1.0  0.63195  0.97152  0.34424  1.0000
  C   C1381     1.0  0.33519  0.73473  0.24794  1.0000
  S   S321      1.0  0.64837  0.67257  0.41112  1.0000
  H   H2425     1.0  0.63440  0.61318  0.44180  1.0000
  C   C1382     1.0  0.47522  0.98612  0.27760  1.0000
  C   C1383     1.0  0.33886  0.49609  0.33670  1.0000
  H   H2426     1.0  0.43588  0.51643  0.26678  1.0000
  N   N74       1.0  0.32643  0.82173  0.34818  1.0000
  C   C1384     1.0  0.38594  0.66296  0.28085  1.0000
  C   C1385     1.0  0.33631  0.56019  0.35915  1.0000
  H   H2427     1.0  0.35887  0.56530  0.38685  1.0000
  C   C1386     1.0  0.55625  0.58060  0.43015  1.0000
  H   H2428     1.0  0.58169  0.83382  0.41847  1.0000
  H   H2429     1.0  0.35873  0.96914  0.38470  1.0000
  H   H2430     1.0  0.38433  0.67593  0.27338  1.0000
  H   H2431     1.0  0.43908  0.53816  0.25372  1.0000
  C   C1387     1.0  0.34898  0.83092  0.35798  1.0000
  H   H2432     1.0  0.36120  0.85099  0.35662  1.0000
  H   H2433     1.0  0.32495  0.52218  0.33836  1.0000
  C   C1388     1.0  0.52830  0.55453  0.25997  1.0000
  H   H2434     1.0  0.64855  0.78050  0.40382  1.0000
  C   C1389     1.0  0.35457  0.84891  0.31199  1.0000
  H   H2435     1.0  0.53193  0.54317  0.43664  1.0000
  C   C1390     1.0  0.31840  0.77628  0.34994  1.0000
  H   H2436     1.0  0.36422  0.83597  0.39446  1.0000
  H   H2437     1.0  0.55068  0.59145  0.45144  1.0000
  H   H2438     1.0  0.33442  0.55705  0.31686  1.0000
  H   H2439     1.0  0.58870  0.94296  0.34945  1.0000
  H   H2440     1.0  0.36120  0.59609  0.23689  1.0000
  C   C1391     1.0  0.32426  0.50417  0.38210  1.0000
  H   H2441     1.0  0.64875  0.94221  0.35069  1.0000
  C   C1392     1.0  0.33051  0.57808  0.36836  1.0000
  H   H2442     1.0  0.47945  0.53852  0.27399  1.0000
  C   C1393     1.0  0.56439  0.63787  0.43499  1.0000
  H   H2443     1.0  0.34074  0.51116  0.38940  1.0000
  C   C1394     1.0  0.62818  0.60519  0.41931  1.0000
  C   C1395     1.0  0.62806  0.96186  0.35438  1.0000
  H   H2444     1.0  0.34192  0.60720  0.35304  1.0000
  H   H2445     1.0  0.50927  0.51872  0.24861  1.0000
  H   H2446     1.0  0.33374  0.80810  0.37656  1.0000
  C   C1396     1.0  0.53103  0.55775  0.43026  1.0000
  C   C1397     1.0  0.32243  0.91109  0.38567  1.0000
  H   H2447     1.0  0.36984  0.85600  0.33337  1.0000
  H   H2448     1.0  0.37845  0.85953  0.38178  1.0000
  H   H2449     1.0  0.55220  0.53721  0.26145  1.0000
  H   H2450     1.0  0.57094  0.60157  0.47410  1.0000
  H   H2451     1.0  0.60596  0.58633  0.43669  1.0000
  C   C1398     1.0  0.33540  0.92443  0.39808  1.0000
  S   S322      1.0  0.33271  0.67358  0.26584  1.0000
  H   H2452     1.0  0.63656  0.59259  0.41913  1.0000
  H   H2453     1.0  0.32817  0.85781  0.35168  1.0000
  H   H2454     1.0  0.42390  0.60843  0.37851  1.0000
  H   H2455     1.0  0.62009  0.64175  0.43557  1.0000
  H   H2456     1.0  0.60869  0.51476  0.24678  1.0000
  H   H2457     1.0  0.34689  0.64127  0.28243  1.0000
  C   C1399     1.0  0.34703  0.98657  0.35459  1.0000
  H   H2458     1.0  0.32438  0.77494  0.33908  1.0000
  H   H2459     1.0  0.54975  0.65925  0.44655  1.0000
  C   C1400     1.0  0.45543  0.96461  0.28247  1.0000
  H   H2460     1.0  0.38873  0.67127  0.29181  1.0000
  H   H2461     1.0  0.56887  0.57482  0.42499  1.0000
  H   H2462     1.0  0.33946  0.72413  0.25594  1.0000
  H   H2463     1.0  0.57588  0.82036  0.43566  1.0000
  N   N75       1.0  0.33840  0.59914  0.26254  1.0000
  H   H2464     1.0  0.33363  0.83752  0.37764  1.0000
  N   N76       1.0  0.46963  0.82288  0.34449  1.0000
  C   C1401     1.0  0.47821  0.80480  0.33915  1.0000
  C   C1402     1.0  0.49062  0.84522  0.35218  1.0000
  C   C1403     1.0  0.45004  0.80965  0.35505  1.0000
  C   C1404     1.0  0.45829  0.83082  0.33266  1.0000
  C   C1405     1.0  0.47485  0.84333  0.32013  1.0000
  C   C1406     1.0  0.45841  0.78076  0.33126  1.0000
  C   C1407     1.0  0.44089  0.82579  0.36340  1.0000
  C   C1408     1.0  0.51691  0.85392  0.34677  1.0000
  C   C1409     1.0  0.53526  0.87888  0.35382  1.0000
  C   C1410     1.0  0.46036  0.84738  0.30800  1.0000
  C   C1411     1.0  0.46966  0.76469  0.32579  1.0000
  C   C1412     1.0  0.42290  0.81092  0.37461  1.0000
  H   H2465     1.0  0.48617  0.79920  0.34824  1.0000
  H   H2466     1.0  0.49339  0.81354  0.33177  1.0000
  H   H2467     1.0  0.48682  0.86137  0.35230  1.0000
  H   H2468     1.0  0.49213  0.84157  0.36361  1.0000
  H   H2469     1.0  0.45678  0.80083  0.36302  1.0000
  H   H2470     1.0  0.43328  0.79441  0.34964  1.0000
  H   H2471     1.0  0.44090  0.81492  0.32833  1.0000
  H   H2472     1.0  0.45250  0.84434  0.33685  1.0000
  H   H2473     1.0  0.48290  0.83196  0.31564  1.0000
  H   H2474     1.0  0.48974  0.86188  0.32373  1.0000
  H   H2475     1.0  0.44367  0.76932  0.33842  1.0000
  H   H2476     1.0  0.44999  0.78510  0.32194  1.0000
  H   H2477     1.0  0.43131  0.83260  0.35608  1.0000
  H   H2478     1.0  0.45620  0.84197  0.36906  1.0000
  H   H2479     1.0  0.52336  0.84027  0.34945  1.0000
  H   H2480     1.0  0.51767  0.85586  0.33513  1.0000
  H   H2481     1.0  0.52987  0.89339  0.35134  1.0000
  H   H2482     1.0  0.53615  0.87751  0.36554  1.0000
  H   H2483     1.0  0.55389  0.88462  0.34984  1.0000
  H   H2484     1.0  0.47253  0.85574  0.29903  1.0000
  H   H2485     1.0  0.44462  0.82952  0.30410  1.0000
  H   H2486     1.0  0.45332  0.86025  0.31159  1.0000
  H   H2487     1.0  0.48397  0.77477  0.31806  1.0000
  H   H2488     1.0  0.47795  0.75930  0.33476  1.0000
  H   H2489     1.0  0.45509  0.74753  0.32033  1.0000
  H   H2490     1.0  0.43217  0.80483  0.38265  1.0000
  H   H2491     1.0  0.41626  0.82280  0.38014  1.0000
  H   H2492     1.0  0.40683  0.79441  0.36962  1.0000
  C   C1413     1.0  0.60283  0.61936  0.46046  1.0000
  N   N77       1.0  0.58821  0.61711  0.44685  1.0000
  H   H2493     1.0  0.35890  0.51886  0.36212  1.0000
  H   H2494     1.0  0.33550  0.56243  0.26164  1.0000
  C   C1414     1.0  0.56615  0.59158  0.44550  1.0000
  C   C1415     1.0  0.44680  0.53604  0.26399  1.0000
  H   H2495     1.0  0.32350  0.95316  0.37286  1.0000
  H   H2496     1.0  0.54211  0.54317  0.27833  1.0000
  H   H2497     1.0  0.35737  0.97860  0.36030  1.0000
  C   C1416     1.0  0.33034  0.51155  0.34574  1.0000
  H   H2498     1.0  0.56896  0.63482  0.45707  1.0000
  C   C1417     1.0  0.32178  0.52584  0.37534  1.0000
  H   H2499     1.0  0.45228  0.57174  0.27290  1.0000
  C   C1418     1.0  0.38763  0.57963  0.37160  1.0000
  H   H2500     1.0  0.50082  0.51920  0.26646  1.0000
  H   H2501     1.0  0.44514  0.50583  0.24357  1.0000
  H   H2502     1.0  0.34608  0.58993  0.37585  1.0000
  H   H2503     1.0  0.62558  0.97374  0.36263  1.0000
  H   H2504     1.0  0.39577  0.57242  0.36361  1.0000
  H   H2505     1.0  0.35554  0.68190  0.23899  1.0000
  H   H2506     1.0  0.56532  0.56836  0.26915  1.0000
  C   C1419     1.0  0.36369  0.55979  0.28243  1.0000
  H   H2507     1.0  0.36508  0.58630  0.25851  1.0000
  H   H2508     1.0  0.62010  0.63733  0.46112  1.0000
  H   H2509     1.0  0.60639  0.83337  0.42880  1.0000
  H   H2510     1.0  0.64373  0.94544  0.36882  1.0000
  H   H2511     1.0  0.33095  0.97089  0.34903  1.0000
  C   C1420     1.0  0.35816  0.58147  0.28060  1.0000
  H   H2512     1.0  0.41287  0.58108  0.38873  1.0000
  H   H2513     1.0  0.37048  0.98290  0.41038  1.0000
  H   H2514     1.0  0.62848  0.74737  0.45327  1.0000
  C   C1421     1.0  0.60352  0.93817  0.35227  1.0000
  H   H2515     1.0  0.37145  0.54546  0.38228  1.0000
  C   C1422     1.0  0.34414  0.82793  0.37410  1.0000
  H   H2516     1.0  0.37562  0.59865  0.28312  1.0000
  H   H2517     1.0  0.55449  0.59397  0.42318  1.0000
  H   H2518     1.0  0.57357  0.63939  0.42486  1.0000
  H   H2519     1.0  0.34443  0.81227  0.33141  1.0000
  H   H2520     1.0  0.36843  0.86757  0.30889  1.0000
  C   C1423     1.0  0.58030  0.63705  0.44771  1.0000
  H   H2521     1.0  0.52438  0.56724  0.26680  1.0000
  H   H2522     1.0  0.61309  0.59841  0.41099  1.0000
  C   C1424     1.0  0.61844  0.60570  0.43401  1.0000
  H   H2523     1.0  0.37981  0.83058  0.37988  1.0000
  C   C1425     1.0  0.58642  0.82277  0.42591  1.0000
  H   H2524     1.0  0.40227  0.66059  0.27838  1.0000
  C   C1426     1.0  0.36033  0.93019  0.39988  1.0000
  H   H2525     1.0  0.59680  0.65564  0.44924  1.0000
  C   C1427     1.0  0.50204  0.50667  0.29970  1.0000
  H   H2526     1.0  0.37583  0.62817  0.26072  1.0000
  H   H2527     1.0  0.60873  0.60472  0.46054  1.0000
  H   H2528     1.0  0.57388  0.72911  0.38131  1.0000
  C   C1428     1.0  0.36586  0.98888  0.38799  1.0000
  C   C1429     1.0  0.64902  0.95583  0.35888  1.0000
  H   H2529     1.0  0.37111  0.56069  0.29344  1.0000
  C   C1430     1.0  0.62352  0.51455  0.24096  1.0000
  H   H2530     1.0  0.60090  0.71775  0.45342  1.0000
  C   C1431     1.0  0.35095  0.52942  0.35656  1.0000
  C   C1432     1.0  0.36820  0.83918  0.38305  1.0000
  H   H2531     1.0  0.35313  0.63800  0.25807  1.0000
  H   H2532     1.0  0.33688  0.84392  0.30616  1.0000
  C   C1433     1.0  0.47454  0.54327  0.26343  1.0000
  H   H2533     1.0  0.54623  0.62101  0.43443  1.0000
  H   H2534     1.0  0.36108  0.83540  0.30883  1.0000
  C   C1434     1.0  0.35148  0.84926  0.32804  1.0000
  C   C1435     1.0  0.46255  0.50589  0.24687  1.0000
  H   H2535     1.0  0.48515  0.56384  0.26333  1.0000
  H   H2536     1.0  0.46809  0.49910  0.23721  1.0000
  C   C1436     1.0  0.48404  0.50730  0.30846  1.0000
  H   H2537     1.0  0.36619  0.54256  0.35020  1.0000
  C   C1437     1.0  0.58969  0.61760  0.47456  1.0000
  H   H2538     1.0  0.34665  0.54185  0.28069  1.0000
  H   H2539     1.0  0.40058  0.60260  0.39124  1.0000
  C   C1438     1.0  0.50466  0.52963  0.25656  1.0000
  H   H2540     1.0  0.54738  0.65959  0.42743  1.0000
  H   H2541     1.0  0.48908  0.52219  0.31642  1.0000
  H   H2542     1.0  0.60639  0.75125  0.38266  1.0000
  C   C1439     1.0  0.55931  0.65999  0.43659  1.0000
  C   C1440     1.0  0.65007  0.83607  0.41267  1.0000
  H   H2543     1.0  0.57670  0.67766  0.43660  1.0000
  H   H2544     1.0  0.58836  0.63485  0.47682  1.0000
  H   H2545     1.0  0.36417  0.62634  0.28814  1.0000
  H   H2546     1.0  0.57026  0.57772  0.45071  1.0000
  H   H2547     1.0  0.34474  0.86279  0.33054  1.0000
  H   H2548     1.0  0.59867  0.92787  0.36223  1.0000
  C   C1441     1.0  0.33441  0.90439  0.37508  1.0000
  H   H2549     1.0  0.32417  0.89438  0.36549  1.0000
  H   H2550     1.0  0.59585  0.62042  0.42434  1.0000
  N   N78       1.0  0.48219  0.53161  0.25147  1.0000
  H   H2551     1.0  0.35413  0.50822  0.33003  1.0000
  Fe  Fe161     1.0  0.64722  0.89566  0.41305  1.0000
  S   S323      1.0  0.32455  0.59845  0.31600  1.0000
  H   H2552     1.0  0.60839  0.74026  0.46795  1.0000
  C   C1442     1.0  0.32539  0.59532  0.35899  1.0000
  H   H2553     1.0  0.60527  0.59720  0.48596  1.0000
  H   H2554     1.0  0.63861  0.81208  0.39375  1.0000
  H   H2555     1.0  0.34906  0.75458  0.24939  1.0000
  C   C1443     1.0  0.64623  0.81480  0.40452  1.0000
  C   C1444     1.0  0.32875  0.59496  0.24722  1.0000
  C   C1445     1.0  0.32124  0.65912  0.24868  1.0000
  C   C1446     1.0  0.33683  0.66735  0.23715  1.0000
  S   S324      1.0  0.64093  0.85710  0.40518  1.0000
  H   H2556     1.0  0.44912  0.54939  0.28601  1.0000
  H   H2557     1.0  0.39638  0.98854  0.39980  1.0000
  Fe  Fe162     1.0  0.32348  0.68451  0.31863  1.0000
  H   H2558     1.0  0.45497  0.49302  0.26877  1.0000
  C   C1447     1.0  0.33418  0.82299  0.33302  1.0000
  H   H2559     1.0  0.50390  0.56657  0.24167  1.0000
  C   C1448     1.0  0.48931  0.54749  0.23866  1.0000
  H   H2560     1.0  0.32063  0.60756  0.36570  1.0000
  H   H2561     1.0  0.32285  0.59829  0.28320  1.0000
  H   H2562     1.0  0.64539  0.97473  0.38423  1.0000
  H   H2563     1.0  0.31835  0.53616  0.38418  1.0000
  H   H2564     1.0  0.46270  0.56178  0.23788  1.0000
  H   H2565     1.0  0.31784  0.81391  0.32552  1.0000
  H   H2566     1.0  0.35927  0.62451  0.23625  1.0000
  C   C1449     1.0  0.49662  0.99112  0.30055  1.0000
  H   H2567     1.0  0.32575  0.49170  0.37383  1.0000
  C   C1450     1.0  0.60420  0.61479  0.48716  1.0000
  Fe  Fe163     1.0  0.44762  0.50541  0.71837  1.0000
  S   S325      1.0  0.42206  0.52115  0.72406  1.0000
  H   H2568     1.0  0.37686  0.87185  0.66194  1.0000
  H   H2569     1.0  0.50306  0.76186  0.71250  1.0000
  H   H2570     1.0  0.64467  0.88983  0.55192  1.0000
  S   S326      1.0  0.44744  0.89187  0.72164  1.0000
  Fe  Fe164     1.0  0.41634  0.88993  0.73487  1.0000
  Fe  Fe165     1.0  0.46387  0.93332  0.72461  1.0000
  S   S327      1.0  0.48486  0.95448  0.70540  1.0000
  C   C1451     1.0  0.37638  0.89043  0.68237  1.0000
  Fe  Fe166     1.0  0.58902  0.78058  0.72254  1.0000
  S   S328      1.0  0.54953  0.75275  0.72561  1.0000
  S   S329      1.0  0.59940  0.78896  0.69924  1.0000
  H   H2571     1.0  0.38943  0.94361  0.72668  1.0000
  C   C1452     1.0  0.54912  0.52466  0.53838  1.0000
  H   H2572     1.0  0.31915  0.98818  0.49177  1.0000
  H   H2573     1.0  0.62802  0.64170  0.62644  1.0000
  C   C1453     1.0  0.55473  0.85548  0.69607  1.0000
  H   H2574     1.0  0.50121  0.98650  0.60415  1.0000
  H   H2575     1.0  0.38607  0.95869  0.71123  1.0000
  H   H2576     1.0  0.57048  0.56009  0.61220  1.0000
  H   H2577     1.0  0.34208  0.84100  0.68486  1.0000
  H   H2578     1.0  0.32805  0.84630  0.71187  1.0000
  H   H2579     1.0  0.38691  0.93946  0.68631  1.0000
  H   H2580     1.0  0.50000  0.77353  0.69562  1.0000
  H   H2581     1.0  0.62150  0.75196  0.68986  1.0000
  H   H2582     1.0  0.56880  0.87535  0.69619  1.0000
  C   C1454     1.0  0.40494  0.92246  0.66701  1.0000
  H   H2583     1.0  0.41877  0.95159  0.64320  1.0000
  H   H2584     1.0  0.62446  0.98045  0.56745  1.0000
  H   H2585     1.0  0.61443  0.86749  0.66455  1.0000
  H   H2586     1.0  0.62768  0.72692  0.69390  1.0000
  C   C1455     1.0  0.32042  0.98243  0.64678  1.0000
  H   H2587     1.0  0.52146  0.76122  0.69806  1.0000
  H   H2588     1.0  0.60614  0.94839  0.57128  1.0000
  C   C1456     1.0  0.63259  0.53961  0.58345  1.0000
  C   C1457     1.0  0.32576  0.84442  0.72319  1.0000
  C   C1458     1.0  0.62804  0.80696  0.69129  1.0000
  C   C1459     1.0  0.39608  0.94930  0.71586  1.0000
  H   H2589     1.0  0.41445  0.89493  0.69627  1.0000
  H   H2590     1.0  0.46463  0.90456  0.69136  1.0000
  H   H2591     1.0  0.40150  0.91737  0.71160  1.0000
  C   C1460     1.0  0.62395  0.97259  0.58991  1.0000
  C   C1461     1.0  0.42730  0.94847  0.66544  1.0000
  N   N79       1.0  0.40095  0.91344  0.68197  1.0000
  C   C1462     1.0  0.64899  0.98296  0.61918  1.0000
  H   H2592     1.0  0.45824  0.98385  0.70355  1.0000
  C   C1463     1.0  0.61272  0.60473  0.60939  1.0000
  H   H2593     1.0  0.64308  0.83839  0.58500  1.0000
  S   S330      1.0  0.37671  0.86690  0.72512  1.0000
  H   H2594     1.0  0.44357  0.95069  0.67185  1.0000
  H   H2595     1.0  0.63866  0.62689  0.58611  1.0000
  H   H2596     1.0  0.43623  0.92561  0.69323  1.0000
  C   C1464     1.0  0.37515  0.51496  0.69707  1.0000
  C   C1465     1.0  0.61393  0.56543  0.57785  1.0000
  C   C1466     1.0  0.59267  0.54902  0.58487  1.0000
  C   C1467     1.0  0.59127  0.52797  0.59143  1.0000
  C   C1468     1.0  0.61135  0.52324  0.59052  1.0000
  H   H2597     1.0  0.61859  0.65599  0.60405  1.0000
  H   H2598     1.0  0.62171  0.95648  0.59599  1.0000
  H   H2599     1.0  0.57720  0.55278  0.58531  1.0000
  H   H2600     1.0  0.61071  0.50720  0.59544  1.0000
  H   H2601     1.0  0.33340  0.85233  0.66928  1.0000
  C   C1469     1.0  0.63964  0.75678  0.71093  1.0000
  C   C1470     1.0  0.43447  0.89972  0.67683  1.0000
  H   H2602     1.0  0.59489  0.71268  0.71189  1.0000
  H   H2603     1.0  0.35713  0.51224  0.69266  1.0000
  C   C1471     1.0  0.53332  0.79775  0.70829  1.0000
  H   H2604     1.0  0.63913  0.96176  0.57197  1.0000
  H   H2605     1.0  0.51591  0.97501  0.59182  1.0000
  H   H2606     1.0  0.34479  0.83014  0.66733  1.0000
  C   C1472     1.0  0.54889  0.81226  0.69581  1.0000
  H   H2607     1.0  0.54413  0.64522  0.72984  1.0000
  H   H2608     1.0  0.61551  0.67537  0.58205  1.0000
  C   C1473     1.0  0.48463  0.97604  0.69310  1.0000
  C   C1474     1.0  0.62171  0.64865  0.59383  1.0000
  H   H2609     1.0  0.57147  0.58092  0.62659  1.0000
  H   H2610     1.0  0.52132  0.87421  0.69386  1.0000
  H   H2611     1.0  0.64361  0.93596  0.62493  1.0000
  H   H2612     1.0  0.37145  0.91348  0.70665  1.0000
  H   H2613     1.0  0.54385  0.89197  0.70800  1.0000
  H   H2614     1.0  0.62314  0.63057  0.48800  1.0000
  C   C1475     1.0  0.57845  0.84374  0.71350  1.0000
  H   H2615     1.0  0.47181  0.98400  0.58466  1.0000
  C   C1476     1.0  0.57956  0.83975  0.67243  1.0000
  H   H2616     1.0  0.52921  0.56631  0.73284  1.0000
  H   H2617     1.0  0.61461  0.58150  0.57294  1.0000
  H   H2618     1.0  0.59991  0.61262  0.61105  1.0000
  H   H2619     1.0  0.42271  0.96316  0.66920  1.0000
  C   C1477     1.0  0.64846  0.82530  0.69899  1.0000
  H   H2620     1.0  0.60683  0.59437  0.59892  1.0000
  H   H2621     1.0  0.51147  0.97279  0.68017  1.0000
  H   H2622     1.0  0.55376  0.53658  0.54829  1.0000
  H   H2623     1.0  0.59605  0.84223  0.65200  1.0000
  H   H2624     1.0  0.51741  0.83523  0.70368  1.0000
  C   C1478     1.0  0.62351  0.96547  0.57419  1.0000
  H   H2625     1.0  0.38998  0.53133  0.69221  1.0000
  H   H2626     1.0  0.55887  0.80179  0.69257  1.0000
  H   H2627     1.0  0.63521  0.74561  0.72059  1.0000
  H   H2628     1.0  0.38524  0.86036  0.67758  1.0000
  C   C1479     1.0  0.53442  0.85281  0.70632  1.0000
  N   N80       1.0  0.56689  0.83943  0.69867  1.0000
  C   C1480     1.0  0.52777  0.87382  0.70493  1.0000
  C   C1481     1.0  0.60204  0.84719  0.66338  1.0000
  H   H2629     1.0  0.44065  0.93986  0.64592  1.0000
  H   H2630     1.0  0.54584  0.85143  0.68523  1.0000
  C   C1482     1.0  0.58743  0.84632  0.68843  1.0000
  C   C1483     1.0  0.39149  0.92643  0.70664  1.0000
  H   H2631     1.0  0.41606  0.96256  0.71683  1.0000
  H   H2632     1.0  0.60012  0.86657  0.68922  1.0000
  C   C1484     1.0  0.64085  0.63902  0.59570  1.0000
  H   H2633     1.0  0.53604  0.80993  0.68668  1.0000
  H   H2634     1.0  0.43881  0.87355  0.69035  1.0000
  H   H2635     1.0  0.56761  0.81954  0.67043  1.0000
  H   H2636     1.0  0.65007  0.71528  0.70667  1.0000
  H   H2637     1.0  0.52439  0.80740  0.71375  1.0000
  H   H2638     1.0  0.61441  0.78897  0.67057  1.0000
  C   C1485     1.0  0.34668  0.84653  0.67373  1.0000
  C   C1486     1.0  0.59569  0.72521  0.70337  1.0000
  C   C1487     1.0  0.57978  0.56942  0.62254  1.0000
  H   H2639     1.0  0.40694  0.90919  0.65959  1.0000
  H   H2640     1.0  0.54534  0.79519  0.71629  1.0000
  C   C1488     1.0  0.45034  0.88993  0.68416  1.0000
  C   C1489     1.0  0.63424  0.56102  0.57720  1.0000
  H   H2641     1.0  0.60380  0.63317  0.58982  1.0000
  H   H2642     1.0  0.58856  0.73775  0.70743  1.0000
  H   H2643     1.0  0.44681  0.91535  0.67041  1.0000
  H   H2644     1.0  0.38838  0.92343  0.66276  1.0000
  H   H2645     1.0  0.58846  0.83267  0.71456  1.0000
  H   H2646     1.0  0.36132  0.89483  0.67926  1.0000
  H   H2647     1.0  0.39736  0.49666  0.69734  1.0000
  H   H2648     1.0  0.32107  0.96832  0.58232  1.0000
  C   C1490     1.0  0.42138  0.90860  0.68776  1.0000
  H   H2649     1.0  0.61592  0.59440  0.63136  1.0000
  H   H2650     1.0  0.41802  0.95018  0.69222  1.0000
  H   H2651     1.0  0.48430  0.95575  0.59604  1.0000
  H   H2652     1.0  0.37281  0.88377  0.69338  1.0000
  H   H2653     1.0  0.37625  0.51885  0.70874  1.0000
  H   H2654     1.0  0.58345  0.71377  0.69426  1.0000
  H   H2655     1.0  0.61472  0.57245  0.61767  1.0000
  N   N81       1.0  0.63893  0.62526  0.60906  1.0000
  C   C1491     1.0  0.52817  0.64312  0.73542  1.0000
  H   H2656     1.0  0.56441  0.83693  0.72169  1.0000
  C   C1492     1.0  0.48973  0.98518  0.58188  1.0000
  C   C1493     1.0  0.63015  0.80296  0.67669  1.0000
  H   H2657     1.0  0.51275  0.87096  0.71217  1.0000
  H   H2658     1.0  0.64733  0.68529  0.58682  1.0000
  C   C1494     1.0  0.51325  0.77203  0.70322  1.0000
  C   C1495     1.0  0.59651  0.87104  0.71816  1.0000
  H   H2659     1.0  0.61208  0.87932  0.71100  1.0000
  S   S331      1.0  0.45009  0.49851  0.69447  1.0000
  H   H2660     1.0  0.58682  0.88245  0.71833  1.0000
  H   H2661     1.0  0.45976  0.88426  0.67606  1.0000
  H   H2662     1.0  0.44997  0.97226  0.64931  1.0000
  H   H2663     1.0  0.54013  0.85313  0.71758  1.0000
  H   H2664     1.0  0.50872  0.60315  0.73181  1.0000
  H   H2665     1.0  0.34490  0.49296  0.73298  1.0000
  C   C1496     1.0  0.39970  0.93339  0.69126  1.0000
  C   C1497     1.0  0.62197  0.74016  0.69851  1.0000
  H   H2666     1.0  0.56955  0.84965  0.66858  1.0000
  C   C1498     1.0  0.62968  0.66910  0.58315  1.0000
  C   C1499     1.0  0.60740  0.58531  0.62086  1.0000
  H   H2667     1.0  0.59885  0.83715  0.69126  1.0000
  H   H2668     1.0  0.42139  0.88486  0.66935  1.0000
  C   C1500     1.0  0.37302  0.86754  0.67324  1.0000
  H   H2669     1.0  0.57655  0.55483  0.63021  1.0000
  H   H2670     1.0  0.61243  0.83727  0.66660  1.0000
  H   H2671     1.0  0.32177  0.96764  0.65272  1.0000
  H   H2672     1.0  0.64803  0.53581  0.58297  1.0000
  H   H2673     1.0  0.54039  0.53159  0.53048  1.0000
  S   S332      1.0  0.56432  0.50889  0.60087  1.0000
  C   C1501     1.0  0.43450  0.95319  0.64999  1.0000
  C   C1502     1.0  0.49836  0.97505  0.59422  1.0000
  H   H2674     1.0  0.63241  0.80549  0.60199  1.0000
  C   C1503     1.0  0.34680  0.85352  0.73246  1.0000
  H   H2675     1.0  0.48666  0.97274  0.57242  1.0000
  H   H2676     1.0  0.63373  0.77120  0.71306  1.0000
  C   C1504     1.0  0.49990  0.98158  0.68140  1.0000
  H   H2677     1.0  0.59503  0.61463  0.49720  1.0000
  C   C1505     1.0  0.46984  0.98763  0.69455  1.0000
  H   H2678     1.0  0.63189  0.66214  0.57256  1.0000
  H   H2679     1.0  0.61865  0.86283  0.73339  1.0000
  H   H2680     1.0  0.60769  0.97551  0.59146  1.0000
  H   H2681     1.0  0.56634  0.52619  0.53400  1.0000
  H   H2682     1.0  0.62962  0.96794  0.61910  1.0000
  H   H2683     1.0  0.55352  0.50153  0.56065  1.0000
  H   H2684     1.0  0.64707  0.82888  0.71017  1.0000
  S   S333      1.0  0.47772  0.53144  0.73391  1.0000
  C   C1506     1.0  0.60756  0.87285  0.73313  1.0000
  H   H2685     1.0  0.31809  0.98481  0.60601  1.0000
  H   H2686     1.0  0.51056  0.49797  0.56818  1.0000
  C   C1507     1.0  0.53142  0.49773  0.54138  1.0000
  C   C1508     1.0  0.37840  0.49206  0.69375  1.0000
  H   H2687     1.0  0.45619  0.49247  0.66469  1.0000
  H   H2688     1.0  0.51437  0.49710  0.54527  1.0000
  C   C1509     1.0  0.64487  0.64160  0.62248  1.0000
  H   H2689     1.0  0.50430  0.98981  0.52634  1.0000
  H   H2690     1.0  0.65028  0.60071  0.59844  1.0000
  H   H2691     1.0  0.52585  0.85751  0.78854  1.0000
  S   S334      1.0  0.51687  0.78615  0.74379  1.0000
  S   S335      1.0  0.43442  0.51664  0.75751  1.0000
  C   C1510     1.0  0.64707  0.84768  0.86520  1.0000
  C   C1511     1.0  0.34334  0.85089  0.74707  1.0000
  H   H2692     1.0  0.39123  0.98639  0.84199  1.0000
  C   C1512     1.0  0.61902  0.62947  0.95104  1.0000
  H   H2693     1.0  0.55270  0.57110  0.86403  1.0000
  H   H2694     1.0  0.61981  0.89259  0.73637  1.0000
  S   S336      1.0  0.45138  0.94519  0.77888  1.0000
  H   H2695     1.0  0.54919  0.96327  0.79233  1.0000
  H   H2696     1.0  0.62322  0.84610  0.83962  1.0000
  S   S337      1.0  0.43532  0.88746  0.75521  1.0000
  Fe  Fe167     1.0  0.60085  0.78725  0.75487  1.0000
  S   S338      1.0  0.56193  0.75999  0.76015  1.0000
  S   S339      1.0  0.63637  0.81237  0.76796  1.0000
  Fe  Fe168     1.0  0.45972  0.50206  0.74997  1.0000
  H   H2697     1.0  0.33688  0.80021  0.75435  1.0000
  H   H2698     1.0  0.50617  0.67728  0.75308  1.0000
  H   H2699     1.0  0.46807  0.98028  0.85547  1.0000
  H   H2700     1.0  0.60629  0.60188  0.85345  1.0000
  H   H2701     1.0  0.55963  0.57060  0.73685  1.0000
  H   H2702     1.0  0.37101  0.98053  0.97595  1.0000
  H   H2703     1.0  0.35918  0.85763  0.75438  1.0000
  H   H2704     1.0  0.44377  0.96191  0.86698  1.0000
  H   H2705     1.0  0.43795  0.89194  0.78737  1.0000
  H   H2706     1.0  0.35024  0.79620  0.73823  1.0000
  Fe  Fe169     1.0  0.55042  0.77898  0.74332  1.0000
  C   C1513     1.0  0.48738  0.61594  0.74393  1.0000
  C   C1514     1.0  0.64839  0.89204  0.85166  1.0000
  H   H2707     1.0  0.42664  0.96296  0.84329  1.0000
  C   C1515     1.0  0.62220  0.60681  0.95442  1.0000
  C   C1516     1.0  0.61249  0.62180  0.89604  1.0000
  H   H2708     1.0  0.56002  0.58641  0.76084  1.0000
  H   H2709     1.0  0.54147  0.92372  0.78268  1.0000
  C   C1517     1.0  0.62744  0.65342  0.86604  1.0000
  H   H2710     1.0  0.44353  0.53818  0.78953  1.0000
  C   C1518     1.0  0.52682  0.85755  0.74674  1.0000
  H   H2711     1.0  0.60207  0.62363  0.94424  1.0000
  C   C1519     1.0  0.50809  0.61914  0.73656  1.0000
  C   C1520     1.0  0.56303  0.56154  0.86008  1.0000
  C   C1521     1.0  0.48363  0.83044  0.74157  1.0000
  H   H2712     1.0  0.62390  0.59848  0.94417  1.0000
  H   H2713     1.0  0.53888  0.98627  0.75805  1.0000
  C   C1522     1.0  0.59030  0.53380  0.97412  1.0000
  Fe  Fe170     1.0  0.45250  0.92932  0.75662  1.0000
  C   C1523     1.0  0.63482  0.56086  0.90368  1.0000
  C   C1524     1.0  0.51233  0.81300  0.74374  1.0000
  C   C1525     1.0  0.63604  0.53625  0.88317  1.0000
  C   C1526     1.0  0.61040  0.52085  0.88312  1.0000
  C   C1527     1.0  0.59702  0.52566  0.89344  1.0000
  C   C1528     1.0  0.60919  0.54539  0.90370  1.0000
  H   H2714     1.0  0.58096  0.89796  0.98152  1.0000
  C   C1529     1.0  0.63245  0.79551  0.79555  1.0000
  H   H2715     1.0  0.63035  0.87945  0.85607  1.0000
  H   H2716     1.0  0.59861  0.54876  0.91165  1.0000
  H   H2717     1.0  0.56503  0.56357  0.84843  1.0000
  H   H2718     1.0  0.50515  0.87973  0.79942  1.0000
  H   H2719     1.0  0.38567  0.96918  0.78772  1.0000
  H   H2720     1.0  0.63068  0.83295  0.85934  1.0000
  H   H2721     1.0  0.55002  0.83975  0.74842  1.0000
  C   C1530     1.0  0.50688  0.66125  0.74844  1.0000
  Fe  Fe171     1.0  0.40709  0.49173  0.74022  1.0000
  H   H2722     1.0  0.59381  0.61452  0.89104  1.0000
  C   C1531     1.0  0.53158  0.83704  0.74637  1.0000
  C   C1532     1.0  0.47089  0.97401  0.80350  1.0000
  C   C1533     1.0  0.37944  0.97400  0.94414  1.0000
  H   H2723     1.0  0.64234  0.82395  0.88281  1.0000
  H   H2724     1.0  0.38899  0.97025  0.95318  1.0000
  C   C1534     1.0  0.48838  0.80993  0.74126  1.0000
  H   H2725     1.0  0.53395  0.54694  0.74553  1.0000
  H   H2726     1.0  0.64116  0.85898  0.87189  1.0000
  H   H2727     1.0  0.59288  0.86492  0.74092  1.0000
  Fe  Fe172     1.0  0.56314  0.73542  0.74193  1.0000
  C   C1535     1.0  0.33220  0.96383  0.98055  1.0000
  C   C1536     1.0  0.64481  0.61418  0.96465  1.0000
  C   C1537     1.0  0.60416  0.60004  0.86514  1.0000
  H   H2728     1.0  0.63495  0.64282  0.94522  1.0000
  S   S340      1.0  0.49790  0.88103  0.74605  1.0000
  C   C1538     1.0  0.50280  0.85443  0.74447  1.0000
  H   H2729     1.0  0.45770  0.56985  0.79645  1.0000
  C   C1539     1.0  0.40195  0.98815  0.80810  1.0000
  H   H2730     1.0  0.60525  0.59366  0.95955  1.0000
  H   H2731     1.0  0.46544  0.50325  0.78875  1.0000
  C   C1540     1.0  0.47661  0.49472  0.79192  1.0000
  H   H2732     1.0  0.43183  0.87262  0.80239  1.0000
  S   S341      1.0  0.43211  0.93157  0.73691  1.0000
  H   H2733     1.0  0.57734  0.51400  0.89361  1.0000
  H   H2734     1.0  0.60832  0.97089  0.96150  1.0000
  H   H2735     1.0  0.41717  0.97785  0.85678  1.0000
  C   C1541     1.0  0.64362  0.60015  0.86752  1.0000
  H   H2736     1.0  0.52350  0.96840  0.79559  1.0000
  H   H2737     1.0  0.44817  0.56271  0.77783  1.0000
  C   C1542     1.0  0.60947  0.61548  0.91169  1.0000
  H   H2738     1.0  0.60268  0.92843  0.96535  1.0000
  C   C1543     1.0  0.58824  0.57201  0.86780  1.0000
  C   C1544     1.0  0.47279  0.97252  0.78866  1.0000
  H   H2739     1.0  0.62232  0.64232  0.89573  1.0000
  H   H2740     1.0  0.50627  0.95602  0.77195  1.0000
  H   H2741     1.0  0.62159  0.58035  0.98208  1.0000
  C   C1545     1.0  0.32863  0.97954  0.95070  1.0000
  H   H2742     1.0  0.50847  0.86441  0.77544  1.0000
  H   H2743     1.0  0.36275  0.95657  0.94102  1.0000
  H   H2744     1.0  0.47116  0.63515  0.75552  1.0000
  C   C1546     1.0  0.64817  0.55613  0.89334  1.0000
  H   H2745     1.0  0.59959  0.59507  0.91274  1.0000
  H   H2746     1.0  0.64620  0.62036  0.89393  1.0000
  H   H2747     1.0  0.40491  0.96817  0.82568  1.0000
  C   C1547     1.0  0.52223  0.89049  0.79377  1.0000
  H   H2748     1.0  0.54474  0.95213  0.83743  1.0000
  C   C1548     1.0  0.62414  0.96693  0.96095  1.0000
  H   H2749     1.0  0.58506  0.56888  0.87928  1.0000
  H   H2750     1.0  0.52754  0.94485  0.76708  1.0000
  H   H2751     1.0  0.59672  0.52619  0.98290  1.0000
  Fe  Fe173     1.0  0.46761  0.89268  0.74209  1.0000
  H   H2752     1.0  0.53801  0.89705  0.80163  1.0000
  H   H2753     1.0  0.59695  0.56089  0.86379  1.0000
  H   H2754     1.0  0.61369  0.78218  0.79251  1.0000
  C   C1549     1.0  0.31857  0.95365  0.94306  1.0000
  C   C1550     1.0  0.54514  0.58490  0.75337  1.0000
  H   H2755     1.0  0.59872  0.62367  0.91679  1.0000
  H   H2756     1.0  0.55143  0.60307  0.74842  1.0000
  H   H2757     1.0  0.46506  0.82761  0.73984  1.0000
  C   C1551     1.0  0.64727  0.81202  0.78563  1.0000
  C   C1552     1.0  0.31931  0.83897  0.75227  1.0000
  H   H2758     1.0  0.45678  0.95845  0.80867  1.0000
  H   H2759     1.0  0.52745  0.96742  0.81833  1.0000
  H   H2760     1.0  0.44231  0.90543  0.80521  1.0000
  H   H2761     1.0  0.63556  0.94091  0.96804  1.0000
  C   C1553     1.0  0.39679  0.96771  0.79674  1.0000
  H   H2762     1.0  0.59278  0.60902  0.86798  1.0000
  H   H2763     1.0  0.62015  0.54018  0.96079  1.0000
  C   C1554     1.0  0.61975  0.94461  0.96966  1.0000
  N   N82       1.0  0.52432  0.59198  0.77529  1.0000
  C   C1555     1.0  0.52100  0.57807  0.76120  1.0000
  C   C1556     1.0  0.49946  0.58716  0.78034  1.0000
  C   C1557     1.0  0.53860  0.61936  0.77264  1.0000
  C   C1558     1.0  0.53815  0.58547  0.78646  1.0000
  C   C1559     1.0  0.53426  0.55835  0.78581  1.0000
  H   H2764     1.0  0.62791  0.84146  0.80533  1.0000
  C   C1560     1.0  0.54131  0.63761  0.78517  1.0000
  C   C1561     1.0  0.48138  0.56018  0.78370  1.0000
  C   C1562     1.0  0.45619  0.55767  0.78709  1.0000
  C   C1563     1.0  0.54356  0.55221  0.79954  1.0000
  H   H2765     1.0  0.60018  0.83293  0.81495  1.0000
  C   C1564     1.0  0.55954  0.66425  0.78190  1.0000
  H   H2766     1.0  0.50857  0.58142  0.75383  1.0000
  H   H2767     1.0  0.51136  0.55772  0.76232  1.0000
  H   H2768     1.0  0.50141  0.59799  0.79039  1.0000
  H   H2769     1.0  0.49026  0.59362  0.77240  1.0000
  H   H2770     1.0  0.52995  0.62402  0.76348  1.0000
  H   H2771     1.0  0.55761  0.62426  0.76957  1.0000
  H   H2772     1.0  0.55836  0.59754  0.78592  1.0000
  H   H2773     1.0  0.53363  0.58954  0.79728  1.0000
  H   H2774     1.0  0.54444  0.55564  0.77695  1.0000
  H   H2775     1.0  0.51479  0.54440  0.78397  1.0000
  H   H2776     1.0  0.64157  0.69960  0.92533  1.0000
  H   H2777     1.0  0.64463  0.68004  0.98191  1.0000
  H   H2778     1.0  0.54781  0.63277  0.79511  1.0000
  H   H2779     1.0  0.52346  0.63740  0.78696  1.0000
  H   H2780     1.0  0.47877  0.54709  0.77467  1.0000
  H   H2781     1.0  0.48820  0.55468  0.79326  1.0000
  C   C1565     1.0  0.64192  0.79632  0.80949  1.0000
  H   H2782     1.0  0.35167  0.95465  0.96486  1.0000
  S   S342      1.0  0.48536  0.93436  0.74452  1.0000
  H   H2783     1.0  0.53287  0.55318  0.80865  1.0000
  H   H2784     1.0  0.54110  0.53301  0.79851  1.0000
  H   H2785     1.0  0.56339  0.56517  0.80170  1.0000
  C   C1566     1.0  0.35306  0.97194  0.96978  1.0000
  H   H2786     1.0  0.54184  0.87597  0.74898  1.0000
  H   H2787     1.0  0.54163  0.88261  0.77690  1.0000
  H   H2788     1.0  0.57819  0.66618  0.78051  1.0000
  H   H2789     1.0  0.55345  0.66984  0.77205  1.0000
  H   H2790     1.0  0.56061  0.67708  0.79081  1.0000
  H   H2791     1.0  0.62644  0.96307  0.94964  1.0000
  H   H2792     1.0  0.38394  0.98581  0.81155  1.0000
  H   H2793     1.0  0.57699  0.51809  0.96707  1.0000
  C   C1567     1.0  0.45205  0.97931  0.86113  1.0000
  N   N83       1.0  0.51534  0.92969  0.79525  1.0000
  C   C1568     1.0  0.52320  0.93093  0.81071  1.0000
  C   C1569     1.0  0.52242  0.91303  0.78644  1.0000
  C   C1570     1.0  0.52905  0.95566  0.78998  1.0000
  C   C1571     1.0  0.48818  0.92126  0.79331  1.0000
  C   C1572     1.0  0.47068  0.89565  0.79896  1.0000
  C   C1573     1.0  0.63999  0.85839  0.83400  1.0000
  C   C1574     1.0  0.52510  0.95850  0.77396  1.0000
  C   C1575     1.0  0.48701  0.63723  0.74983  1.0000
  C   C1576     1.0  0.44410  0.89121  0.79845  1.0000
  H   H2794     1.0  0.51431  0.92677  0.83989  1.0000
  C   C1577     1.0  0.52475  0.87276  0.78298  1.0000
  H   H2795     1.0  0.54343  0.93761  0.81165  1.0000
  H   H2796     1.0  0.51481  0.91232  0.81519  1.0000
  H   H2797     1.0  0.51046  0.90591  0.77652  1.0000
  H   H2798     1.0  0.64661  0.84563  0.82945  1.0000
  H   H2799     1.0  0.47112  0.49727  0.81436  1.0000
  H   H2800     1.0  0.48359  0.93525  0.79816  1.0000
  H   H2801     1.0  0.48287  0.92013  0.78182  1.0000
  H   H2802     1.0  0.47546  0.89395  0.81014  1.0000
  H   H2803     1.0  0.47121  0.88079  0.79216  1.0000
  H   H2804     1.0  0.55221  0.54146  0.86203  1.0000
  H   H2805     1.0  0.49728  0.94190  0.82056  1.0000
  C   C1578     1.0  0.52469  0.94602  0.83634  1.0000
  H   H2806     1.0  0.35224  0.78137  0.75413  1.0000
  C   C1579     1.0  0.61195  0.55126  0.96557  1.0000
  S   S343      1.0  0.46193  0.58601  0.74662  1.0000
  C   C1580     1.0  0.64294  0.63990  0.86901  1.0000
  C   C1581     1.0  0.51725  0.94763  0.82095  1.0000
  H   H2807     1.0  0.38640  0.94910  0.80115  1.0000
  Fe  Fe174     1.0  0.45139  0.54518  0.74072  1.0000
  H   H2808     1.0  0.61736  0.63879  0.96095  1.0000
  H   H2809     1.0  0.60455  0.55763  0.95671  1.0000
  H   H2810     1.0  0.61883  0.87627  0.82586  1.0000
  C   C1582     1.0  0.43294  0.97957  0.85059  1.0000
  C   C1583     1.0  0.52775  0.66443  0.74127  1.0000
  H   H2811     1.0  0.62005  0.59117  0.89140  1.0000
  H   H2812     1.0  0.64413  0.90296  0.84384  1.0000
  H   H2813     1.0  0.64662  0.53266  0.87530  1.0000
  H   H2814     1.0  0.60912  0.85621  0.80183  1.0000
  H   H2815     1.0  0.64626  0.88400  0.81643  1.0000
  S   S344      1.0  0.59640  0.49590  0.87003  1.0000
  H   H2816     1.0  0.40093  0.96595  0.92887  1.0000
  C   C1584     1.0  0.63092  0.86886  0.82170  1.0000
  C   C1585     1.0  0.63145  0.57307  0.97519  1.0000
  H   H2817     1.0  0.38725  0.98417  0.92210  1.0000
  N   N84       1.0  0.62921  0.61291  0.87273  1.0000
  H   H2818     1.0  0.63249  0.69056  0.86288  1.0000
  H   H2819     1.0  0.32803  0.95546  0.93293  1.0000
  H   H2820     1.0  0.52053  0.95835  0.84339  1.0000
  H   H2821     1.0  0.61752  0.64686  0.85551  1.0000
  C   C1586     1.0  0.62754  0.61081  0.88862  1.0000
  H   H2822     1.0  0.62771  0.62311  0.91738  1.0000
  H   H2823     1.0  0.64112  0.98360  0.96493  1.0000
  H   H2824     1.0  0.64769  0.93476  0.86267  1.0000
  H   H2825     1.0  0.58065  0.54369  0.97864  1.0000
  C   C1587     1.0  0.61611  0.84857  0.81030  1.0000
  H   H2826     1.0  0.41429  0.96954  0.79258  1.0000
  C   C1588     1.0  0.34030  0.78684  0.74776  1.0000
  H   H2827     1.0  0.63027  0.78348  0.81707  1.0000
  H   H2828     1.0  0.56229  0.98732  0.77034  1.0000
  C   C1589     1.0  0.64379  0.68143  0.86574  1.0000
  H   H2829     1.0  0.64341  0.59951  0.85566  1.0000
  H   H2830     1.0  0.63503  0.58056  0.87067  1.0000
  H   H2831     1.0  0.63505  0.91083  0.87552  1.0000
  H   H2832     1.0  0.43249  0.98377  0.81674  1.0000
  S   S345      1.0  0.64894  0.58595  0.91667  1.0000
  H   H2833     1.0  0.62259  0.90818  0.98148  1.0000
  H   H2834     1.0  0.61363  0.65006  0.87413  1.0000
  H   H2835     1.0  0.64043  0.62141  0.97453  1.0000
  C   C1590     1.0  0.41695  0.98615  0.82094  1.0000
  S   S346      1.0  0.60283  0.76182  0.73776  1.0000
  S   S347      1.0  0.58903  0.80753  0.73928  1.0000
  C   C1591     1.0  0.54309  0.98436  0.76935  1.0000
  S   S348      1.0  0.55431  0.69413  0.74002  1.0000
  C   C1592     1.0  0.54164  0.56592  0.74146  1.0000
  H   H2836     1.0  0.63924  0.56443  0.98263  1.0000
  H   H2837     1.0  0.47330  0.79145  0.73925  1.0000
  H   H2838     1.0  0.64252  0.57613  0.94676  1.0000
  H   H2839     1.0  0.32103  0.94019  0.94961  1.0000
  H   H2840     1.0  0.33191  0.92906  0.98557  1.0000
  H   H2841     1.0  0.32065  0.75073  0.73759  1.0000
  C   C1593     1.0  0.39641  0.98111  0.93160  1.0000
  C   C1594     1.0  0.61798  0.94987  0.98570  1.0000
  N   N85       1.0  0.35310  0.98941  0.95873  1.0000
  C   C1595     1.0  0.47991  0.49133  0.80644  1.0000
  C   C1596     1.0  0.71099  0.03899  0.04173  1.0000
  H   H2842     1.0  0.67777  0.02772  0.99672  1.0000
  S   S349      1.0  0.97136  0.05298  0.16237  1.0000
  H   H2843     1.0  0.79162  0.28210  0.23094  1.0000
  Fe  Fe175     1.0  0.83048  0.09503  0.11355  1.0000
  S   S350      1.0  0.84132  0.08226  0.13335  1.0000
  S   S351      1.0  0.79283  0.07734  0.10152  1.0000
  Fe  Fe176     1.0  0.88035  0.14352  0.11402  1.0000
  S   S352      1.0  0.89434  0.13413  0.13411  1.0000
  S   S353      1.0  0.89752  0.17758  0.10028  1.0000
  Fe  Fe177     1.0  0.87860  0.09544  0.12415  1.0000
  S   S354      1.0  0.89687  0.07048  0.12147  1.0000
  Fe  Fe178     1.0  0.85600  0.12169  0.14205  1.0000
  S   S355      1.0  0.84872  0.12688  0.16539  1.0000
  S   S356      1.0  0.86661  0.10553  0.10357  1.0000
  S   S357      1.0  0.84325  0.13384  0.12274  1.0000
  H   H2844     1.0  0.97307  0.38978  0.11179  1.0000
  H   H2845     1.0  0.89187  0.32865  0.20990  1.0000
  S   S358      1.0  0.87538  0.44098  0.22065  1.0000
  H   H2846     1.0  0.79151  0.10190  0.06898  1.0000
  C   C1597     1.0  0.97260  0.21644  0.09801  1.0000
  Fe  Fe179     1.0  0.91626  0.45762  0.21788  1.0000
  H   H2847     1.0  0.77998  0.10340  0.05144  1.0000
  Fe  Fe180     1.0  0.77589  0.17627  0.21827  1.0000
  S   S359      1.0  0.76317  0.20537  0.22034  1.0000
  S   S360      1.0  0.78380  0.17041  0.19517  1.0000
  H   H2848     1.0  0.80563  0.09679  0.05360  1.0000
  H   H2849     1.0  0.77469  0.01701  0.04723  1.0000
  C   C1598     1.0  0.97706  0.16418  0.08457  1.0000
  H   H2850     1.0  0.72305  0.02442  0.05923  1.0000
  H   H2851     1.0  0.97511  0.14635  0.13491  1.0000
  H   H2852     1.0  0.84064  0.19789  0.21225  1.0000
  C   C1599     1.0  0.76007  0.44830  0.22096  1.0000
  C   C1600     1.0  0.96868  0.46228  0.18884  1.0000
  H   H2853     1.0  0.72222  0.04818  0.14360  1.0000
  Fe  Fe181     1.0  0.87860  0.41227  0.23396  1.0000
  C   C1601     1.0  0.94165  0.05636  0.07911  1.0000
  H   H2854     1.0  0.97262  0.38006  0.08156  1.0000
  H   H2855     1.0  0.77196  0.00748  0.99800  1.0000
  C   C1602     1.0  0.83115  0.13974  0.17350  1.0000
  C   C1603     1.0  0.82086  0.15209  0.16579  1.0000
  C   C1604     1.0  0.80648  0.16131  0.17262  1.0000
  C   C1605     1.0  0.80263  0.15885  0.18730  1.0000
  C   C1606     1.0  0.81332  0.14696  0.19509  1.0000
  C   C1607     1.0  0.82740  0.13739  0.18820  1.0000
  H   H2856     1.0  0.82412  0.15466  0.15459  1.0000
  H   H2857     1.0  0.79829  0.17044  0.16648  1.0000
  H   H2858     1.0  0.81050  0.14483  0.20636  1.0000
  H   H2859     1.0  0.83538  0.12801  0.19430  1.0000
  C   C1608     1.0  0.94956  0.05663  0.15124  1.0000
  C   C1609     1.0  0.94523  0.07700  0.15400  1.0000
  C   C1610     1.0  0.92872  0.08118  0.14525  1.0000
  C   C1611     1.0  0.91664  0.06526  0.13344  1.0000
  C   C1612     1.0  0.92119  0.04507  0.13057  1.0000
  C   C1613     1.0  0.93734  0.04060  0.13949  1.0000
  C   C1614     1.0  0.73504  0.99589  0.09107  1.0000
  H   H2860     1.0  0.92552  0.09684  0.14757  1.0000
  H   H2861     1.0  0.91203  0.03268  0.12144  1.0000
  H   H2862     1.0  0.94055  0.02496  0.13716  1.0000
  H   H2863     1.0  0.80852  0.21177  0.15410  1.0000
  H   H2864     1.0  0.76859  0.28248  0.19340  1.0000
  H   H2865     1.0  0.95277  0.09054  0.06857  1.0000
  H   H2866     1.0  0.80360  0.25512  0.21267  1.0000
  H   H2867     1.0  0.79708  0.23073  0.17386  1.0000
  H   H2868     1.0  0.89213  0.12343  0.05719  1.0000
  H   H2869     1.0  0.87282  0.21155  0.20861  1.0000
  C   C1615     1.0  0.94891  0.19977  0.10240  1.0000
  C   C1616     1.0  0.92796  0.19825  0.09535  1.0000
  C   C1617     1.0  0.93107  0.21379  0.08398  1.0000
  C   C1618     1.0  0.95473  0.23043  0.07958  1.0000
  N   N86       1.0  0.83133  0.25836  0.19805  1.0000
  H   H2870     1.0  0.94685  0.18836  0.11135  1.0000
  H   H2871     1.0  0.91503  0.21286  0.07847  1.0000
  H   H2872     1.0  0.95672  0.24205  0.07073  1.0000
  H   H2873     1.0  0.93963  0.04545  0.06908  1.0000
  C   C1619     1.0  0.73026  0.01544  0.08781  1.0000
  C   C1620     1.0  0.74810  0.04018  0.09118  1.0000
  C   C1621     1.0  0.77094  0.04573  0.09783  1.0000
  C   C1622     1.0  0.77557  0.02617  0.10129  1.0000
  H   H2874     1.0  0.73431  0.09298  0.18490  1.0000
  H   H2875     1.0  0.83477  0.24209  0.21752  1.0000
  H   H2876     1.0  0.74412  0.05513  0.08872  1.0000
  H   H2877     1.0  0.79294  0.03008  0.10649  1.0000
  H   H2878     1.0  0.70749  0.00277  0.04500  1.0000
  H   H2879     1.0  0.94620  0.35799  0.09893  1.0000
  H   H2880     1.0  0.92354  0.08227  0.09596  1.0000
  H   H2881     1.0  0.82039  0.41999  0.18298  1.0000
  H   H2882     1.0  0.90238  0.10198  0.08372  1.0000
  S   S361      1.0  0.91888  0.42730  0.22959  1.0000
  C   C1623     1.0  0.75727  0.08339  0.16229  1.0000
  H   H2883     1.0  0.76899  0.00464  0.02408  1.0000
  S   S362      1.0  0.74553  0.14921  0.23145  1.0000
  C   C1624     1.0  0.73529  0.10359  0.17535  1.0000
  C   C1625     1.0  0.76330  0.01716  0.01872  1.0000
  H   H2884     1.0  0.87287  0.30329  0.18714  1.0000
  N   N87       1.0  0.94165  0.11936  0.08807  1.0000
  H   H2885     1.0  0.74988  0.01904  0.99730  1.0000
  H   H2886     1.0  0.94190  0.14811  0.10233  1.0000
  C   C1626     1.0  0.66222  0.12293  0.23088  1.0000
  C   C1627     1.0  0.74115  0.03012  0.13383  1.0000
  C   C1628     1.0  0.90617  0.31359  0.09096  1.0000
  H   H2887     1.0  0.76871  0.07954  0.12682  1.0000
  C   C1629     1.0  0.81584  0.32176  0.23101  1.0000
  H   H2888     1.0  0.75218  0.12180  0.17634  1.0000
  H   H2889     1.0  0.96229  0.44876  0.19694  1.0000
  H   H2890     1.0  0.74478  0.08510  0.13283  1.0000
  H   H2891     1.0  0.76924  0.03351  0.16097  1.0000
  H   H2892     1.0  0.71913  0.10706  0.17496  1.0000
  H   H2893     1.0  0.73597  0.10055  0.15269  1.0000
  H   H2894     1.0  0.92748  0.04430  0.08643  1.0000
  H   H2895     1.0  0.83771  0.44308  0.19684  1.0000
  C   C1630     1.0  0.81143  0.41674  0.21965  1.0000
  C   C1631     1.0  0.80379  0.41215  0.20355  1.0000
  H   H2896     1.0  0.84626  0.30762  0.18941  1.0000
  C   C1632     1.0  0.78458  0.05260  0.16262  1.0000
  C   C1633     1.0  0.78208  0.12819  0.12440  1.0000
  H   H2897     1.0  0.81625  0.22005  0.20421  1.0000
  C   C1634     1.0  0.82633  0.42286  0.19441  1.0000
  H   H2898     1.0  0.95611  0.09572  0.09620  1.0000
  C   C1635     1.0  0.85796  0.21568  0.21206  1.0000
  H   H2899     1.0  0.78725  0.12005  0.11522  1.0000
  H   H2900     1.0  0.90110  0.32832  0.09381  1.0000
  C   C1636     1.0  0.89286  0.13250  0.06771  1.0000
  H   H2901     1.0  0.71263  0.01142  0.08295  1.0000
  H   H2902     1.0  0.89303  0.30117  0.08242  1.0000
  C   C1637     1.0  0.96540  0.13580  0.08107  1.0000
  H   H2903     1.0  0.86515  0.33344  0.21143  1.0000
  H   H2904     1.0  0.82384  0.40840  0.22149  1.0000
  H   H2905     1.0  0.79238  0.42105  0.20053  1.0000
  H   H2906     1.0  0.79326  0.39206  0.20069  1.0000
  H   H2907     1.0  0.75408  0.07110  0.17134  1.0000
  H   H2908     1.0  0.76379  0.12696  0.12201  1.0000
  H   H2909     1.0  0.75940  0.06464  0.03566  1.0000
  H   H2910     1.0  0.87266  0.25033  0.20171  1.0000
  C   C1638     1.0  0.86102  0.30552  0.19515  1.0000
  H   H2911     1.0  0.96020  0.06208  0.08405  1.0000
  C   C1639     1.0  0.80968  0.29698  0.23397  1.0000
  H   H2912     1.0  0.78912  0.06367  0.14062  1.0000
  H   H2913     1.0  0.76140  0.40509  0.21593  1.0000
  S   S363      1.0  0.84574  0.37258  0.23084  1.0000
  H   H2914     1.0  0.97994  0.13056  0.08397  1.0000
  H   H2915     1.0  0.96564  0.43160  0.21970  1.0000
  H   H2916     1.0  0.72286  0.48115  0.21195  1.0000
  H   H2917     1.0  0.75672  0.02613  0.13585  1.0000
  H   H2918     1.0  0.70879  0.03734  0.02997  1.0000
  H   H2919     1.0  0.95459  0.08955  0.16304  1.0000
  C   C1640     1.0  0.77903  0.37857  0.22862  1.0000
  H   H2920     1.0  0.91719  0.14911  0.08590  1.0000
  H   H2921     1.0  0.89148  0.14973  0.06598  1.0000
  H   H2922     1.0  0.73464  0.03552  0.15599  1.0000
  H   H2923     1.0  0.69984  0.46452  0.23358  1.0000
  H   H2924     1.0  0.86290  0.22457  0.22291  1.0000
  Fe  Fe182     1.0  0.97926  0.02029  0.16557  1.0000
  H   H2925     1.0  0.76055  0.25018  0.19084  1.0000
  C   C1641     1.0  0.95682  0.47663  0.18642  1.0000
  H   H2926     1.0  0.72526  0.99963  0.02460  1.0000
  C   C1642     1.0  0.98045  0.43709  0.22807  1.0000
  N   N88       1.0  0.79070  0.40650  0.22977  1.0000
  C   C1643     1.0  0.80844  0.05072  0.16296  1.0000
  C   C1644     1.0  0.75767  0.00142  0.09797  1.0000
  C   C1645     1.0  0.95895  0.12973  0.11412  1.0000
  H   H2927     1.0  0.83770  0.41342  0.19630  1.0000
  C   C1646     1.0  0.91962  0.11567  0.07891  1.0000
  C   C1647     1.0  0.77140  0.41426  0.22617  1.0000
  H   H2928     1.0  0.85143  0.22381  0.19096  1.0000
  H   H2929     1.0  0.80038  0.11727  0.14015  1.0000
  H   H2930     1.0  0.92005  0.07211  0.07046  1.0000
  H   H2931     1.0  0.82459  0.06938  0.16471  1.0000
  H   H2932     1.0  0.94742  0.33326  0.10742  1.0000
  H   H2933     1.0  0.90445  0.30243  0.10037  1.0000
  H   H2934     1.0  0.91990  0.10768  0.06821  1.0000
  H   H2935     1.0  0.76711  0.46872  0.22116  1.0000
  C   C1648     1.0  0.81543  0.23148  0.17460  1.0000
  C   C1649     1.0  0.73897  0.04630  0.14619  1.0000
  H   H2936     1.0  0.79335  0.37231  0.22939  1.0000
  H   H2937     1.0  0.68669  0.03266  0.05940  1.0000
  C   C1650     1.0  0.68142  0.01220  0.99496  1.0000
  H   H2938     1.0  0.96729  0.37972  0.05522  1.0000
  C   C1651     1.0  0.66540  0.14656  0.23475  1.0000
  C   C1652     1.0  0.96162  0.14668  0.12700  1.0000
  H   H2939     1.0  0.77844  0.05775  0.06518  1.0000
  C   C1653     1.0  0.77256  0.26759  0.19712  1.0000
  H   H2940     1.0  0.75304  0.44075  0.20997  1.0000
  H   H2941     1.0  0.87684  0.12002  0.07379  1.0000
  C   C1654     1.0  0.80605  0.25517  0.20096  1.0000
  C   C1655     1.0  0.82284  0.22917  0.15948  1.0000
  H   H2942     1.0  0.80238  0.32556  0.22559  1.0000
  C   C1656     1.0  0.95110  0.34281  0.09719  1.0000
  H   H2943     1.0  0.67230  0.01259  0.04372  1.0000
  H   H2944     1.0  0.78323  0.06009  0.17324  1.0000
  C   C1657     1.0  0.67856  0.99623  0.00616  1.0000
  H   H2945     1.0  0.96818  0.16606  0.12383  1.0000
  C   C1658     1.0  0.73532  0.08921  0.16180  1.0000
  H   H2946     1.0  0.80009  0.08831  0.15354  1.0000
  C   C1659     1.0  0.72171  0.02231  0.04743  1.0000
  H   H2947     1.0  0.79538  0.45089  0.21764  1.0000
  C   C1660     1.0  0.76299  0.08682  0.13616  1.0000
  C   C1661     1.0  0.79965  0.27496  0.19517  1.0000
  H   H2948     1.0  0.67266  0.99946  0.01637  1.0000
  H   H2949     1.0  0.83323  0.27104  0.17655  1.0000
  H   H2950     1.0  0.81075  0.29298  0.20110  1.0000
  H   H2951     1.0  0.72308  0.05874  0.04497  1.0000
  C   C1662     1.0  0.76993  0.06606  0.05808  1.0000
  C   C1663     1.0  0.74159  0.01821  0.02613  1.0000
  H   H2952     1.0  0.77938  0.03589  0.01862  1.0000
  C   C1664     1.0  0.78434  0.06972  0.15080  1.0000
  H   H2953     1.0  0.80295  0.27737  0.18368  1.0000
  H   H2954     1.0  0.76808  0.26480  0.20850  1.0000
  C   C1665     1.0  0.85497  0.23298  0.20174  1.0000
  H   H2955     1.0  0.75290  0.06411  0.06287  1.0000
  C   C1666     1.0  0.83446  0.25609  0.18231  1.0000
  H   H2956     1.0  0.71764  0.07177  0.16093  1.0000
  C   C1667     1.0  0.78162  0.11476  0.13792  1.0000
  H   H2957     1.0  0.92145  0.11788  0.10683  1.0000
  H   H2958     1.0  0.93268  0.33515  0.07609  1.0000
  N   N89       1.0  0.74594  0.02662  0.04165  1.0000
  H   H2959     1.0  0.96350  0.17112  0.08371  1.0000
  H   H2960     1.0  0.79161  0.23661  0.19687  1.0000
  H   H2961     1.0  0.93196  0.15154  0.06920  1.0000
  H   H2962     1.0  0.81356  0.21510  0.18022  1.0000
  C   C1668     1.0  0.96059  0.27986  0.99368  1.0000
  H   H2963     1.0  0.84052  0.22842  0.15970  1.0000
  H   H2964     1.0  0.96275  0.13277  0.06929  1.0000
  C   C1669     1.0  0.68569  0.03169  0.04758  1.0000
  N   N90       1.0  0.97789  0.35331  0.09391  1.0000
  H   H2965     1.0  0.82467  0.24504  0.15323  1.0000
  H   H2966     1.0  0.79590  0.14804  0.12588  1.0000
  C   C1670     1.0  0.91699  0.13908  0.07592  1.0000
  C   C1671     1.0  0.75599  0.00734  0.00329  1.0000
  H   H2967     1.0  0.78272  0.05623  0.03917  1.0000
  H   H2968     1.0  0.74298  0.32911  0.22734  1.0000
  H   H2969     1.0  0.94412  0.27455  0.99955  1.0000
  H   H2970     1.0  0.67782  0.12082  0.22757  1.0000
  H   H2971     1.0  0.73685  0.03061  0.01983  1.0000
  C   C1672     1.0  0.76471  0.05367  0.04287  1.0000
  C   C1673     1.0  0.98372  0.29192  0.00101  1.0000
  C   C1674     1.0  0.78786  0.09373  0.05793  1.0000
  C   C1675     1.0  0.87666  0.32965  0.20386  1.0000
  N   N91       1.0  0.76087  0.07156  0.14888  1.0000
  H   H2972     1.0  0.88473  0.34536  0.19667  1.0000
  H   H2973     1.0  0.94375  0.14008  0.13214  1.0000
  C   C1676     1.0  0.94008  0.12925  0.10269  1.0000
  H   H2974     1.0  0.85332  0.25889  0.18040  1.0000
  H   H2975     1.0  0.80846  0.03911  0.17181  1.0000
  H   H2976     1.0  0.84362  0.28786  0.21445  1.0000
  H   H2977     1.0  0.76992  0.37151  0.21793  1.0000
  S   S364      1.0  0.93132  0.47367  0.19634  1.0000
  C   C1677     1.0  0.93840  0.07907  0.07593  1.0000
  C   C1678     1.0  0.83336  0.23802  0.20579  1.0000
  C   C1679     1.0  0.85065  0.28290  0.20476  1.0000
  H   H2978     1.0  0.74390  0.03951  0.12364  1.0000
  H   H2979     1.0  0.93604  0.30933  0.08272  1.0000
  C   C1680     1.0  0.93234  0.32491  0.08568  1.0000
  H   H2980     1.0  0.77693  0.12403  0.14671  1.0000
  H   H2981     1.0  0.82324  0.43704  0.22178  1.0000
  C   C1681     1.0  0.71784  0.00525  0.13183  1.0000
  H   H2982     1.0  0.77439  0.10071  0.16551  1.0000
  C   C1682     1.0  0.93993  0.09408  0.08982  1.0000
  H   H2983     1.0  0.67890  0.04455  0.04386  1.0000
  C   C1683     1.0  0.75560  0.01219  0.05011  1.0000
  H   H2984     1.0  0.81018  0.04197  0.15284  1.0000
  C   C1684     1.0  0.78084  0.44262  0.22544  1.0000
  H   H2985     1.0  0.86701  0.28161  0.20895  1.0000
  H   H2986     1.0  0.95269  0.11078  0.11800  1.0000
  H   H2987     1.0  0.97736  0.13597  0.10973  1.0000
  H   H2988     1.0  0.74476  0.44020  0.22834  1.0000
  H   H2989     1.0  0.71998  0.99420  0.12290  1.0000
  Fe  Fe183     1.0  0.73456  0.17911  0.23478  1.0000
  C   C1685     1.0  0.98351  0.37639  0.05493  1.0000
  S   S365      1.0  0.69494  0.17357  0.23550  1.0000
  H   H2990     1.0  0.68312  0.48129  0.23303  1.0000
  H   H2991     1.0  0.75712  0.01748  0.06164  1.0000
  H   H2992     1.0  0.78845  0.45216  0.23597  1.0000
  C   C1686     1.0  0.98073  0.31484  0.10295  1.0000
  H   H2993     1.0  0.97571  0.28374  0.08880  1.0000
  C   C1687     1.0  0.98227  0.35868  0.06639  1.0000
  H   H2994     1.0  0.75707  0.40776  0.23425  1.0000
  H   H2995     1.0  0.84332  0.48606  0.21979  1.0000
  H   H2996     1.0  0.97699  0.47762  0.21878  1.0000
  H   H2997     1.0  0.71447  0.99456  0.14160  1.0000
  H   H2998     1.0  0.70169  0.00807  0.12918  1.0000
  H   H2999     1.0  0.97514  0.32164  0.08129  1.0000
  C   C1688     1.0  0.83914  0.34163  0.23503  1.0000
  C   C1689     1.0  0.97568  0.23184  0.08655  1.0000
  H   H3000     1.0  0.96517  0.34106  0.06429  1.0000
  H   H3001     1.0  0.70375  0.08366  0.23193  1.0000
  H   H3002     1.0  0.98362  0.36811  0.04428  1.0000
  H   H3003     1.0  0.96118  0.30548  0.10580  1.0000
  C   C1690     1.0  0.98399  0.37027  0.08154  1.0000
  H   H3004     1.0  0.98432  0.28177  0.10692  1.0000
  H   H3005     1.0  0.81046  0.19555  0.29121  1.0000
  H   H3006     1.0  0.76018  0.47592  0.27210  1.0000
  H   H3007     1.0  0.86394  0.18963  0.25912  1.0000
  Fe  Fe184     1.0  0.87688  0.12763  0.36126  1.0000
  S   S366      1.0  0.88325  0.12193  0.33836  1.0000
  S   S367      1.0  0.90838  0.15185  0.37740  1.0000
  Fe  Fe185     1.0  0.82219  0.08881  0.35795  1.0000
  S   S368      1.0  0.82508  0.08096  0.33466  1.0000
  S   S369      1.0  0.78534  0.07303  0.36914  1.0000
  Fe  Fe186     1.0  0.86067  0.08109  0.34136  1.0000
  S   S370      1.0  0.86924  0.05240  0.32996  1.0000
  Fe  Fe187     1.0  0.84749  0.12227  0.33308  1.0000
  S   S371      1.0  0.85010  0.14591  0.31398  1.0000
  S   S372      1.0  0.85631  0.08635  0.36474  1.0000
  S   S373      1.0  0.84256  0.13056  0.35598  1.0000
  Fe  Fe188     1.0  0.92641  0.45272  0.24921  1.0000
  S   S374      1.0  0.95783  0.45603  0.26434  1.0000
  H   H3008     1.0  0.77240  0.21437  0.28680  1.0000
  S   S375      1.0  0.88629  0.43580  0.25424  1.0000
  Fe  Fe189     1.0  0.77198  0.16760  0.25040  1.0000
  S   S376      1.0  0.75987  0.19670  0.25417  1.0000
  S   S377      1.0  0.76869  0.14417  0.26967  1.0000
  H   H3009     1.0  0.78396  0.20968  0.30372  1.0000
  H   H3010     1.0  0.93249  0.10469  0.39056  1.0000
  C   C1691     1.0  0.76233  0.00610  0.38758  1.0000
  H   H3011     1.0  0.67197  0.99631  0.34200  1.0000
  C   C1692     1.0  0.66212  0.01203  0.39270  1.0000
  H   H3012     1.0  0.86330  0.20618  0.31784  1.0000
  H   H3013     1.0  0.92066  0.25818  0.47257  1.0000
  H   H3014     1.0  0.94389  0.43958  0.34811  1.0000
  C   C1693     1.0  0.80112  0.41645  0.24462  1.0000
  H   H3015     1.0  0.98116  0.08353  0.32395  1.0000
  C   C1694     1.0  0.82694  0.14382  0.30149  1.0000
  C   C1695     1.0  0.80199  0.13224  0.30449  1.0000
  C   C1696     1.0  0.78446  0.13240  0.29461  1.0000
  C   C1697     1.0  0.79153  0.14387  0.28155  1.0000
  C   C1698     1.0  0.81636  0.15475  0.27837  1.0000
  C   C1699     1.0  0.83399  0.15511  0.28837  1.0000
  H   H3016     1.0  0.79626  0.12350  0.31452  1.0000
  H   H3017     1.0  0.76534  0.12363  0.29717  1.0000
  H   H3018     1.0  0.82186  0.16243  0.26809  1.0000
  H   H3019     1.0  0.85319  0.16379  0.28584  1.0000
  H   H3020     1.0  0.81621  0.24233  0.27644  1.0000
  C   C1700     1.0  0.93059  0.28074  0.42182  1.0000
  C   C1701     1.0  0.93525  0.03662  0.33535  1.0000
  C   C1702     1.0  0.92228  0.03191  0.32225  1.0000
  C   C1703     1.0  0.90210  0.03678  0.32079  1.0000
  C   C1704     1.0  0.89474  0.04651  0.33234  1.0000
  C   C1705     1.0  0.90728  0.05051  0.34551  1.0000
  C   C1706     1.0  0.92750  0.04576  0.34698  1.0000
  H   H3021     1.0  0.92802  0.02492  0.31320  1.0000
  H   H3022     1.0  0.89232  0.03331  0.31059  1.0000
  H   H3023     1.0  0.90112  0.05696  0.35459  1.0000
  H   H3024     1.0  0.94573  0.43389  0.29694  1.0000
  S   S378      1.0  0.96158  0.03211  0.33767  1.0000
  C   C1707     1.0  0.82282  0.23409  0.28486  1.0000
  C   C1708     1.0  0.90827  0.22322  0.46033  1.0000
  C   C1709     1.0  0.95705  0.23685  0.38246  1.0000
  C   C1710     1.0  0.96198  0.22081  0.39064  1.0000
  C   C1711     1.0  0.94693  0.19490  0.38892  1.0000
  C   C1712     1.0  0.92689  0.18466  0.37894  1.0000
  C   C1713     1.0  0.92221  0.20067  0.37060  1.0000
  C   C1714     1.0  0.93719  0.22657  0.37238  1.0000
  C   C1715     1.0  0.87235  0.22822  0.26281  1.0000
  H   H3025     1.0  0.95089  0.18270  0.39532  1.0000
  H   H3026     1.0  0.90695  0.19312  0.36284  1.0000
  H   H3027     1.0  0.93330  0.23876  0.36590  1.0000
  H   H3028     1.0  0.67166  0.15375  0.27496  1.0000
  H   H3029     1.0  0.90413  0.42681  0.35929  1.0000
  C   C1716     1.0  0.77646  0.02764  0.38009  1.0000
  C   C1717     1.0  0.76867  0.04563  0.37865  1.0000
  C   C1718     1.0  0.74670  0.04182  0.38492  1.0000
  H   H3030     1.0  0.83758  0.43812  0.26641  1.0000
  H   H3031     1.0  0.70155  0.11672  0.24611  1.0000
  H   H3032     1.0  0.79330  0.03027  0.37537  1.0000
  H   H3033     1.0  0.74059  0.05568  0.38397  1.0000
  H   H3034     1.0  0.87425  0.35111  0.24517  1.0000
  H   H3035     1.0  0.88705  0.21109  0.24801  1.0000
  H   H3036     1.0  0.95468  0.13884  0.37540  1.0000
  S   S379      1.0  0.80322  0.19233  0.23689  1.0000
  C   C1719     1.0  0.81830  0.40690  0.25112  1.0000
  H   H3037     1.0  0.94456  0.30060  0.42268  1.0000
  H   H3038     1.0  0.71492  0.02371  0.35293  1.0000
  N   N92       1.0  0.70168  0.48445  0.25338  1.0000
  H   H3039     1.0  0.68985  0.15545  0.29077  1.0000
  N   N93       1.0  0.95895  0.13117  0.34423  1.0000
  H   H3040     1.0  0.72573  0.13936  0.29451  1.0000
  H   H3041     1.0  0.97272  0.43614  0.23871  1.0000
  C   C1720     1.0  0.94775  0.13418  0.33047  1.0000
  C   C1721     1.0  0.93888  0.11963  0.35471  1.0000
  C   C1722     1.0  0.94753  0.11993  0.37039  1.0000
  Fe  Fe190     1.0  0.78934  0.22054  0.23945  1.0000
  C   C1723     1.0  0.92979  0.10977  0.32215  1.0000
  H   H3042     1.0  0.98216  0.12376  0.31996  1.0000
  C   C1724     1.0  0.74020  0.00215  0.39367  1.0000
  C   C1725     1.0  0.92642  0.10211  0.37916  1.0000
  H   H3043     1.0  0.72618  0.09419  0.24657  1.0000
  C   C1726     1.0  0.69017  0.15755  0.27913  1.0000
  H   H3044     1.0  0.74008  0.03514  0.45077  1.0000
  H   H3045     1.0  0.72239  0.45090  0.25653  1.0000
  S   S380      1.0  0.86260  0.48472  0.24873  1.0000
  C   C1727     1.0  0.96363  0.22337  0.42865  1.0000
  H   H3046     1.0  0.95352  0.16829  0.36000  1.0000
  H   H3047     1.0  0.93717  0.14444  0.33252  1.0000
  H   H3048     1.0  0.92689  0.12869  0.35476  1.0000
  H   H3049     1.0  0.92626  0.10011  0.35130  1.0000
  H   H3050     1.0  0.73492  0.02115  0.42482  1.0000
  H   H3051     1.0  0.73693  0.47074  0.24215  1.0000
  H   H3052     1.0  0.95646  0.23972  0.44710  1.0000
  C   C1728     1.0  0.71417  0.11953  0.29666  1.0000
  H   H3053     1.0  0.91397  0.09861  0.32866  1.0000
  C   C1729     1.0  0.72968  0.01501  0.44776  1.0000
  H   H3054     1.0  0.91001  0.12603  0.31066  1.0000
  H   H3055     1.0  0.69550  0.14227  0.25976  1.0000
  H   H3056     1.0  0.83740  0.22827  0.25982  1.0000
  C   C1730     1.0  0.69331  0.09802  0.25040  1.0000
  C   C1731     1.0  0.82689  0.41757  0.26630  1.0000
  H   H3057     1.0  0.96198  0.42566  0.31745  1.0000
  C   C1732     1.0  0.85624  0.33620  0.24204  1.0000
  H   H3058     1.0  0.91034  0.10558  0.37809  1.0000
  S   S381      1.0  0.82043  0.26051  0.24472  1.0000
  H   H3059     1.0  0.72969  0.01704  0.47706  1.0000
  C   C1733     1.0  0.73917  0.00552  0.47783  1.0000
  C   C1734     1.0  0.82679  0.29155  0.24096  1.0000
  H   H3060     1.0  0.93476  0.12508  0.30111  1.0000
  H   H3061     1.0  0.89347  0.39910  0.34783  1.0000
  N   N94       1.0  0.92211  0.22269  0.43446  1.0000
  C   C1735     1.0  0.92514  0.23634  0.42092  1.0000
  C   C1736     1.0  0.90173  0.19642  0.43195  1.0000
  C   C1737     1.0  0.94558  0.22306  0.43991  1.0000
  C   C1738     1.0  0.85010  0.31140  0.24495  1.0000
  C   C1739     1.0  0.94349  0.26457  0.42194  1.0000
  C   C1740     1.0  0.90563  0.18007  0.42045  1.0000
  C   C1741     1.0  0.88226  0.15549  0.41751  1.0000
  H   H3062     1.0  0.68721  0.01582  0.43750  1.0000
  H   H3063     1.0  0.92257  0.45525  0.28707  1.0000
  H   H3064     1.0  0.90695  0.23355  0.41663  1.0000
  H   H3065     1.0  0.93158  0.22839  0.41228  1.0000
  H   H3066     1.0  0.89854  0.18601  0.44183  1.0000
  H   H3067     1.0  0.88414  0.19664  0.42913  1.0000
  H   H3068     1.0  0.97821  0.20288  0.44075  1.0000
  H   H3069     1.0  0.94125  0.20698  0.44666  1.0000
  H   H3070     1.0  0.88303  0.26946  0.27635  1.0000
  N   N95       1.0  0.68497  0.11316  0.27477  1.0000
  H   H3071     1.0  0.95648  0.26998  0.43131  1.0000
  H   H3072     1.0  0.95504  0.26914  0.41249  1.0000
  H   H3073     1.0  0.91059  0.18908  0.41015  1.0000
  H   H3074     1.0  0.92015  0.17547  0.42420  1.0000
  H   H3075     1.0  0.86710  0.15877  0.41325  1.0000
  H   H3076     1.0  0.88578  0.14409  0.40939  1.0000
  H   H3077     1.0  0.87650  0.14496  0.42734  1.0000
  C   C1742     1.0  0.69667  0.09981  0.26683  1.0000
  C   C1743     1.0  0.73143  0.07280  0.48594  1.0000
  C   C1744     1.0  0.73525  0.47015  0.25383  1.0000
  H   H3078     1.0  0.92824  0.25469  0.44782  1.0000
  H   H3079     1.0  0.95705  0.47342  0.30808  1.0000
  C   C1745     1.0  0.75917  0.36454  0.23949  1.0000
  H   H3080     1.0  0.69620  0.02213  0.41942  1.0000
  C   C1746     1.0  0.84732  0.22410  0.26852  1.0000
  H   H3081     1.0  0.85628  0.27067  0.26988  1.0000
  H   H3082     1.0  0.67362  0.08792  0.24688  1.0000
  C   C1747     1.0  0.68751  0.10960  0.29042  1.0000
  H   H3083     1.0  0.76611  0.37087  0.25060  1.0000
  H   H3084     1.0  0.97880  0.47677  0.34497  1.0000
  C   C1748     1.0  0.68174  0.46073  0.25882  1.0000
  H   H3085     1.0  0.92371  0.22035  0.46449  1.0000
  H   H3086     1.0  0.79508  0.04357  0.44803  1.0000
  C   C1749     1.0  0.71975  0.01226  0.43221  1.0000
  H   H3087     1.0  0.98010  0.11357  0.35198  1.0000
  H   H3088     1.0  0.73641  0.03107  0.33059  1.0000
  C   C1750     1.0  0.91386  0.23516  0.44562  1.0000
  H   H3089     1.0  0.83891  0.41026  0.27079  1.0000
  H   H3090     1.0  0.71609  0.01796  0.39733  1.0000
  H   H3091     1.0  0.81115  0.05955  0.42475  1.0000
  C   C1751     1.0  0.96944  0.17566  0.35309  1.0000
  C   C1752     1.0  0.71453  0.11716  0.31277  1.0000
  H   H3092     1.0  0.86034  0.22648  0.33099  1.0000
  C   C1753     1.0  0.98337  0.28802  0.46963  1.0000
  H   H3093     1.0  0.65586  0.11025  0.26015  1.0000
  H   H3094     1.0  0.93719  0.04917  0.35720  1.0000
  Fe  Fe191     1.0  0.88444  0.46496  0.24062  1.0000
  H   H3095     1.0  0.89712  0.23610  0.44167  1.0000
  H   H3096     1.0  0.73633  0.32695  0.24594  1.0000
  H   H3097     1.0  0.70117  0.19673  0.28223  1.0000
  H   H3098     1.0  0.96385  0.18124  0.34310  1.0000
  H   H3099     1.0  0.88022  0.24101  0.29397  1.0000
  H   H3100     1.0  0.71336  0.00778  0.45449  1.0000
  C   C1754     1.0  0.96993  0.47885  0.33503  1.0000
  H   H3101     1.0  0.88806  0.24223  0.46797  1.0000
  H   H3102     1.0  0.90626  0.09712  0.30300  1.0000
  C   C1755     1.0  0.91969  0.11497  0.30840  1.0000
  H   H3103     1.0  0.97152  0.24114  0.42325  1.0000
  C   C1756     1.0  0.75708  0.01099  0.46550  1.0000
  C   C1757     1.0  0.79803  0.03957  0.42554  1.0000
  H   H3104     1.0  0.76596  0.18360  0.29160  1.0000
  H   H3105     1.0  0.83226  0.21921  0.31050  1.0000
  H   H3106     1.0  0.81093  0.41218  0.27317  1.0000
  H   H3107     1.0  0.88039  0.24527  0.25662  1.0000
  H   H3108     1.0  0.79804  0.19824  0.27435  1.0000
  H   H3109     1.0  0.71369  0.04467  0.43347  1.0000
  C   C1758     1.0  0.80330  0.20645  0.28535  1.0000
  H   H3110     1.0  0.85483  0.25110  0.31227  1.0000
  H   H3111     1.0  0.88028  0.28310  0.30018  1.0000
  H   H3112     1.0  0.86958  0.31386  0.27847  1.0000
  C   C1759     1.0  0.86828  0.28453  0.29167  1.0000
  C   C1760     1.0  0.85198  0.23228  0.30930  1.0000
  N   N96       1.0  0.84859  0.23863  0.28206  1.0000
  C   C1761     1.0  0.88121  0.31109  0.28669  1.0000
  C   C1762     1.0  0.86426  0.26570  0.27926  1.0000
  H   H3113     1.0  0.93878  0.09836  0.31919  1.0000
  H   H3114     1.0  0.85075  0.28167  0.29616  1.0000
  C   C1763     1.0  0.77999  0.20346  0.29232  1.0000
  H   H3115     1.0  0.82232  0.24363  0.29493  1.0000
  H   H3116     1.0  0.91971  0.27742  0.41167  1.0000
  H   H3117     1.0  0.89920  0.31528  0.28221  1.0000
  C   C1764     1.0  0.85979  0.23043  0.29393  1.0000
  H   H3118     1.0  0.92071  0.08262  0.37566  1.0000
  H   H3119     1.0  0.83631  0.20398  0.27004  1.0000
  H   H3120     1.0  0.88454  0.32432  0.29583  1.0000
  H   H3121     1.0  0.85535  0.21064  0.29206  1.0000
  H   H3122     1.0  0.88571  0.23037  0.27153  1.0000
  C   C1765     1.0  0.93118  0.43512  0.30314  1.0000
  C   C1766     1.0  0.86935  0.20654  0.25298  1.0000
  C   C1767     1.0  0.70768  0.18475  0.27670  1.0000
  H   H3123     1.0  0.89127  0.20513  0.45960  1.0000
  H   H3124     1.0  0.88648  0.23841  0.31985  1.0000
  C   C1768     1.0  0.70615  0.08435  0.24370  1.0000
  H   H3125     1.0  0.91829  0.27701  0.43084  1.0000
  C   C1769     1.0  0.86648  0.22545  0.32011  1.0000
  C   C1770     1.0  0.73265  0.02034  0.39244  1.0000
  C   C1771     1.0  0.70322  0.02452  0.43062  1.0000
  H   H3126     1.0  0.80866  0.02914  0.42639  1.0000
  H   H3127     1.0  0.92114  0.41750  0.30861  1.0000
  H   H3128     1.0  0.78615  0.41272  0.25206  1.0000
  H   H3129     1.0  0.96229  0.11450  0.37123  1.0000
  H   H3130     1.0  0.87655  0.41645  0.34821  1.0000
  Fe  Fe192     1.0  0.97384  0.01039  0.32256  1.0000
  H   H3131     1.0  0.72277  0.10869  0.29208  1.0000
  H   H3132     1.0  0.85513  0.20257  0.24444  1.0000
  C   C1772     1.0  0.67990  0.00488  0.48324  1.0000
  N   N97       1.0  0.74493  0.00217  0.45089  1.0000
  C   C1773     1.0  0.94309  0.45774  0.31391  1.0000
  H   H3133     1.0  0.93326  0.41649  0.33425  1.0000
  H   H3134     1.0  0.70834  0.18835  0.26520  1.0000
  C   C1774     1.0  0.72613  0.07380  0.47008  1.0000
  C   C1775     1.0  0.93634  0.43565  0.33691  1.0000
  H   H3135     1.0  0.74158  0.07492  0.46376  1.0000
  H   H3136     1.0  0.69359  0.01340  0.37196  1.0000
  H   H3137     1.0  0.78616  0.03318  0.41563  1.0000
  C   C1776     1.0  0.97850  0.15630  0.34977  1.0000
  H   H3138     1.0  0.71848  0.14776  0.27284  1.0000
  H   H3139     1.0  0.73379  0.12399  0.31686  1.0000
  H   H3140     1.0  0.92902  0.46354  0.31639  1.0000
  S   S382      1.0  0.97518  0.26969  0.38426  1.0000
  H   H3141     1.0  0.76680  0.46347  0.25616  1.0000
  H   H3142     1.0  0.90653  0.42205  0.28439  1.0000
  C   C1777     1.0  0.70053  0.48228  0.23734  1.0000
  C   C1778     1.0  0.90415  0.23972  0.47128  1.0000
  H   H3143     1.0  0.68405  0.46017  0.27055  1.0000
  C   C1779     1.0  0.69822  0.14016  0.27125  1.0000
  C   C1780     1.0  0.76449  0.00798  0.44016  1.0000
  H   H3144     1.0  0.97754  0.22840  0.39817  1.0000
  H   H3145     1.0  0.77260  0.04696  0.43712  1.0000
  H   H3146     1.0  0.76644  0.33294  0.24059  1.0000
  H   H3147     1.0  0.71687  0.10910  0.26913  1.0000
  H   H3148     1.0  0.98283  0.21278  0.36243  1.0000
  H   H3149     1.0  0.77616  0.99920  0.44291  1.0000
  H   H3150     1.0  0.77070  0.09647  0.48482  1.0000
  H   H3151     1.0  0.72323  0.09008  0.46807  1.0000
  H   H3152     1.0  0.80903  0.38644  0.25158  1.0000
  H   H3153     1.0  0.67872  0.11828  0.29700  1.0000
  H   H3154     1.0  0.95459  0.20833  0.42041  1.0000
  C   C1781     1.0  0.91328  0.43752  0.29256  1.0000
  H   H3155     1.0  0.67736  0.08946  0.29252  1.0000
  H   H3156     1.0  0.95598  0.09488  0.33974  1.0000
  H   H3157     1.0  0.76893  0.03143  0.46597  1.0000
  H   H3158     1.0  0.72648  0.18982  0.28095  1.0000
  H   H3159     1.0  0.68947  0.08053  0.27048  1.0000
  H   H3160     1.0  0.70919  0.05679  0.46645  1.0000
  H   H3161     1.0  0.86363  0.30759  0.25028  1.0000
  H   H3162     1.0  0.68337  0.44455  0.25434  1.0000
  C   C1782     1.0  0.65807  0.10156  0.26994  1.0000
  H   H3163     1.0  0.70696  0.12843  0.31807  1.0000
  H   H3164     1.0  0.69814  0.06507  0.24730  1.0000
  H   H3165     1.0  0.70365  0.09748  0.31551  1.0000
  H   H3166     1.0  0.96230  0.14596  0.32324  1.0000
  C   C1783     1.0  0.97516  0.30564  0.47177  1.0000
  C   C1784     1.0  0.97230  0.44441  0.32278  1.0000
  H   H3167     1.0  0.68048  0.02862  0.39400  1.0000
  H   H3168     1.0  0.76986  0.00326  0.46787  1.0000
  S   S383      1.0  0.92538  0.48360  0.23725  1.0000
  C   C1785     1.0  0.78241  0.03588  0.43851  1.0000
  C   C1786     1.0  0.76065  0.47674  0.26034  1.0000
  C   C1787     1.0  0.89527  0.41805  0.34878  1.0000
  H   H3169     1.0  0.72297  0.99970  0.34856  1.0000
  H   H3170     1.0  0.95648  0.31948  0.48569  1.0000
  H   H3171     1.0  0.68234  0.02314  0.48110  1.0000
  H   H3172     1.0  0.90070  0.23110  0.48178  1.0000
  H   H3173     1.0  0.70542  0.02594  0.32731  1.0000
  C   C1788     1.0  0.96264  0.30570  0.48419  1.0000
  C   C1789     1.0  0.67454  0.99816  0.37001  1.0000
  C   C1790     1.0  0.72623  0.48846  0.25947  1.0000
  C   C1791     1.0  0.91029  0.43375  0.33677  1.0000
  H   H3174     1.0  0.74278  0.36725  0.23751  1.0000
  H   H3175     1.0  0.90007  0.42478  0.32660  1.0000
  H   H3176     1.0  0.81216  0.43703  0.24484  1.0000
  H   H3177     1.0  0.89724  0.43681  0.29807  1.0000
  N   N98       1.0  0.95481  0.45401  0.32727  1.0000
  H   H3178     1.0  0.83476  0.41257  0.24470  1.0000
  H   H3179     1.0  0.65480  0.00627  0.40338  1.0000
  H   H3180     1.0  0.84751  0.99580  0.33692  1.0000
  H   H3181     1.0  0.98225  0.48036  0.23734  1.0000
  C   C1792     1.0  0.71051  0.00748  0.34563  1.0000
  H   H3182     1.0  0.66447  0.00684  0.36455  1.0000
  C   C1793     1.0  0.75076  0.33670  0.23821  1.0000
  H   H3183     1.0  0.75594  0.99949  0.42948  1.0000
  H   H3184     1.0  0.71346  0.00162  0.32294  1.0000
  H   H3185     1.0  0.70896  0.99244  0.42885  1.0000
  C   C1794     1.0  0.97862  0.27038  0.48005  1.0000
  C   C1795     1.0  0.65487  0.45548  0.25537  1.0000
  H   H3186     1.0  0.97863  0.31938  0.46394  1.0000
  H   H3187     1.0  0.76848  0.99227  0.38851  1.0000
  H   H3188     1.0  0.97796  0.43273  0.34399  1.0000
  C   C1796     1.0  0.71669  0.01702  0.33067  1.0000
  C   C1797     1.0  0.97044  0.11434  0.34205  1.0000
  H   H3189     1.0  0.72574  0.48711  0.27123  1.0000
  H   H3190     1.0  0.91089  0.45207  0.33791  1.0000
  C   C1798     1.0  0.97657  0.47835  0.27792  1.0000
  H   H3191     1.0  0.94296  0.48334  0.34787  1.0000
  H   H3192     1.0  0.65118  0.47015  0.26014  1.0000
  Fe  Fe193     1.0  0.73695  0.05778  0.55849  1.0000
  S   S384      1.0  0.70855  0.06259  0.54555  1.0000
  S   S385      1.0  0.77804  0.08577  0.56232  1.0000
  Fe  Fe194     1.0  0.69998  0.00377  0.56450  1.0000
  S   S386      1.0  0.66934  0.00527  0.55133  1.0000
  Fe  Fe195     1.0  0.69819  0.02484  0.53530  1.0000
  H   H3193     1.0  0.96652  0.33299  0.54124  1.0000
  Fe  Fe196     1.0  0.68161  0.04255  0.56248  1.0000
  H   H3194     1.0  0.82592  0.47644  0.57901  1.0000
  S   S387      1.0  0.72783  0.02077  0.54765  1.0000
  S   S388      1.0  0.71103  0.04028  0.57623  1.0000
  Fe  Fe197     1.0  0.88628  0.22638  0.54652  1.0000
  S   S389      1.0  0.90718  0.23903  0.56765  1.0000
  S   S390      1.0  0.84534  0.19735  0.54369  1.0000
  Fe  Fe198     1.0  0.92959  0.26712  0.53055  1.0000
  S   S391      1.0  0.95293  0.28179  0.55089  1.0000
  S   S392      1.0  0.94187  0.28919  0.51007  1.0000
  Fe  Fe199     1.0  0.93977  0.24187  0.55580  1.0000
  H   H3195     1.0  0.67404  0.22158  0.67515  1.0000
  Fe  Fe200     1.0  0.91865  0.27820  0.56123  1.0000
  S   S393      1.0  0.92196  0.30819  0.57797  1.0000
  S   S394      1.0  0.91812  0.22707  0.53479  1.0000
  S   S395      1.0  0.89596  0.26551  0.54075  1.0000
  Fe  Fe201     1.0  0.89045  0.46782  0.61271  1.0000
  S   S396      1.0  0.88668  0.46037  0.63620  1.0000
  Fe  Fe202     1.0  0.88678  0.41622  0.60556  1.0000
  S   S397      1.0  0.88315  0.40652  0.62846  1.0000
  S   S398      1.0  0.88194  0.38756  0.58754  1.0000
  Fe  Fe203     1.0  0.85645  0.42209  0.62957  1.0000
  S   S399      1.0  0.82252  0.40240  0.64325  1.0000
  Fe  Fe204     1.0  0.91340  0.44544  0.63339  1.0000
  S   S400      1.0  0.94595  0.45050  0.64804  1.0000
  S   S401      1.0  0.85856  0.43033  0.60635  1.0000
  S   S402      1.0  0.91885  0.45450  0.61020  1.0000
  H   H3196     1.0  0.84947  0.37319  0.65097  1.0000
  H   H3197     1.0  0.66743  0.05673  0.61109  1.0000
  C   C1799     1.0  0.67630  0.02564  0.61307  1.0000
  H   H3198     1.0  0.71066  0.40724  0.64144  1.0000
  Fe  Fe205     1.0  0.67461  0.32542  0.65439  1.0000
  S   S403      1.0  0.70444  0.34103  0.63776  1.0000
  S   S404      1.0  0.67272  0.34772  0.67328  1.0000
  C   C1800     1.0  0.81250  0.37841  0.58571  1.0000
  H   H3199     1.0  0.83094  0.16385  0.50965  1.0000
  H   H3200     1.0  0.93580  0.12800  0.61301  1.0000
  Fe  Fe206     1.0  0.65635  0.31202  0.68485  1.0000
  H   H3201     1.0  0.66841  0.24375  0.66553  1.0000
  C   C1801     1.0  0.78966  0.38591  0.64141  1.0000
  C   C1802     1.0  0.77675  0.38258  0.62840  1.0000
  C   C1803     1.0  0.75079  0.36875  0.62750  1.0000
  C   C1804     1.0  0.73723  0.35853  0.63962  1.0000
  C   C1805     1.0  0.75011  0.36218  0.65266  1.0000
  C   C1806     1.0  0.77609  0.37561  0.65351  1.0000
  H   H3202     1.0  0.78676  0.39078  0.61906  1.0000
  H   H3203     1.0  0.74111  0.36606  0.61735  1.0000
  H   H3204     1.0  0.74008  0.35448  0.66210  1.0000
  H   H3205     1.0  0.78576  0.37811  0.66366  1.0000
  H   H3206     1.0  0.97658  0.35292  0.51443  1.0000
  H   H3207     1.0  0.75009  0.13583  0.51732  1.0000
  H   H3208     1.0  0.85232  0.00417  0.63628  1.0000
  C   C1807     1.0  0.90981  0.32946  0.58063  1.0000
  C   C1808     1.0  0.91911  0.34693  0.59221  1.0000
  C   C1809     1.0  0.91057  0.36449  0.59466  1.0000
  C   C1810     1.0  0.89265  0.36502  0.58547  1.0000
  C   C1811     1.0  0.88316  0.34739  0.57395  1.0000
  C   C1812     1.0  0.89148  0.32963  0.57161  1.0000
  H   H3209     1.0  0.93316  0.34697  0.59935  1.0000
  H   H3210     1.0  0.91812  0.37782  0.60358  1.0000
  H   H3211     1.0  0.86920  0.34744  0.56679  1.0000
  H   H3212     1.0  0.88363  0.31602  0.56287  1.0000
  H   H3213     1.0  0.76538  0.28314  0.61968  1.0000
  H   H3214     1.0  0.73571  0.42094  0.61075  1.0000
  H   H3215     1.0  0.90103  0.18691  0.57085  1.0000
  H   H3216     1.0  0.70933  0.07467  0.62243  1.0000
  H   H3217     1.0  0.84583  0.19563  0.59869  1.0000
  N   N99       1.0  0.95663  0.36255  0.53954  1.0000
  C   C1813     1.0  0.79631  0.11683  0.55704  1.0000
  C   C1814     1.0  0.78594  0.13123  0.55185  1.0000
  C   C1815     1.0  0.80121  0.15581  0.54797  1.0000
  C   C1816     1.0  0.82706  0.16641  0.54915  1.0000
  C   C1817     1.0  0.83742  0.15193  0.55421  1.0000
  C   C1818     1.0  0.82216  0.12741  0.55821  1.0000
  H   H3218     1.0  0.76615  0.12357  0.55104  1.0000
  H   H3219     1.0  0.79292  0.16679  0.54411  1.0000
  H   H3220     1.0  0.85718  0.15962  0.55492  1.0000
  H   H3221     1.0  0.83044  0.11648  0.56216  1.0000
  H   H3222     1.0  0.69061  0.02157  0.60854  1.0000
  H   H3223     1.0  0.71829  0.11415  0.53458  1.0000
  H   H3224     1.0  0.72895  0.11753  0.50275  1.0000
  H   H3225     1.0  0.67975  0.29460  0.73475  1.0000
  H   H3226     1.0  0.84595  0.17820  0.61393  1.0000
  H   H3227     1.0  0.70931  0.42946  0.66339  1.0000
  N   N100      1.0  0.76253  0.09783  0.50687  1.0000
  S   S405      1.0  0.96186  0.22259  0.56347  1.0000
  C   C1819     1.0  0.78667  0.12101  0.51039  1.0000
  H   H3228     1.0  0.67510  0.44588  0.61847  1.0000
  C   C1820     1.0  0.74262  0.09711  0.51614  1.0000
  H   H3229     1.0  0.79727  0.14082  0.49060  1.0000
  H   H3230     1.0  0.66317  0.36145  0.62748  1.0000
  C   C1821     1.0  0.77544  0.07480  0.52531  1.0000
  C   C1822     1.0  0.79267  0.14408  0.50154  1.0000
  C   C1823     1.0  0.81480  0.16715  0.50808  1.0000
  C   C1824     1.0  0.93069  0.40631  0.55340  1.0000
  H   H3231     1.0  0.84344  0.00079  0.58186  1.0000
  C   C1825     1.0  0.76618  0.07561  0.50996  1.0000
  C   C1826     1.0  0.96609  0.27043  0.49246  1.0000
  H   H3232     1.0  0.91787  0.01790  0.63842  1.0000
  H   H3233     1.0  0.78793  0.12673  0.52184  1.0000
  C   C1827     1.0  0.89963  0.17115  0.57715  1.0000
  H   H3234     1.0  0.96560  0.39050  0.55648  1.0000
  H   H3235     1.0  0.73275  0.05553  0.48732  1.0000
  C   C1828     1.0  0.68397  0.99964  0.49725  1.0000
  H   H3236     1.0  0.74861  0.09909  0.52754  1.0000
  H   H3237     1.0  0.77709  0.14829  0.50066  1.0000
  H   H3238     1.0  0.65967  0.40234  0.64782  1.0000
  H   H3239     1.0  0.80256  0.11726  0.50897  1.0000
  H   H3240     1.0  0.68095  0.02893  0.62470  1.0000
  H   H3241     1.0  0.76079  0.07151  0.53285  1.0000
  H   H3242     1.0  0.79204  0.09222  0.52875  1.0000
  H   H3243     1.0  0.77158  0.31958  0.60840  1.0000
  H   H3244     1.0  0.72995  0.39235  0.60162  1.0000
  C   C1829     1.0  0.83062  0.99425  0.59072  1.0000
  C   C1830     1.0  0.78189  0.05363  0.52656  1.0000
  C   C1831     1.0  0.74761  0.29846  0.63306  1.0000
  C   C1832     1.0  0.83856  0.31304  0.60501  1.0000
  H   H3245     1.0  0.68346  0.40156  0.66908  1.0000
  C   C1833     1.0  0.93999  0.39425  0.54233  1.0000
  H   H3246     1.0  0.80142  0.36489  0.57696  1.0000
  H   H3247     1.0  0.76563  0.03557  0.52357  1.0000
  H   H3248     1.0  0.81989  0.18289  0.50100  1.0000
  C   C1834     1.0  0.89920  0.01491  0.64098  1.0000
  C   C1835     1.0  0.72190  0.40482  0.60414  1.0000
  H   H3249     1.0  0.72596  0.07867  0.51497  1.0000
  H   H3250     1.0  0.71785  0.41134  0.59402  1.0000
  H   H3251     1.0  0.73485  0.29861  0.62456  1.0000
  H   H3252     1.0  0.83411  0.35343  0.59760  1.0000
  H   H3253     1.0  0.95503  0.40933  0.53678  1.0000
  H   H3254     1.0  0.85365  0.32468  0.61283  1.0000
  H   H3255     1.0  0.88051  0.15605  0.57533  1.0000
  H   H3256     1.0  0.91623  0.17569  0.54941  1.0000
  H   H3257     1.0  0.97720  0.01194  0.61917  1.0000
  H   H3258     1.0  0.68529  0.37883  0.64699  1.0000
  H   H3259     1.0  0.93543  0.17280  0.57234  1.0000
  H   H3260     1.0  0.85951  0.00184  0.60618  1.0000
  H   H3261     1.0  0.85497  0.15015  0.59817  1.0000
  H   H3262     1.0  0.72038  0.06628  0.60658  1.0000
  H   H3263     1.0  0.69282  0.25437  0.67904  1.0000
  C   C1836     1.0  0.91553  0.16064  0.57022  1.0000
  C   C1837     1.0  0.84254  0.17718  0.60224  1.0000
  H   H3264     1.0  0.98141  0.44903  0.66779  1.0000
  H   H3265     1.0  0.79725  0.05644  0.51965  1.0000
  C   C1838     1.0  0.67389  0.23967  0.67605  1.0000
  S   S406      1.0  0.96889  0.00572  0.68574  1.0000
  H   H3266     1.0  0.92465  0.38358  0.53447  1.0000
  H   H3267     1.0  0.80408  0.33169  0.59093  1.0000
  H   H3268     1.0  0.78263  0.29925  0.63557  1.0000
  H   H3269     1.0  0.92772  0.22589  0.61100  1.0000
  H   H3270     1.0  0.89762  0.03170  0.63833  1.0000
  H   H3271     1.0  0.90368  0.34273  0.54116  1.0000
  C   C1839     1.0  0.93028  0.20123  0.59448  1.0000
  C   C1840     1.0  0.90218  0.15782  0.60165  1.0000
  C   C1841     1.0  0.88669  0.18766  0.59724  1.0000
  H   H3272     1.0  0.88993  0.20481  0.59177  1.0000
  H   H3273     1.0  0.88713  0.14010  0.59693  1.0000
  C   C1842     1.0  0.93724  0.21446  0.60948  1.0000
  C   C1843     1.0  0.82855  0.34796  0.62489  1.0000
  S   S407      1.0  0.65797  0.05964  0.57159  1.0000
  H   H3274     1.0  0.91474  0.39195  0.55878  1.0000
  H   H3275     1.0  0.83232  0.38621  0.58350  1.0000
  H   H3276     1.0  0.85803  0.29297  0.59841  1.0000
  H   H3277     1.0  0.96934  0.24100  0.62210  1.0000
  C   C1844     1.0  0.69845  0.39080  0.61225  1.0000
  H   H3278     1.0  0.93455  0.15437  0.59417  1.0000
  H   H3279     1.0  0.90593  0.11385  0.60399  1.0000
  H   H3280     1.0  0.88797  0.32652  0.51663  1.0000
  C   C1845     1.0  0.89089  0.31471  0.52440  1.0000
  H   H3281     1.0  0.83721  0.27897  0.61248  1.0000
  H   H3282     1.0  0.81774  0.38041  0.60840  1.0000
  H   H3283     1.0  0.70901  0.08852  0.60582  1.0000
  C   C1846     1.0  0.93562  0.34628  0.52925  1.0000
  H   H3284     1.0  0.93177  0.20101  0.61802  1.0000
  H   H3285     1.0  0.68543  0.42807  0.64109  1.0000
  H   H3286     1.0  0.80771  0.39381  0.58599  1.0000
  C   C1847     1.0  0.95802  0.28816  0.49466  1.0000
  H   H3287     1.0  0.78769  0.05308  0.53776  1.0000
  H   H3288     1.0  0.71300  0.40264  0.66719  1.0000
  H   H3289     1.0  0.94543  0.41753  0.56153  1.0000
  H   H3290     1.0  0.91051  0.14204  0.57424  1.0000
  H   H3291     1.0  0.84779  0.34703  0.66008  1.0000
  H   H3292     1.0  0.93916  0.16930  0.61129  1.0000
  H   H3293     1.0  0.76740  0.03125  0.49312  1.0000
  C   C1848     1.0  0.65628  0.23916  0.68736  1.0000
  H   H3294     1.0  0.97696  0.32796  0.57186  1.0000
  H   H3295     1.0  0.88927  0.19282  0.60882  1.0000
  H   H3296     1.0  0.78733  0.35907  0.60165  1.0000
  H   H3297     1.0  0.69702  0.09490  0.52032  1.0000
  N   N101      1.0  0.90502  0.17913  0.59273  1.0000
  C   C1849     1.0  0.77089  0.29996  0.62673  1.0000
  H   H3298     1.0  0.82636  0.36480  0.62673  1.0000
  H   H3299     1.0  0.70022  0.42605  0.61879  1.0000
  C   C1850     1.0  0.84927  0.35500  0.64948  1.0000
  C   C1851     1.0  0.71309  0.11324  0.52310  1.0000
  H   H3300     1.0  0.93197  0.21558  0.58692  1.0000
  H   H3301     1.0  0.67812  0.04865  0.59526  1.0000
  H   H3302     1.0  0.91032  0.12907  0.62142  1.0000
  H   H3303     1.0  0.86686  0.35784  0.64497  1.0000
  S   S408      1.0  0.69493  0.02400  0.51077  1.0000
  H   H3304     1.0  0.85390  0.16717  0.58305  1.0000
  H   H3305     1.0  0.84223  0.32236  0.59475  1.0000
  H   H3306     1.0  0.78358  0.33929  0.62398  1.0000
  H   H3307     1.0  0.87321  0.30315  0.52943  1.0000
  C   C1852     1.0  0.96486  0.23192  0.61128  1.0000
  H   H3308     1.0  0.70761  0.12787  0.52128  1.0000
  C   C1853     1.0  0.73475  0.11740  0.51396  1.0000
  H   H3309     1.0  0.74862  0.05811  0.50831  1.0000
  H   H3310     1.0  0.91161  0.31835  0.54378  1.0000
  C   C1854     1.0  0.70012  0.40888  0.66265  1.0000
  H   H3311     1.0  0.68602  0.37398  0.60566  1.0000
  S   S409      1.0  0.66708  0.30383  0.70682  1.0000
  C   C1855     1.0  0.81432  0.34476  0.60011  1.0000
  H   H3312     1.0  0.89707  0.01213  0.65259  1.0000
  H   H3313     1.0  0.98171  0.36985  0.56744  1.0000
  H   H3314     1.0  0.73799  0.28107  0.63881  1.0000
  C   C1856     1.0  0.96137  0.46928  0.66364  1.0000
  H   H3315     1.0  0.70345  0.38441  0.62206  1.0000
  C   C1857     1.0  0.68571  0.40716  0.61522  1.0000
  H   H3316     1.0  0.94784  0.33411  0.55474  1.0000
  C   C1858     1.0  0.92536  0.15424  0.60412  1.0000
  H   H3317     1.0  0.92232  0.14965  0.54936  1.0000
  H   H3318     1.0  0.89611  0.15974  0.61246  1.0000
  H   H3319     1.0  0.82227  0.99317  0.61901  1.0000
  C   C1859     1.0  0.82742  0.33740  0.63975  1.0000
  H   H3320     1.0  0.76125  0.99930  0.49405  1.0000
  H   H3321     1.0  0.80989  0.29681  0.61992  1.0000
  C   C1860     1.0  0.96343  0.34616  0.54825  1.0000
  C   C1861     1.0  0.70641  0.07119  0.61073  1.0000
  C   C1862     1.0  0.91883  0.12975  0.61107  1.0000
  C   C1863     1.0  0.95809  0.48950  0.66818  1.0000
  C   C1864     1.0  0.94954  0.37768  0.54951  1.0000
  H   H3322     1.0  0.75235  0.31439  0.64072  1.0000
  H   H3323     1.0  0.81059  0.33524  0.64496  1.0000
  C   C1865     1.0  0.81312  0.30816  0.61047  1.0000
  H   H3324     1.0  0.93566  0.36550  0.55698  1.0000
  H   H3325     1.0  0.79884  0.29585  0.60231  1.0000
  H   H3326     1.0  0.93995  0.33280  0.52342  1.0000
  C   C1866     1.0  0.91095  0.15746  0.55408  1.0000
  N   N102      1.0  0.66523  0.39778  0.62560  1.0000
  C   C1867     1.0  0.67518  0.40749  0.64056  1.0000
  H   H3327     1.0  0.96273  0.25678  0.50033  1.0000
  C   C1868     1.0  0.83973  0.28883  0.60243  1.0000
  C   C1869     1.0  0.91037  0.33076  0.53584  1.0000
  H   H3328     1.0  0.89655  0.30218  0.51866  1.0000
  H   H3329     1.0  0.94480  0.19629  0.59154  1.0000
  H   H3330     1.0  0.89128  0.14470  0.55125  1.0000
  H   H3331     1.0  0.82765  0.31940  0.63913  1.0000
  H   H3332     1.0  0.93306  0.35740  0.52084  1.0000
  H   H3333     1.0  0.67892  0.40962  0.60462  1.0000
  H   H3334     1.0  0.84752  0.35506  0.62113  1.0000
  S   S410      1.0  0.66104  0.29020  0.66641  1.0000
  C   C1870     1.0  0.85908  0.16876  0.59455  1.0000
  C   C1871     1.0  0.78402  0.32350  0.61799  1.0000
  C   C1872     1.0  0.80719  0.36600  0.59999  1.0000
  H   H3335     1.0  0.92462  0.41866  0.54813  1.0000
  H   H3336     1.0  0.81021  0.17252  0.51850  1.0000
  H   H3337     1.0  0.77930  0.07437  0.50245  1.0000
  N   N103      1.0  0.80998  0.33085  0.61367  1.0000
  C   C1873     1.0  0.69328  0.39927  0.64716  1.0000
  H   H3338     1.0  0.82539  0.27661  0.59435  1.0000
  C   C1874     1.0  0.68043  0.05053  0.60696  1.0000
  H   H3339     1.0  0.82295  0.16369  0.59970  1.0000
  H   H3340     1.0  0.97190  0.38998  0.52366  1.0000
  H   H3341     1.0  0.73966  0.00874  0.50082  1.0000
  H   H3342     1.0  0.97552  0.22159  0.60983  1.0000
  H   H3343     1.0  0.66234  0.23463  0.69753  1.0000
  H   H3344     1.0  0.71544  0.07154  0.49173  1.0000
  H   H3345     1.0  0.88307  0.99535  0.62106  1.0000
  C   C1875     1.0  0.65704  0.43569  0.62338  1.0000
  H   H3346     1.0  0.97055  0.24657  0.60339  1.0000
  H   H3347     1.0  0.66398  0.99400  0.59098  1.0000
  H   H3348     1.0  0.75337  0.11223  0.48808  1.0000
  C   C1876     1.0  0.97796  0.37988  0.53109  1.0000
  H   H3349     1.0  0.65906  0.44156  0.63482  1.0000
  C   C1877     1.0  0.97861  0.46454  0.67121  1.0000
  C   C1878     1.0  0.75284  0.01164  0.49232  1.0000
  C   C1879     1.0  0.66004  0.31102  0.72400  1.0000
  H   H3350     1.0  0.82733  0.00975  0.59459  1.0000
  H   H3351     1.0  0.65847  0.25814  0.68861  1.0000
  C   C1880     1.0  0.75552  0.09600  0.49122  1.0000
  N   N104      1.0  0.65109  0.00384  0.61018  1.0000
  H   H3352     1.0  0.96214  0.99338  0.72180  1.0000
  C   C1881     1.0  0.87986  0.99212  0.63248  1.0000
  C   C1882     1.0  0.66868  0.30392  0.73610  1.0000
  Fe  Fe207     1.0  0.68453  0.03897  0.91419  1.0000
  S   S411      1.0  0.71295  0.03121  0.90370  1.0000
  S   S412      1.0  0.96348  0.00503  0.81336  1.0000
  Fe  Fe208     1.0  0.70025  0.02873  0.94389  1.0000
  S   S413      1.0  0.73022  0.02167  0.93504  1.0000
  S   S414      1.0  0.69182  0.02891  0.96766  1.0000
  Fe  Fe209     1.0  0.73936  0.05478  0.92160  1.0000
  S   S415      1.0  0.77741  0.08172  0.91352  1.0000
  H   H3353     1.0  0.95659  0.33996  0.98361  1.0000
  S   S416      1.0  0.71151  0.06368  0.93159  1.0000
  S   S417      1.0  0.67127  0.00473  0.92712  1.0000
  Fe  Fe210     1.0  0.89814  0.22327  0.92087  1.0000
  S   S418      1.0  0.91208  0.26074  0.93234  1.0000
  S   S419      1.0  0.86111  0.19342  0.92889  1.0000
  Fe  Fe211     1.0  0.94363  0.24314  0.90248  1.0000
  S   S420      1.0  0.95989  0.28163  0.91269  1.0000
  H   H3354     1.0  0.85847  0.32873  0.82900  1.0000
  Fe  Fe212     1.0  0.94921  0.26237  0.93354  1.0000
  H   H3355     1.0  0.89115  0.00212  0.79834  1.0000
  Fe  Fe213     1.0  0.92166  0.27785  0.91092  1.0000
  S   S421      1.0  0.90992  0.30845  0.90767  1.0000
  S   S422      1.0  0.93511  0.22395  0.92331  1.0000
  S   S423      1.0  0.90557  0.24024  0.89938  1.0000
  Fe  Fe214     1.0  0.68447  0.33169  0.81787  1.0000
  H   H3356     1.0  0.76686  0.02921  0.90620  1.0000
  S   S424      1.0  0.72126  0.35583  0.83034  1.0000
  H   H3357     1.0  0.88738  0.41282  0.76356  1.0000
  H   H3358     1.0  0.96841  0.06178  0.85611  1.0000
  C   C1883     1.0  0.93127  0.45474  0.75844  1.0000
  S   S425      1.0  0.67146  0.30203  0.80009  1.0000
  Fe  Fe215     1.0  0.86997  0.42250  0.83921  1.0000
  S   S426      1.0  0.87529  0.42242  0.86297  1.0000
  S   S427      1.0  0.83736  0.39703  0.82411  1.0000
  Fe  Fe216     1.0  0.92421  0.46258  0.83583  1.0000
  S   S428      1.0  0.93315  0.46502  0.85944  1.0000
  Fe  Fe217     1.0  0.70180  0.99901  0.91771  1.0000
  Fe  Fe218     1.0  0.91138  0.42286  0.85855  1.0000
  S   S429      1.0  0.92581  0.39587  0.86562  1.0000
  Fe  Fe219     1.0  0.89660  0.46448  0.86229  1.0000
  S   S430      1.0  0.90502  0.42105  0.83471  1.0000
  S   S431      1.0  0.88878  0.46398  0.83878  1.0000
  N   N105      1.0  0.84400  0.33642  0.85459  1.0000
  C   C1884     1.0  0.83532  0.05178  0.92558  1.0000
  S   S432      1.0  0.65322  0.30827  0.83175  1.0000
  H   H3359     1.0  0.67273  0.34168  0.85997  1.0000
  C   C1885     1.0  0.75342  0.36671  0.82829  1.0000
  C   C1886     1.0  0.76287  0.36128  0.81608  1.0000
  C   C1887     1.0  0.78854  0.37075  0.81499  1.0000
  C   C1888     1.0  0.80515  0.38580  0.82604  1.0000
  C   C1889     1.0  0.79572  0.39111  0.83827  1.0000
  C   C1890     1.0  0.77007  0.38162  0.83936  1.0000
  H   H3360     1.0  0.75038  0.34986  0.80747  1.0000
  H   H3361     1.0  0.79555  0.36639  0.80550  1.0000
  H   H3362     1.0  0.80816  0.40256  0.84689  1.0000
  H   H3363     1.0  0.76304  0.38594  0.84887  1.0000
  H   H3364     1.0  0.72481  0.42082  0.85187  1.0000
  H   H3365     1.0  0.91543  0.34084  0.95098  1.0000
  H   H3366     1.0  0.88178  0.27758  0.97176  1.0000
  H   H3367     1.0  0.85840  0.43054  0.79975  1.0000
  H   H3368     1.0  0.85030  0.27442  0.88114  1.0000
  C   C1891     1.0  0.91468  0.33265  0.89580  1.0000
  C   C1892     1.0  0.90173  0.34634  0.89773  1.0000
  C   C1893     1.0  0.90480  0.36564  0.88869  1.0000
  C   C1894     1.0  0.92101  0.37170  0.87753  1.0000
  C   C1895     1.0  0.93385  0.35794  0.87557  1.0000
  C   C1896     1.0  0.93070  0.33858  0.88456  1.0000
  H   H3369     1.0  0.88929  0.34203  0.90635  1.0000
  H   H3370     1.0  0.89485  0.37600  0.89047  1.0000
  H   H3371     1.0  0.94643  0.36233  0.86700  1.0000
  H   H3372     1.0  0.94080  0.32833  0.88286  1.0000
  H   H3373     1.0  0.88114  0.37461  0.79468  1.0000
  H   H3374     1.0  0.96806  0.17518  0.88982  1.0000
  H   H3375     1.0  0.84557  0.38829  0.79163  1.0000
  C   C1897     1.0  0.80092  0.11248  0.91832  1.0000
  C   C1898     1.0  0.80052  0.12543  0.93073  1.0000
  C   C1899     1.0  0.81920  0.14998  0.93379  1.0000
  C   C1900     1.0  0.83871  0.16196  0.92462  1.0000
  C   C1901     1.0  0.83924  0.14889  0.91228  1.0000
  C   C1902     1.0  0.82049  0.12436  0.90918  1.0000
  H   H3376     1.0  0.78587  0.11656  0.93799  1.0000
  H   H3377     1.0  0.81857  0.15980  0.94339  1.0000
  H   H3378     1.0  0.85403  0.15777  0.90509  1.0000
  H   H3379     1.0  0.82112  0.11460  0.89956  1.0000
  H   H3380     1.0  0.80375  0.34738  0.86120  1.0000
  C   C1903     1.0  0.86087  0.35691  0.84542  1.0000
  C   C1904     1.0  0.81279  0.01235  0.90146  1.0000
  H   H3381     1.0  0.98324  0.22061  0.86037  1.0000
  N   N106      1.0  0.67974  0.41492  0.83967  1.0000
  H   H3382     1.0  0.82807  0.04017  0.93490  1.0000
  H   H3383     1.0  0.77130  0.30586  0.83917  1.0000
  C   C1905     1.0  0.81434  0.37304  0.76713  1.0000
  C   C1906     1.0  0.82267  0.36110  0.86492  1.0000
  C   C1907     1.0  0.82028  0.37363  0.87865  1.0000
  C   C1908     1.0  0.89609  0.28249  0.96376  1.0000
  C   C1909     1.0  0.89696  0.35395  0.83379  1.0000
  C   C1910     1.0  0.81008  0.32786  0.83480  1.0000
  H   H3384     1.0  0.87707  0.37088  0.85192  1.0000
  H   H3385     1.0  0.85199  0.36782  0.84156  1.0000
  C   C1911     1.0  0.90372  0.99469  0.80170  1.0000
  H   H3386     1.0  0.85610  0.36138  0.87322  1.0000
  C   C1912     1.0  0.70280  0.41898  0.83242  1.0000
  N   N107      1.0  0.79759  0.02178  0.90938  1.0000
  C   C1913     1.0  0.66951  0.35790  0.86200  1.0000
  H   H3387     1.0  0.96335  0.06945  0.78810  1.0000
  H   H3388     1.0  0.84374  0.40851  0.76204  1.0000
  H   H3389     1.0  0.80927  0.38333  0.87640  1.0000
  H   H3390     1.0  0.93630  0.34673  0.93709  1.0000
  H   H3391     1.0  0.84872  0.04704  0.92049  1.0000
  H   H3392     1.0  0.95168  0.46407  0.75950  1.0000
  H   H3393     1.0  0.77714  0.31655  0.82138  1.0000
  H   H3394     1.0  0.83057  0.37550  0.85698  1.0000
  H   H3395     1.0  0.77130  0.04676  0.86782  1.0000
  H   H3396     1.0  0.83866  0.38750  0.88311  1.0000
  H   H3397     1.0  0.75166  0.44170  0.82438  1.0000
  H   H3398     1.0  0.81085  0.35965  0.88669  1.0000
  H   H3399     1.0  0.97285  0.05046  0.79802  1.0000
  H   H3400     1.0  0.87649  0.33692  0.86430  1.0000
  C   C1914     1.0  0.85810  0.32327  0.85965  1.0000
  C   C1915     1.0  0.83854  0.34795  0.86752  1.0000
  H   H3401     1.0  0.89983  0.34417  0.84279  1.0000
  H   H3402     1.0  0.78268  0.29129  0.82641  1.0000
  C   C1916     1.0  0.85837  0.28725  0.87238  1.0000
  H   H3403     1.0  0.94910  0.00113  0.74538  1.0000
  H   H3404     1.0  0.66744  0.36394  0.83982  1.0000
  C   C1917     1.0  0.89246  0.46364  0.79695  1.0000
  H   H3405     1.0  0.92814  0.43053  0.77509  1.0000
  H   H3406     1.0  0.92747  0.45819  0.78080  1.0000
  C   C1918     1.0  0.83533  0.39856  0.77174  1.0000
  H   H3407     1.0  0.93687  0.40985  0.79740  1.0000
  H   H3408     1.0  0.76432  0.00352  0.89595  1.0000
  C   C1919     1.0  0.92048  0.44318  0.77245  1.0000
  C   C1920     1.0  0.96416  0.48601  0.80512  1.0000
  H   H3409     1.0  0.90509  0.47366  0.78851  1.0000
  C   C1921     1.0  0.87130  0.43876  0.79098  1.0000
  N   N108      1.0  0.75204  0.13770  0.90188  1.0000
  C   C1922     1.0  0.75249  0.11848  0.89164  1.0000
  C   C1923     1.0  0.77762  0.15941  0.90413  1.0000
  C   C1924     1.0  0.74400  0.12573  0.91598  1.0000
  C   C1925     1.0  0.73376  0.14620  0.89709  1.0000
  C   C1926     1.0  0.73643  0.15627  0.88199  1.0000
  C   C1927     1.0  0.72780  0.09448  0.88891  1.0000
  C   C1928     1.0  0.74669  0.14344  0.92887  1.0000
  C   C1929     1.0  0.79461  0.16678  0.89127  1.0000
  C   C1930     1.0  0.81752  0.19174  0.89426  1.0000
  C   C1931     1.0  0.71470  0.16069  0.87781  1.0000
  C   C1932     1.0  0.73003  0.07767  0.87736  1.0000
  C   C1933     1.0  0.73704  0.12904  0.94229  1.0000
  H   H3410     1.0  0.76630  0.11290  0.89556  1.0000
  H   H3411     1.0  0.75886  0.12611  0.88112  1.0000
  H   H3412     1.0  0.77662  0.17614  0.90830  1.0000
  H   H3413     1.0  0.78824  0.15539  0.91246  1.0000
  H   H3414     1.0  0.75445  0.11567  0.91887  1.0000
  H   H3415     1.0  0.72432  0.11136  0.91519  1.0000
  H   H3416     1.0  0.71461  0.13097  0.89782  1.0000
  H   H3417     1.0  0.73487  0.16129  0.90441  1.0000
  H   H3418     1.0  0.73699  0.14317  0.87382  1.0000
  H   H3419     1.0  0.75330  0.17436  0.88172  1.0000
  H   H3420     1.0  0.72235  0.08382  0.89869  1.0000
  H   H3421     1.0  0.71286  0.09861  0.88538  1.0000
  H   H3422     1.0  0.73615  0.15365  0.92688  1.0000
  H   H3423     1.0  0.76624  0.15713  0.93123  1.0000
  H   H3424     1.0  0.80089  0.15268  0.88924  1.0000
  H   H3425     1.0  0.78527  0.16806  0.88141  1.0000
  H   H3426     1.0  0.82995  0.19595  0.88523  1.0000
  H   H3427     1.0  0.81243  0.20684  0.89562  1.0000
  H   H3428     1.0  0.82776  0.19130  0.90402  1.0000
  H   H3429     1.0  0.69718  0.14304  0.87765  1.0000
  H   H3430     1.0  0.71359  0.17440  0.88535  1.0000
  H   H3431     1.0  0.71710  0.16806  0.86698  1.0000
  H   H3432     1.0  0.71236  0.06023  0.87599  1.0000
  H   H3433     1.0  0.73419  0.08687  0.86705  1.0000
  H   H3434     1.0  0.74478  0.07294  0.88044  1.0000
  H   H3435     1.0  0.73961  0.14211  0.95139  1.0000
  H   H3436     1.0  0.71712  0.11581  0.94083  1.0000
  H   H3437     1.0  0.74723  0.11865  0.94495  1.0000
  H   H3438     1.0  0.82597  0.01042  0.90894  1.0000
  H   H3439     1.0  0.68218  0.18632  0.90654  1.0000
  C   C1934     1.0  0.93361  0.35446  0.94725  1.0000
  H   H3440     1.0  0.79894  0.99979  0.92679  1.0000
  H   H3441     1.0  0.92536  0.44027  0.74969  1.0000
  H   H3442     1.0  0.82459  0.02618  0.89387  1.0000
  H   H3443     1.0  0.88324  0.41042  0.80610  1.0000
  N   N109      1.0  0.87836  0.41999  0.78482  1.0000
  H   H3444     1.0  0.86436  0.08120  0.93877  1.0000
  H   H3445     1.0  0.82697  0.40870  0.77747  1.0000
  H   H3446     1.0  0.91099  0.43095  0.79857  1.0000
  C   C1935     1.0  0.82047  0.31786  0.84676  1.0000
  H   H3447     1.0  0.85755  0.09131  0.92223  1.0000
  H   H3448     1.0  0.79570  0.05849  0.89000  1.0000
  S   S433      1.0  0.88654  0.49054  0.87550  1.0000
  H   H3449     1.0  0.97193  0.12179  0.87076  1.0000
  H   H3450     1.0  0.67989  0.36790  0.87195  1.0000
  H   H3451     1.0  0.75624  0.01450  0.87196  1.0000
  C   C1936     1.0  0.85471  0.39629  0.78156  1.0000
  H   H3452     1.0  0.69763  0.37975  0.84801  1.0000
  S   S434      1.0  0.96047  0.23264  0.88351  1.0000
  H   H3453     1.0  0.90054  0.39090  0.78060  1.0000
  H   H3454     1.0  0.82409  0.99511  0.87612  1.0000
  H   H3455     1.0  0.69222  0.16342  0.90970  1.0000
  C   C1937     1.0  0.89186  0.42878  0.77120  1.0000
  C   C1938     1.0  0.67809  0.37481  0.84944  1.0000
  H   H3456     1.0  0.67051  0.30386  0.75912  1.0000
  H   H3457     1.0  0.85859  0.38198  0.77637  1.0000
  H   H3458     1.0  0.81005  0.34532  0.83807  1.0000
  H   H3459     1.0  0.80337  0.05606  0.91988  1.0000
  C   C1939     1.0  0.67637  0.16733  0.91021  1.0000
  H   H3460     1.0  0.94947  0.39195  0.93963  1.0000
  H   H3461     1.0  0.82132  0.36223  0.76079  1.0000
  H   H3462     1.0  0.82602  0.29130  0.86806  1.0000
  H   H3463     1.0  0.96147  0.45132  0.81140  1.0000
  C   C1940     1.0  0.72676  0.43084  0.84197  1.0000
  C   C1941     1.0  0.89297  0.41448  0.79592  1.0000
  C   C1942     1.0  0.76483  0.03376  0.87662  1.0000
  C   C1943     1.0  0.91977  0.39352  0.80043  1.0000
  C   C1944     1.0  0.66345  0.30910  0.74994  1.0000
  C   C1945     1.0  0.84933  0.07882  0.93112  1.0000
  C   C1946     1.0  0.65819  0.40249  0.82913  1.0000
  H   H3464     1.0  0.88534  0.44053  0.76557  1.0000
  H   H3465     1.0  0.94657  0.29959  0.95799  1.0000
  C   C1947     1.0  0.78369  0.30913  0.83020  1.0000
  H   H3466     1.0  0.90266  0.46052  0.80580  1.0000
  H   H3467     1.0  0.90769  0.99841  0.81336  1.0000
  H   H3468     1.0  0.92158  0.37659  0.79797  1.0000
  H   H3469     1.0  0.86122  0.44375  0.78282  1.0000
  C   C1948     1.0  0.84577  0.30352  0.87090  1.0000
  C   C1949     1.0  0.89753  0.39210  0.79210  1.0000
  H   H3470     1.0  0.91765  0.39486  0.81203  1.0000
  H   H3471     1.0  0.80518  0.36259  0.77657  1.0000
  C   C1950     1.0  0.78642  0.00647  0.92217  1.0000
  H   H3472     1.0  0.95117  0.14215  0.88613  1.0000
  C   C1951     1.0  0.87011  0.34862  0.83206  1.0000
  H   H3473     1.0  0.97379  0.32484  0.97817  1.0000
  C   C1952     1.0  0.78653  0.03849  0.88671  1.0000
  H   H3474     1.0  0.70050  0.40124  0.82737  1.0000
  H   H3475     1.0  0.82818  0.33367  0.87523  1.0000
  H   H3476     1.0  0.92129  0.00448  0.79622  1.0000
  C   C1953     1.0  0.96830  0.46546  0.80363  1.0000
  H   H3477     1.0  0.70628  0.43155  0.82349  1.0000
  H   H3478     1.0  0.78431  0.01812  0.93082  1.0000
  H   H3479     1.0  0.66271  0.43616  0.81847  1.0000
  H   H3480     1.0  0.86888  0.35911  0.82288  1.0000
  C   C1954     1.0  0.93994  0.31365  0.95811  1.0000
  H   H3481     1.0  0.90927  0.37412  0.83567  1.0000
  H   H3482     1.0  0.76511  0.43927  0.84112  1.0000
  N   N110      1.0  0.96129  0.33929  0.96085  1.0000
  S   S435      1.0  0.66629  0.05511  0.89891  1.0000
  H   H3483     1.0  0.80045  0.37524  0.76044  1.0000
  H   H3484     1.0  0.75082  0.03667  0.88235  1.0000
  H   H3485     1.0  0.82135  0.33160  0.82528  1.0000
  H   H3486     1.0  0.86895  0.47145  0.81097  1.0000
  C   C1955     1.0  0.81437  0.04811  0.91475  1.0000
  H   H3487     1.0  0.92546  0.46880  0.75565  1.0000
  C   C1956     1.0  0.97161  0.05679  0.78727  1.0000
  C   C1957     1.0  0.74818  0.43087  0.83410  1.0000
  H   H3488     1.0  0.90243  0.34779  0.82393  1.0000
  H   H3489     1.0  0.89994  0.26657  0.96222  1.0000
  H   H3490     1.0  0.94058  0.26498  0.97346  1.0000
  H   H3491     1.0  0.87835  0.29883  0.87496  1.0000
  C   C1958     1.0  0.95852  0.27448  0.97883  1.0000
  H   H3492     1.0  0.95930  0.04044  0.78027  1.0000
  H   H3493     1.0  0.82352  0.06017  0.90582  1.0000
  H   H3494     1.0  0.88883  0.28578  0.95358  1.0000
  H   H3495     1.0  0.67358  0.41771  0.80868  1.0000
  H   H3496     1.0  0.74413  0.41162  0.83101  1.0000
  H   H3497     1.0  0.79945  0.03443  0.88058  1.0000
  H   H3498     1.0  0.91462  0.32063  0.97150  1.0000
  C   C1959     1.0  0.97062  0.34097  0.97607  1.0000
  H   H3499     1.0  0.83683  0.08439  0.93667  1.0000
  H   H3500     1.0  0.93129  0.31145  0.94735  1.0000
  H   H3501     1.0  0.87376  0.48603  0.79406  1.0000
  H   H3502     1.0  0.85588  0.27607  0.86239  1.0000
  H   H3503     1.0  0.82279  0.30248  0.84162  1.0000
  C   C1960     1.0  0.68876  0.00821  0.98146  1.0000
  S   S436      1.0  0.66402  0.35058  0.80840  1.0000
  C   C1961     1.0  0.77777  0.02238  0.89991  1.0000
  H   H3504     1.0  0.92836  0.38611  0.95387  1.0000
  C   C1962     1.0  0.91941  0.30560  0.96907  1.0000
  H   H3505     1.0  0.86181  0.31375  0.85051  1.0000
  H   H3506     1.0  0.80579  0.30860  0.85448  1.0000
  H   H3507     1.0  0.73183  0.45038  0.84498  1.0000
  H   H3508     1.0  0.84745  0.31275  0.88151  1.0000
  H   H3509     1.0  0.92575  0.30098  0.97916  1.0000
  C   C1963     1.0  0.88260  0.48071  0.80277  1.0000
  H   H3510     1.0  0.94760  0.36399  0.96886  1.0000
  H   H3511     1.0  0.66873  0.24098  0.77100  1.0000
  C   C1964     1.0  0.96967  0.15781  0.88895  1.0000
  H   H3512     1.0  0.66341  0.25636  0.75627  1.0000
  H   H3513     1.0  0.91686  0.37362  0.93606  1.0000
  H   H3514     1.0  0.68709  0.40879  0.86151  1.0000
  H   H3515     1.0  0.66143  0.14935  0.88983  1.0000
  C   C1965     1.0  0.93206  0.37806  0.94407  1.0000
  H   H3516     1.0  0.66887  0.27019  0.77413  1.0000
  H   H3517     1.0  0.98098  0.16439  0.86752  1.0000
  H   H3518     1.0  0.67106  0.16641  0.92146  1.0000
  C   C1966     1.0  0.66004  0.25246  0.76769  1.0000
  H   H3519     1.0  0.95994  0.32242  0.93187  1.0000
  H   H3520     1.0  0.97844  0.14028  0.84751  1.0000
  C   C1967     1.0  0.97966  0.28187  0.97096  1.0000
  S   S437      1.0  0.97862  0.27815  0.95196  1.0000
  C   C1968     1.0  0.98212  0.46364  0.79233  1.0000
  H   H3521     1.0  0.97627  0.15494  0.89946  1.0000
  C   C1969     1.0  0.95418  0.35958  0.95879  1.0000
  H   H3522     1.0  0.97364  0.35588  0.93171  1.0000
  C   C1970     1.0  0.97635  0.34011  0.93514  1.0000
  H   H3523     1.0  0.97069  0.37713  0.95636  1.0000
  C   C1971     1.0  0.68258  0.43964  0.84509  1.0000
  C   C1972     1.0  0.67497  0.39836  0.85210  1.0000
  C   C1973     1.0  0.65491  0.14820  0.90079  1.0000
  H   H3524     1.0  0.69658  0.44723  0.85406  1.0000
  H   H3525     1.0  0.68997  0.45360  0.83679  1.0000
  H   H3526     1.0  0.65618  0.38437  0.82524  1.0000
  H   H3527     1.0  0.65587  0.39189  0.85563  1.0000
  H   H3528     1.0  0.98387  0.05062  0.86809  1.0000
  C   C1974     1.0  0.98189  0.34241  0.95138  1.0000
  C   C1975     1.0  0.65907  0.41698  0.81571  1.0000
  S   S438      1.0  0.94869  0.49037  0.81981  1.0000
  H   H3529     1.0  0.98376  0.29785  0.85918  1.0000
  C   C1976     1.0  0.66437  0.46478  0.85707  1.0000
  H   H3530     1.0  0.67738  0.46985  0.86644  1.0000
  H   H3531     1.0  0.67227  0.47926  0.84911  1.0000
  C   C1977     1.0  0.95983  0.99135  0.74468  1.0000
  C   C1978     1.0  0.65889  0.43945  0.85053  1.0000
  S   S439      1.0  0.68364  0.92616  0.05223  1.0000
  S   S440      1.0  0.71318  0.96432  0.08720  1.0000
  Fe  Fe220     1.0  0.67973  0.94660  0.07150  1.0000
  S   S441      1.0  0.69237  0.73274  0.04519  1.0000
  H   H3532     1.0  0.82257  0.81685  0.10675  1.0000
  Fe  Fe221     1.0  0.69414  0.70835  0.06217  1.0000
  S   S442      1.0  0.73218  0.71154  0.06723  1.0000
  C   C1979     1.0  0.70812  0.68571  0.99253  1.0000
  C   C1980     1.0  0.67182  0.61716  0.99217  1.0000
  C   C1981     1.0  0.83777  0.49629  0.22710  1.0000
  H   H3533     1.0  0.71341  0.76812  0.99058  1.0000
  C   C1982     1.0  0.72780  0.65789  0.11134  1.0000
  S   S443      1.0  0.95830  0.93686  0.14157  1.0000
  H   H3534     1.0  0.73905  0.59942  0.17176  1.0000
  Fe  Fe222     1.0  0.89150  0.75085  0.11542  1.0000
  S   S444      1.0  0.90785  0.75714  0.13759  1.0000
  S   S445      1.0  0.90841  0.74300  0.09577  1.0000
  Fe  Fe223     1.0  0.84514  0.75290  0.12526  1.0000
  S   S446      1.0  0.85896  0.75962  0.14829  1.0000
  S   S447      1.0  0.80652  0.74920  0.12179  1.0000
  Fe  Fe224     1.0  0.89562  0.78658  0.13997  1.0000
  S   S448      1.0  0.92147  0.82239  0.15279  1.0000
  Fe  Fe225     1.0  0.86994  0.72984  0.14415  1.0000
  S   S449      1.0  0.86501  0.69649  0.15703  1.0000
  S   S450      1.0  0.88123  0.78188  0.11725  1.0000
  S   S451      1.0  0.85415  0.72166  0.12166  1.0000
  Fe  Fe226     1.0  0.78434  0.60969  0.22145  1.0000
  S   S452      1.0  0.75857  0.56889  0.21710  1.0000
  S   S453      1.0  0.79205  0.64180  0.20672  1.0000
  H   H3535     1.0  0.84304  0.66807  0.00282  1.0000
  H   H3536     1.0  0.88866  0.62222  0.12774  1.0000
  H   H3537     1.0  0.87964  0.66504  0.13951  1.0000
  H   H3538     1.0  0.69705  0.60892  0.00481  1.0000
  H   H3539     1.0  0.81577  0.63803  0.12251  1.0000
  H   H3540     1.0  0.90900  0.69594  0.99243  1.0000
  C   C1983     1.0  0.79481  0.71451  0.16071  1.0000
  H   H3541     1.0  0.76296  0.86670  0.08687  1.0000
  H   H3542     1.0  0.73548  0.97609  0.03797  1.0000
  Fe  Fe227     1.0  0.66677  0.73946  0.05917  1.0000
  H   H3543     1.0  0.85688  0.81693  0.18313  1.0000
  H   H3544     1.0  0.97727  0.73343  0.98758  1.0000
  C   C1984     1.0  0.92233  0.70137  0.13477  1.0000
  H   H3545     1.0  0.76098  0.76999  0.06374  1.0000
  C   C1985     1.0  0.79056  0.68607  0.23487  1.0000
  C   C1986     1.0  0.81356  0.65708  0.19343  1.0000
  C   C1987     1.0  0.81708  0.68045  0.18932  1.0000
  C   C1988     1.0  0.83301  0.69290  0.17839  1.0000
  C   C1989     1.0  0.84534  0.68197  0.17124  1.0000
  C   C1990     1.0  0.84216  0.65878  0.17550  1.0000
  C   C1991     1.0  0.82643  0.64642  0.18655  1.0000
  H   H3546     1.0  0.80738  0.68899  0.19462  1.0000
  H   H3547     1.0  0.83593  0.71107  0.17559  1.0000
  H   H3548     1.0  0.85176  0.65019  0.17016  1.0000
  H   H3549     1.0  0.82392  0.62846  0.18956  1.0000
  C   C1992     1.0  0.94927  0.90514  0.14435  1.0000
  C   C1993     1.0  0.93154  0.88673  0.13497  1.0000
  C   C1994     1.0  0.92309  0.86130  0.13718  1.0000
  C   C1995     1.0  0.93263  0.85401  0.14867  1.0000
  C   C1996     1.0  0.95106  0.87247  0.15769  1.0000
  C   C1997     1.0  0.95922  0.89787  0.15564  1.0000
  H   H3550     1.0  0.92388  0.89214  0.12612  1.0000
  H   H3551     1.0  0.90900  0.84736  0.13010  1.0000
  H   H3552     1.0  0.95878  0.86699  0.16648  1.0000
  H   H3553     1.0  0.72579  0.68716  0.99561  1.0000
  C   C1998     1.0  0.97245  0.90412  0.19739  1.0000
  H   H3554     1.0  0.92781  0.92445  0.17383  1.0000
  H   H3555     1.0  0.74059  0.95070  0.05641  1.0000
  S   S454      1.0  0.81171  0.60308  0.23456  1.0000
  C   C1999     1.0  0.96157  0.72755  0.08067  1.0000
  C   C2000     1.0  0.94022  0.73038  0.08199  1.0000
  C   C2001     1.0  0.93586  0.74024  0.09466  1.0000
  C   C2002     1.0  0.95333  0.74754  0.10596  1.0000
  H   H3556     1.0  0.96767  0.89059  0.20590  1.0000
  H   H3557     1.0  0.96454  0.71982  0.07088  1.0000
  H   H3558     1.0  0.92694  0.72483  0.07313  1.0000
  H   H3559     1.0  0.95048  0.75556  0.11567  1.0000
  H   H3560     1.0  0.73751  0.78299  0.03017  1.0000
  C   C2003     1.0  0.75193  0.72078  0.08280  1.0000
  C   C2004     1.0  0.74482  0.72591  0.09597  1.0000
  C   C2005     1.0  0.76173  0.73447  0.10778  1.0000
  C   C2006     1.0  0.78574  0.73752  0.10668  1.0000
  C   C2007     1.0  0.79263  0.73179  0.09363  1.0000
  C   C2008     1.0  0.77585  0.72357  0.08178  1.0000
  H   H3561     1.0  0.72640  0.72355  0.09700  1.0000
  H   H3562     1.0  0.75616  0.73879  0.11784  1.0000
  H   H3563     1.0  0.81102  0.73407  0.09258  1.0000
  H   H3564     1.0  0.78153  0.71956  0.07167  1.0000
  H   H3565     1.0  0.76996  0.97474  0.05136  1.0000
  H   H3566     1.0  0.72208  0.97834  0.05437  1.0000
  H   H3567     1.0  0.73263  0.81882  0.06855  1.0000
  H   H3568     1.0  0.79999  0.75039  0.15388  1.0000
  H   H3569     1.0  0.69434  0.77506  0.09707  1.0000
  C   C2009     1.0  0.66254  0.51450  0.22612  1.0000
  S   S455      1.0  0.67058  0.71689  0.07659  1.0000
  H   H3570     1.0  0.67525  0.85926  0.07007  1.0000
  C   C2010     1.0  0.69383  0.68911  0.00301  1.0000
  H   H3571     1.0  0.95453  0.74594  0.14848  1.0000
  H   H3572     1.0  0.70058  0.69320  0.01399  1.0000
  C   C2011     1.0  0.69472  0.62520  0.00191  1.0000
  C   C2012     1.0  0.92720  0.88828  0.19053  1.0000
  C   C2013     1.0  0.95201  0.91124  0.19494  1.0000
  C   C2014     1.0  0.89029  0.91110  0.16655  1.0000
  C   C2015     1.0  0.89614  0.92136  0.15172  1.0000
  H   H3573     1.0  0.71138  0.63862  0.99659  1.0000
  H   H3574     1.0  0.93080  0.87868  0.18145  1.0000
  H   H3575     1.0  0.95043  0.91991  0.20506  1.0000
  H   H3576     1.0  0.85997  0.70027  0.99878  1.0000
  H   H3577     1.0  0.88108  0.92481  0.14753  1.0000
  H   H3578     1.0  0.88819  0.92504  0.17337  1.0000
  H   H3579     1.0  0.91347  0.93917  0.15212  1.0000
  H   H3580     1.0  0.89801  0.90796  0.14429  1.0000
  H   H3581     1.0  0.79337  0.64021  0.14313  1.0000
  H   H3582     1.0  0.81701  0.50417  0.21102  1.0000
  H   H3583     1.0  0.86323  0.67997  0.21510  1.0000
  C   C2016     1.0  0.88151  0.68151  0.11152  1.0000
  C   C2017     1.0  0.87132  0.67746  0.09616  1.0000
  H   H3584     1.0  0.91844  0.69087  0.10684  1.0000
  H   H3585     1.0  0.93472  0.71578  0.12769  1.0000
  H   H3586     1.0  0.88740  0.70105  0.11494  1.0000
  H   H3587     1.0  0.86626  0.66942  0.11812  1.0000
  H   H3588     1.0  0.72936  0.66773  0.10136  1.0000
  H   H3589     1.0  0.86330  0.65760  0.09268  1.0000
  H   H3590     1.0  0.85673  0.68323  0.09535  1.0000
  H   H3591     1.0  0.88604  0.68873  0.08891  1.0000
  C   C2018     1.0  0.77460  0.69902  0.14911  1.0000
  H   H3592     1.0  0.69064  0.82936  0.07582  1.0000
  C   C2019     1.0  0.79591  0.73973  0.16370  1.0000
  H   H3593     1.0  0.75703  0.69820  0.15252  1.0000
  H   H3594     1.0  0.77973  0.71027  0.13954  1.0000
  H   H3595     1.0  0.74437  0.64124  0.13270  1.0000
  S   S456      1.0  0.68004  0.95509  0.01767  1.0000
  H   H3596     1.0  0.65372  0.57674  0.21045  1.0000
  H   H3597     1.0  0.77821  0.73740  0.16775  1.0000
  H   H3598     1.0  0.77589  0.77405  0.08857  1.0000
  H   H3599     1.0  0.98032  0.59776  0.06752  1.0000
  H   H3600     1.0  0.70256  0.49466  0.20888  1.0000
  H   H3601     1.0  0.73158  0.82210  0.08730  1.0000
  C   C2020     1.0  0.75016  0.63108  0.15843  1.0000
  H   H3602     1.0  0.90688  0.70570  0.13639  1.0000
  H   H3603     1.0  0.73215  0.65921  0.14080  1.0000
  H   H3604     1.0  0.81310  0.71807  0.15713  1.0000
  C   C2021     1.0  0.90368  0.67619  0.11282  1.0000
  C   C2022     1.0  0.80743  0.80898  0.08484  1.0000
  H   H3605     1.0  0.75522  0.62192  0.14980  1.0000
  H   H3606     1.0  0.95928  0.60307  0.99729  1.0000
  H   H3607     1.0  0.87241  0.89398  0.16556  1.0000
  Fe  Fe228     1.0  0.97582  0.96941  0.15797  1.0000
  S   S457      1.0  0.66187  0.67366  0.05256  1.0000
  H   H3608     1.0  0.92240  0.87513  0.19928  1.0000
  H   H3609     1.0  0.95796  0.92527  0.18672  1.0000
  H   H3610     1.0  0.89912  0.65855  0.10677  1.0000
  C   C2023     1.0  0.97209  0.65923  0.99591  1.0000
  H   H3611     1.0  0.81079  0.75056  0.17183  1.0000
  C   C2024     1.0  0.91106  0.90613  0.17278  1.0000
  H   H3612     1.0  0.91938  0.92900  0.19797  1.0000
  N   N111      1.0  0.77095  0.67320  0.14561  1.0000
  C   C2025     1.0  0.88082  0.85107  0.17288  1.0000
  H   H3613     1.0  0.95634  0.54095  0.21359  1.0000
  C   C2026     1.0  0.88276  0.86893  0.18553  1.0000
  H   H3614     1.0  0.88059  0.85914  0.16251  1.0000
  H   H3615     1.0  0.82652  0.67834  0.22615  1.0000
  C   C2027     1.0  0.69076  0.97223  0.99062  1.0000
  H   H3616     1.0  0.95217  0.68728  0.10816  1.0000
  N   N112      1.0  0.90609  0.89336  0.18671  1.0000
  H   H3617     1.0  0.91530  0.89541  0.16460  1.0000
  H   H3618     1.0  0.71070  0.65518  0.11645  1.0000
  C   C2028     1.0  0.68328  0.97612  0.00407  1.0000
  C   C2029     1.0  0.82284  0.50668  0.22214  1.0000
  H   H3619     1.0  0.90014  0.65547  0.14690  1.0000
  C   C2030     1.0  0.97568  0.67717  0.12017  1.0000
  C   C2031     1.0  0.78009  0.79385  0.08868  1.0000
  C   C2032     1.0  0.76631  0.82350  0.08062  1.0000
  C   C2033     1.0  0.66653  0.84082  0.06508  1.0000
  N   N113      1.0  0.91280  0.67585  0.12778  1.0000
  C   C2034     1.0  0.93601  0.70559  0.14946  1.0000
  H   H3620     1.0  0.92668  0.73319  0.15841  1.0000
  H   H3621     1.0  0.74703  0.62821  0.18148  1.0000
  S   S458      1.0  0.79535  0.53180  0.22456  1.0000
  C   C2035     1.0  0.67524  0.82379  0.06830  1.0000
  H   H3622     1.0  0.89648  0.84685  0.17325  1.0000
  H   H3623     1.0  0.76384  0.86336  0.06772  1.0000
  S   S459      1.0  0.95319  0.98141  0.17150  1.0000
  S   S460      1.0  0.67543  0.77878  0.06698  1.0000
  H   H3624     1.0  0.86131  0.71608  0.22633  1.0000
  H   H3625     1.0  0.75089  0.69159  0.12307  1.0000
  H   H3626     1.0  0.73234  0.75937  0.08168  1.0000
  H   H3627     1.0  0.86980  0.64554  0.20543  1.0000
  H   H3628     1.0  0.86507  0.61329  0.14990  1.0000
  H   H3629     1.0  0.98132  0.67644  0.13136  1.0000
  C   C2036     1.0  0.94335  0.73145  0.15591  1.0000
  H   H3630     1.0  0.89868  0.71214  0.22478  1.0000
  H   H3631     1.0  0.96848  0.65853  0.11479  1.0000
  H   H3632     1.0  0.65574  0.60367  0.99782  1.0000
  H   H3633     1.0  0.77084  0.62226  0.17435  1.0000
  C   C2037     1.0  0.67072  0.68685  0.99931  1.0000
  H   H3634     1.0  0.70259  0.77094  0.11491  1.0000
  C   C2038     1.0  0.74871  0.66063  0.13548  1.0000
  C   C2039     1.0  0.76652  0.65966  0.15934  1.0000
  H   H3635     1.0  0.91719  0.93781  0.22355  1.0000
  C   C2040     1.0  0.79342  0.65099  0.13384  1.0000
  C   C2041     1.0  0.91059  0.75041  0.23011  1.0000
  H   H3636     1.0  0.77437  0.83186  0.09138  1.0000
  C   C2042     1.0  0.76405  0.78953  0.06430  1.0000
  H   H3637     1.0  0.79915  0.68832  0.13008  1.0000
  H   H3638     1.0  0.67733  0.51442  0.22023  1.0000
  H   H3639     1.0  0.87432  0.68619  0.00963  1.0000
  C   C2043     1.0  0.89248  0.65771  0.13655  1.0000
  H   H3640     1.0  0.81239  0.82863  0.08317  1.0000
  H   H3641     1.0  0.88247  0.88354  0.21393  1.0000
  C   C2044     1.0  0.89974  0.92016  0.22373  1.0000
  Fe  Fe229     1.0  0.78492  0.56222  0.23161  1.0000
  C   C2045     1.0  0.90342  0.91000  0.19788  1.0000
  Fe  Fe230     1.0  0.65898  0.69887  0.03636  1.0000
  H   H3642     1.0  0.82079  0.78903  0.09836  1.0000
  C   C2046     1.0  0.97889  0.73460  0.09203  1.0000
  C   C2047     1.0  0.93273  0.66816  0.12706  1.0000
  H   H3643     1.0  0.78300  0.80116  0.06081  1.0000
  H   H3644     1.0  0.72656  0.63956  0.10854  1.0000
  C   C2048     1.0  0.75277  0.97105  0.05669  1.0000
  H   H3645     1.0  0.78063  0.83479  0.07312  1.0000
  H   H3646     1.0  0.92565  0.64989  0.12121  1.0000
  C   C2049     1.0  0.86149  0.68309  0.00038  1.0000
  H   H3647     1.0  0.75281  0.81199  0.05135  1.0000
  H   H3648     1.0  0.88074  0.85859  0.19537  1.0000
  H   H3649     1.0  0.88709  0.91256  0.19526  1.0000
  H   H3650     1.0  0.85644  0.81416  0.16402  1.0000
  H   H3651     1.0  0.84429  0.62301  0.14171  1.0000
  H   H3652     1.0  0.77916  0.79923  0.09994  1.0000
  H   H3653     1.0  0.86629  0.87192  0.18491  1.0000
  H   H3654     1.0  0.75725  0.97778  0.06800  1.0000
  H   H3655     1.0  0.86772  0.63149  0.11956  1.0000
  C   C2050     1.0  0.73200  0.78098  0.10021  1.0000
  C   C2051     1.0  0.79398  0.67551  0.13902  1.0000
  H   H3656     1.0  0.73989  0.80061  0.10408  1.0000
  H   H3657     1.0  0.95594  0.50470  0.17343  1.0000
  H   H3658     1.0  0.93820  0.66516  0.13789  1.0000
  C   C2052     1.0  0.75232  0.85617  0.07708  1.0000
  H   H3659     1.0  0.79145  0.70501  0.17089  1.0000
  H   H3660     1.0  0.79285  0.68825  0.22324  1.0000
  H   H3661     1.0  0.81105  0.80086  0.07505  1.0000
  H   H3662     1.0  0.69697  0.74758  0.10124  1.0000
  H   H3663     1.0  0.78439  0.66380  0.16477  1.0000
  N   N114      1.0  0.76136  0.79681  0.07936  1.0000
  H   H3664     1.0  0.95943  0.64189  0.00028  1.0000
  C   C2053     1.0  0.90013  0.90078  0.21326  1.0000
  H   H3665     1.0  0.76678  0.67603  0.11542  1.0000
  C   C2054     1.0  0.70476  0.76782  0.10348  1.0000
  C   C2055     1.0  0.81627  0.65589  0.12570  1.0000
  C   C2056     1.0  0.87697  0.63122  0.12976  1.0000
  H   H3666     1.0  0.77727  0.63964  0.12662  1.0000
  C   C2057     1.0  0.85686  0.61499  0.13962  1.0000
  H   H3667     1.0  0.73602  0.85926  0.07570  1.0000
  H   H3668     1.0  0.74112  0.77222  0.10649  1.0000
  C   C2058     1.0  0.81551  0.52039  0.23136  1.0000
  H   H3669     1.0  0.84407  0.81901  0.09353  1.0000
  C   C2059     1.0  0.66408  0.79963  0.06200  1.0000
  H   H3670     1.0  0.80994  0.68437  0.14678  1.0000
  H   H3671     1.0  0.89406  0.66442  0.21830  1.0000
  C   C2060     1.0  0.74394  0.82850  0.07825  1.0000
  C   C2061     1.0  0.75190  0.61963  0.17237  1.0000
  H   H3672     1.0  0.91522  0.89697  0.21687  1.0000
  H   H3673     1.0  0.97311  0.91181  0.16280  1.0000
  C   C2062     1.0  0.75030  0.67335  0.12120  1.0000
  H   H3674     1.0  0.84590  0.59614  0.13457  1.0000
  H   H3675     1.0  0.68327  0.74465  0.99485  1.0000
  C   C2063     1.0  0.82468  0.80841  0.09662  1.0000
  H   H3676     1.0  0.81705  0.66599  0.11594  1.0000
  H   H3677     1.0  0.83927  0.65025  0.21942  1.0000
  H   H3678     1.0  0.84082  0.82943  0.17237  1.0000
  H   H3679     1.0  0.75724  0.66648  0.16699  1.0000
  H   H3680     1.0  0.86963  0.63461  0.22302  1.0000
  C   C2064     1.0  0.75028  0.78175  0.03825  1.0000
  H   H3681     1.0  0.73546  0.51357  0.20873  1.0000
  C   C2065     1.0  0.85724  0.82643  0.17319  1.0000
  H   H3682     1.0  0.83310  0.66694  0.13252  1.0000
  C   C2066     1.0  0.73615  0.77883  0.08412  1.0000
  H   H3683     1.0  0.73061  0.62655  0.15643  1.0000
  C   C2067     1.0  0.95632  0.68611  0.11956  1.0000
  H   H3684     1.0  0.92421  0.69205  0.15712  1.0000
  H   H3685     1.0  0.74584  0.76197  0.03889  1.0000
  C   C2068     1.0  0.97465  0.74467  0.10466  1.0000
  H   H3686     1.0  0.76939  0.79249  0.03473  1.0000
  H   H3687     1.0  0.72775  0.78221  0.05519  1.0000
  C   C2069     1.0  0.74739  0.79213  0.05265  1.0000
  H   H3688     1.0  0.72148  0.78047  0.07795  1.0000
  H   H3689     1.0  0.96461  0.50606  0.21697  1.0000
  H   H3690     1.0  0.97566  0.89602  0.18747  1.0000
  C   C2070     1.0  0.72038  0.49784  0.21387  1.0000
  H   H3691     1.0  0.97407  0.88053  0.11553  1.0000
  S   S461      1.0  0.66244  0.96577  0.05901  1.0000
  Fe  Fe231     1.0  0.66446  0.94366  0.03991  1.0000
  H   H3692     1.0  0.95440  0.73456  0.16597  1.0000
  H   H3693     1.0  0.69288  0.63441  0.01181  1.0000
  C   C2071     1.0  0.97858  0.98574  0.22756  1.0000
  H   H3694     1.0  0.92997  0.75566  0.22779  1.0000
  C   C2072     1.0  0.87411  0.65135  0.21688  1.0000
  C   C2073     1.0  0.96505  0.49362  0.17550  1.0000
  H   H3695     1.0  0.88412  0.92382  0.22102  1.0000
  H   H3696     1.0  0.96478  0.70504  0.12461  1.0000
  H   H3697     1.0  0.98303  0.62536  0.05966  1.0000
  S   S462      1.0  0.96774  0.97048  0.21058  1.0000
  C   C2074     1.0  0.72144  0.50390  0.22981  1.0000
  C   C2075     1.0  0.73967  0.98363  0.04912  1.0000
  H   H3698     1.0  0.89769  0.91339  0.23469  1.0000
  H   H3699     1.0  0.98087  0.59545  0.04107  1.0000
  Fe  Fe232     1.0  0.98099  0.98710  0.18916  1.0000
  H   H3700     1.0  0.71957  0.52102  0.23116  1.0000
  C   C2076     1.0  0.85887  0.66378  0.22169  1.0000
  H   H3701     1.0  0.95307  0.70392  0.14849  1.0000
  H   H3702     1.0  0.66962  0.63391  0.99061  1.0000
  H   H3703     1.0  0.90168  0.75352  0.22053  1.0000
  C   C2077     1.0  0.89717  0.72320  0.23388  1.0000
  C   C2078     1.0  0.97398  0.60056  0.99208  1.0000
  C   C2079     1.0  0.97080  0.54301  0.22160  1.0000
  H   H3704     1.0  0.87051  0.65787  0.98896  1.0000
  H   H3705     1.0  0.96936  0.58068  0.99212  1.0000
  C   C2080     1.0  0.98045  0.52483  0.21765  1.0000
  H   H3706     1.0  0.73995  0.50794  0.23403  1.0000
  H   H3707     1.0  0.76146  0.98644  0.10069  1.0000
  H   H3708     1.0  0.96254  0.53916  0.23219  1.0000
  S   S463      1.0  0.65148  0.69003  0.01221  1.0000
  H   H3709     1.0  0.69448  0.95677  0.98883  1.0000
  H   H3710     1.0  0.65741  0.90014  0.00437  1.0000
  H   H3711     1.0  0.68680  0.77284  0.98729  1.0000
  C   C2081     1.0  0.69364  0.75896  0.98712  1.0000
  H   H3712     1.0  0.74082  0.98797  0.00290  1.0000
  C   C2082     1.0  0.87045  0.67565  0.98699  1.0000
  H   H3713     1.0  0.89277  0.72190  0.26438  1.0000
  Fe  Fe233     1.0  0.65936  0.73856  0.42346  1.0000
  S   S464      1.0  0.67960  0.92421  0.42595  1.0000
  H   H3714     1.0  0.66299  0.85554  0.43301  1.0000
  Fe  Fe234     1.0  0.68303  0.95167  0.40960  1.0000
  H   H3715     1.0  0.83419  0.85321  0.33450  1.0000
  H   H3716     1.0  0.96388  0.63556  0.40249  1.0000
  C   C2083     1.0  0.88768  0.97095  0.29010  1.0000
  H   H3717     1.0  0.72360  0.66060  0.31864  1.0000
  H   H3718     1.0  0.76575  0.85448  0.42168  1.0000
  H   H3719     1.0  0.68294  0.78212  0.39000  1.0000
  H   H3720     1.0  0.71399  0.51413  0.27982  1.0000
  C   C2084     1.0  0.94136  0.81933  0.35982  1.0000
  Fe  Fe235     1.0  0.67635  0.70946  0.40347  1.0000
  S   S465      1.0  0.70068  0.71606  0.38434  1.0000
  S   S466      1.0  0.68890  0.72678  0.42551  1.0000
  H   H3721     1.0  0.89043  0.68862  0.46897  1.0000
  H   H3722     1.0  0.85279  0.86203  0.31915  1.0000
  Fe  Fe236     1.0  0.96164  0.95904  0.31027  1.0000
  S   S467      1.0  0.93276  0.91845  0.30651  1.0000
  Fe  Fe237     1.0  0.88546  0.74922  0.35179  1.0000
  S   S468      1.0  0.88293  0.76799  0.33198  1.0000
  S   S469      1.0  0.92256  0.74949  0.35496  1.0000
  Fe  Fe238     1.0  0.83459  0.74124  0.36097  1.0000
  S   S470      1.0  0.82919  0.75995  0.34209  1.0000
  S   S471      1.0  0.80846  0.72691  0.37929  1.0000
  Fe  Fe239     1.0  0.84367  0.73768  0.32954  1.0000
  S   S472      1.0  0.82429  0.72039  0.30792  1.0000
  Fe  Fe240     1.0  0.86888  0.78858  0.34593  1.0000
  S   S473      1.0  0.88424  0.83057  0.34920  1.0000
  S   S474      1.0  0.84705  0.71733  0.34831  1.0000
  S   S475      1.0  0.87329  0.77127  0.36583  1.0000
  H   H3723     1.0  0.74389  0.75444  0.44278  1.0000
  Fe  Fe241     1.0  0.78959  0.60285  0.25339  1.0000
  S   S476      1.0  0.76441  0.56156  0.25127  1.0000
  S   S477      1.0  0.80873  0.62087  0.27492  1.0000
  H   H3724     1.0  0.97837  0.63286  0.47405  1.0000
  H   H3725     1.0  0.87465  0.93262  0.29441  1.0000
  C   C2085     1.0  0.73923  0.95848  0.45657  1.0000
  H   H3726     1.0  0.73985  0.72814  0.43153  1.0000
  C   C2086     1.0  0.81895  0.69187  0.29936  1.0000
  C   C2087     1.0  0.82767  0.67656  0.30521  1.0000
  C   C2088     1.0  0.82381  0.65459  0.29774  1.0000
  C   C2089     1.0  0.81112  0.64758  0.28439  1.0000
  C   C2090     1.0  0.80174  0.66249  0.27875  1.0000
  C   C2091     1.0  0.80578  0.68458  0.28615  1.0000
  H   H3727     1.0  0.83779  0.68187  0.31536  1.0000
  H   H3728     1.0  0.83111  0.64317  0.30223  1.0000
  H   H3729     1.0  0.79163  0.65713  0.26860  1.0000
  H   H3730     1.0  0.79873  0.69615  0.28159  1.0000
  C   C2092     1.0  0.72828  0.97448  0.45009  1.0000
  C   C2093     1.0  0.92043  0.89425  0.31862  1.0000
  C   C2094     1.0  0.90565  0.86981  0.31322  1.0000
  C   C2095     1.0  0.89481  0.85001  0.32239  1.0000
  C   C2096     1.0  0.89817  0.85457  0.33711  1.0000
  C   C2097     1.0  0.91278  0.87905  0.34254  1.0000
  C   C2098     1.0  0.92417  0.89875  0.33335  1.0000
  H   H3731     1.0  0.90254  0.86615  0.30183  1.0000
  H   H3732     1.0  0.88344  0.83132  0.31808  1.0000
  H   H3733     1.0  0.91549  0.88275  0.35393  1.0000
  H   H3734     1.0  0.93571  0.91738  0.33768  1.0000
  H   H3735     1.0  0.67457  0.52963  0.27185  1.0000
  H   H3736     1.0  0.72263  0.96777  0.43881  1.0000
  C   C2099     1.0  0.95175  0.72648  0.39436  1.0000
  C   C2100     1.0  0.92691  0.72104  0.39308  1.0000
  C   C2101     1.0  0.91782  0.72847  0.38129  1.0000
  C   C2102     1.0  0.93344  0.74113  0.37048  1.0000
  C   C2103     1.0  0.95834  0.74668  0.37177  1.0000
  C   C2104     1.0  0.96753  0.73968  0.38372  1.0000
  H   H3737     1.0  0.91456  0.71093  0.40127  1.0000
  H   H3738     1.0  0.89864  0.72405  0.38046  1.0000
  H   H3739     1.0  0.97775  0.62928  0.33293  1.0000
  C   C2105     1.0  0.73038  0.71833  0.38307  1.0000
  C   C2106     1.0  0.74116  0.71096  0.39389  1.0000
  C   C2107     1.0  0.76499  0.71359  0.39249  1.0000
  C   C2108     1.0  0.77838  0.72371  0.38034  1.0000
  C   C2109     1.0  0.76763  0.73117  0.36954  1.0000
  C   C2110     1.0  0.74368  0.72826  0.37086  1.0000
  H   H3740     1.0  0.73114  0.70321  0.40332  1.0000
  H   H3741     1.0  0.77316  0.70780  0.40092  1.0000
  H   H3742     1.0  0.77785  0.73938  0.36026  1.0000
  H   H3743     1.0  0.73553  0.73411  0.36246  1.0000
  H   H3744     1.0  0.92276  0.82318  0.33232  1.0000
  H   H3745     1.0  0.96938  0.59762  0.45644  1.0000
  H   H3746     1.0  0.84706  0.97486  0.35009  1.0000
  C   C2111     1.0  0.86298  0.97203  0.33013  1.0000
  C   C2112     1.0  0.88007  0.69938  0.28236  1.0000
  C   C2113     1.0  0.81551  0.69520  0.24272  1.0000
  H   H3747     1.0  0.94177  0.99041  0.36057  1.0000
  C   C2114     1.0  0.66840  0.96265  0.47467  1.0000
  H   H3748     1.0  0.92273  0.98283  0.33678  1.0000
  C   C2115     1.0  0.73812  0.64036  0.29722  1.0000
  H   H3749     1.0  0.75709  0.96265  0.45200  1.0000
  Fe  Fe242     1.0  0.73967  0.57045  0.23706  1.0000
  H   H3750     1.0  0.91061  0.76256  0.23913  1.0000
  C   C2116     1.0  0.66954  0.67159  0.46985  1.0000
  H   H3751     1.0  0.96605  0.64595  0.46112  1.0000
  H   H3752     1.0  0.76714  0.64964  0.31289  1.0000
  C   C2117     1.0  0.65187  0.79684  0.41020  1.0000
  H   H3753     1.0  0.94314  0.64435  0.41109  1.0000
  H   H3754     1.0  0.77825  0.74856  0.33117  1.0000
  C   C2118     1.0  0.76812  0.66196  0.34172  1.0000
  C   C2119     1.0  0.71812  0.78687  0.39826  1.0000
  H   H3755     1.0  0.96018  0.57858  0.40238  1.0000
  H   H3756     1.0  0.78351  0.70028  0.32580  1.0000
  C   C2120     1.0  0.97398  0.49935  0.28152  1.0000
  H   H3757     1.0  0.87042  0.67952  0.28494  1.0000
  H   H3758     1.0  0.92057  0.81011  0.29290  1.0000
  C   C2121     1.0  0.83772  0.51248  0.25074  1.0000
  H   H3759     1.0  0.72491  0.98583  0.47761  1.0000
  H   H3760     1.0  0.67730  0.93162  0.35760  1.0000
  H   H3761     1.0  0.72298  0.80572  0.40261  1.0000
  S   S478      1.0  0.65880  0.93863  0.46101  1.0000
  C   C2122     1.0  0.74138  0.78610  0.39298  1.0000
  C   C2123     1.0  0.95466  0.66038  0.39064  1.0000
  H   H3762     1.0  0.72523  0.64709  0.29334  1.0000
  C   C2124     1.0  0.69811  0.50635  0.25789  1.0000
  H   H3763     1.0  0.76329  0.80745  0.43416  1.0000
  H   H3764     1.0  0.77296  0.76576  0.39250  1.0000
  H   H3765     1.0  0.73880  0.71011  0.32946  1.0000
  H   H3766     1.0  0.81713  0.66046  0.24154  1.0000
  H   H3767     1.0  0.85541  0.94027  0.34292  1.0000
  C   C2125     1.0  0.77178  0.73762  0.32091  1.0000
  C   C2126     1.0  0.95269  0.84477  0.35271  1.0000
  H   H3768     1.0  0.97739  0.70147  0.46483  1.0000
  H   H3769     1.0  0.94860  0.83520  0.38157  1.0000
  C   C2127     1.0  0.75404  0.65661  0.30989  1.0000
  H   H3770     1.0  0.70980  0.98513  0.36998  1.0000
  H   H3771     1.0  0.76474  0.67568  0.30620  1.0000
  C   C2128     1.0  0.73331  0.67105  0.34608  1.0000
  H   H3772     1.0  0.82241  0.81225  0.36999  1.0000
  H   H3773     1.0  0.89877  0.70794  0.28755  1.0000
  C   C2129     1.0  0.88195  0.70184  0.26627  1.0000
  H   H3774     1.0  0.78152  0.69700  0.23872  1.0000
  H   H3775     1.0  0.73525  0.76852  0.38649  1.0000
  C   C2130     1.0  0.87624  0.94954  0.30010  1.0000
  H   H3776     1.0  0.70180  0.95530  0.34820  1.0000
  H   H3777     1.0  0.74937  0.80125  0.38541  1.0000
  C   C2131     1.0  0.69211  0.53260  0.27716  1.0000
  H   H3778     1.0  0.84440  0.67263  0.26292  1.0000
  C   C2132     1.0  0.85616  0.69135  0.25882  1.0000
  C   C2133     1.0  0.84515  0.49887  0.24151  1.0000
  C   C2134     1.0  0.94849  0.68096  0.36316  1.0000
  C   C2135     1.0  0.69924  0.78107  0.38600  1.0000
  H   H3779     1.0  0.92513  0.80518  0.35354  1.0000
  H   H3780     1.0  0.78298  0.66479  0.33434  1.0000
  C   C2136     1.0  0.84453  0.97666  0.33855  1.0000
  H   H3781     1.0  0.94627  0.49630  0.33047  1.0000
  H   H3782     1.0  0.79017  0.85297  0.43206  1.0000
  Fe  Fe243     1.0  0.65324  0.93475  0.43657  1.0000
  C   C2137     1.0  0.66566  0.82138  0.43225  1.0000
  S   S479      1.0  0.65222  0.92229  0.39582  1.0000
  S   S480      1.0  0.66798  0.77739  0.43204  1.0000
  N   N115      1.0  0.75172  0.67177  0.33556  1.0000
  H   H3783     1.0  0.76208  0.74555  0.31446  1.0000
  C   C2138     1.0  0.86973  0.71498  0.23674  1.0000
  H   H3784     1.0  0.84372  0.89717  0.33947  1.0000
  H   H3785     1.0  0.81794  0.53378  0.25302  1.0000
  H   H3786     1.0  0.77429  0.49567  0.25747  1.0000
  C   C2139     1.0  0.69655  0.51036  0.27410  1.0000
  H   H3787     1.0  0.97003  0.97288  0.26281  1.0000
  C   C2140     1.0  0.86318  0.67116  0.23783  1.0000
  H   H3788     1.0  0.79744  0.82180  0.38707  1.0000
  H   H3789     1.0  0.67965  0.97236  0.33834  1.0000
  H   H3790     1.0  0.87325  0.65519  0.46989  1.0000
  H   H3791     1.0  0.90172  0.80282  0.30812  1.0000
  H   H3792     1.0  0.93991  0.80685  0.33010  1.0000
  S   S481      1.0  0.69848  0.55707  0.24110  1.0000
  H   H3793     1.0  0.97941  0.91995  0.33175  1.0000
  C   C2141     1.0  0.98323  0.83979  0.33894  1.0000
  H   H3794     1.0  0.94646  0.61635  0.46821  1.0000
  N   N116      1.0  0.67447  0.97767  0.36065  1.0000
  H   H3795     1.0  0.77302  0.82806  0.40411  1.0000
  H   H3796     1.0  0.95673  0.95256  0.23867  1.0000
  C   C2142     1.0  0.73798  0.65581  0.32256  1.0000
  N   N117      1.0  0.87881  0.93935  0.32637  1.0000
  H   H3797     1.0  0.67311  0.82402  0.44306  1.0000
  S   S482      1.0  0.76388  0.61170  0.24062  1.0000
  S   S483      1.0  0.72284  0.97422  0.40261  1.0000
  C   C2143     1.0  0.69140  0.96914  0.36747  1.0000
  H   H3798     1.0  0.82682  0.71508  0.24060  1.0000
  H   H3799     1.0  0.81203  0.69355  0.25422  1.0000
  H   H3800     1.0  0.71573  0.92869  0.36026  1.0000
  H   H3801     1.0  0.87567  0.96671  0.28034  1.0000
  H   H3802     1.0  0.78104  0.78189  0.42929  1.0000
  C   C2144     1.0  0.96966  0.97210  0.23979  1.0000
  H   H3803     1.0  0.89978  0.97588  0.35004  1.0000
  C   C2145     1.0  0.84108  0.86684  0.32602  1.0000
  H   H3804     1.0  0.90075  0.97480  0.31696  1.0000
  C   C2146     1.0  0.76995  0.84428  0.42996  1.0000
  H   H3805     1.0  0.84327  0.51472  0.26190  1.0000
  H   H3806     1.0  0.95221  0.87319  0.33143  1.0000
  H   H3807     1.0  0.92543  0.80325  0.37964  1.0000
  H   H3808     1.0  0.74209  0.96186  0.46826  1.0000
  H   H3809     1.0  0.96793  0.85783  0.36009  1.0000
  C   C2147     1.0  0.93294  0.82152  0.37469  1.0000
  C   C2148     1.0  0.66062  0.68502  0.47793  1.0000
  H   H3810     1.0  0.72748  0.62076  0.30018  1.0000
  H   H3811     1.0  0.94772  0.69145  0.37280  1.0000
  H   H3812     1.0  0.77840  0.66623  0.23681  1.0000
  H   H3813     1.0  0.77650  0.75535  0.41832  1.0000
  H   H3814     1.0  0.73162  0.95983  0.36799  1.0000
  H   H3815     1.0  0.84856  0.70346  0.26293  1.0000
  H   H3816     1.0  0.91826  0.82720  0.37408  1.0000
  C   C2149     1.0  0.79200  0.80217  0.38408  1.0000
  H   H3817     1.0  0.82539  0.96343  0.33489  1.0000
  C   C2150     1.0  0.66149  0.79994  0.42415  1.0000
  H   H3818     1.0  0.72924  0.91992  0.45971  1.0000
  C   C2151     1.0  0.67218  0.98658  0.47203  1.0000
  H   H3819     1.0  0.78787  0.73928  0.31505  1.0000
  H   H3820     1.0  0.92039  0.95969  0.36564  1.0000
  H   H3821     1.0  0.77877  0.79612  0.37477  1.0000
  C   C2152     1.0  0.75970  0.81699  0.42525  1.0000
  C   C2153     1.0  0.82831  0.67970  0.23795  1.0000
  S   S484      1.0  0.65804  0.96357  0.42076  1.0000
  H   H3822     1.0  0.98246  0.60719  0.39506  1.0000
  H   H3823     1.0  0.82510  0.86537  0.31956  1.0000
  C   C2154     1.0  0.96202  0.65408  0.37607  1.0000
  H   H3824     1.0  0.73539  0.77004  0.42084  1.0000
  H   H3825     1.0  0.79443  0.69388  0.35493  1.0000
  C   C2155     1.0  0.89020  0.67207  0.47370  1.0000
  H   H3826     1.0  0.70712  0.79462  0.37756  1.0000
  H   H3827     1.0  0.90716  0.72085  0.24312  1.0000
  H   H3828     1.0  0.84095  0.93292  0.32579  1.0000
  H   H3829     1.0  0.74699  0.70087  0.31297  1.0000
  H   H3830     1.0  0.97062  0.75659  0.36352  1.0000
  H   H3831     1.0  0.72772  0.63604  0.32532  1.0000
  H   H3832     1.0  0.90780  0.95119  0.31146  1.0000
  H   H3833     1.0  0.68607  0.64742  0.47103  1.0000
  H   H3834     1.0  0.73952  0.80906  0.42377  1.0000
  H   H3835     1.0  0.71992  0.67609  0.34095  1.0000
  H   H3836     1.0  0.65172  0.54772  0.25186  1.0000
  N   N118      1.0  0.96169  0.84511  0.33787  1.0000
  H   H3837     1.0  0.79569  0.78847  0.40431  1.0000
  C   C2156     1.0  0.76694  0.76397  0.42435  1.0000
  C   C2157     1.0  0.71770  0.64585  0.35287  1.0000
  C   C2158     1.0  0.78139  0.67411  0.35621  1.0000
  C   C2159     1.0  0.70114  0.64825  0.36398  1.0000
  C   C2160     1.0  0.79607  0.66162  0.36188  1.0000
  H   H3838     1.0  0.75770  0.64154  0.34277  1.0000
  H   H3839     1.0  0.74257  0.68535  0.35483  1.0000
  H   H3840     1.0  0.72939  0.63907  0.35833  1.0000
  H   H3841     1.0  0.70574  0.63161  0.34466  1.0000
  H   H3842     1.0  0.76839  0.67298  0.36444  1.0000
  H   H3843     1.0  0.68988  0.63001  0.36862  1.0000
  H   H3844     1.0  0.71238  0.66176  0.37272  1.0000
  H   H3845     1.0  0.76689  0.74411  0.44310  1.0000
  H   H3846     1.0  0.78358  0.64200  0.36413  1.0000
  H   H3847     1.0  0.80965  0.66236  0.35411  1.0000
  H   H3848     1.0  0.80622  0.67149  0.37193  1.0000
  H   H3849     1.0  0.93623  0.84512  0.31069  1.0000
  H   H3850     1.0  0.95790  0.83396  0.30771  1.0000
  C   C2161     1.0  0.93033  0.97087  0.35660  1.0000
  H   H3851     1.0  0.79152  0.81986  0.41502  1.0000
  H   H3852     1.0  0.68140  0.50525  0.25247  1.0000
  C   C2162     1.0  0.92221  0.65971  0.35952  1.0000
  C   C2163     1.0  0.97162  0.61554  0.45266  1.0000
  H   H3853     1.0  0.81023  0.78126  0.37617  1.0000
  H   H3854     1.0  0.93860  0.85135  0.35269  1.0000
  C   C2164     1.0  0.75426  0.71050  0.32351  1.0000
  C   C2165     1.0  0.90357  0.66962  0.35923  1.0000
  C   C2166     1.0  0.94800  0.63917  0.40069  1.0000
  H   H3855     1.0  0.72089  0.92569  0.44234  1.0000
  C   C2167     1.0  0.77203  0.81394  0.41164  1.0000
  C   C2168     1.0  0.97720  0.98356  0.25350  1.0000
  C   C2169     1.0  0.76753  0.69837  0.33189  1.0000
  C   C2170     1.0  0.85884  0.94501  0.33157  1.0000
  H   H3856     1.0  0.85337  0.65368  0.24359  1.0000
  H   H3857     1.0  0.82935  0.80756  0.38799  1.0000
  H   H3858     1.0  0.95491  0.81232  0.36105  1.0000
  H   H3859     1.0  0.73771  0.74983  0.40813  1.0000
  H   H3860     1.0  0.91628  0.64519  0.36747  1.0000
  H   H3861     1.0  0.92134  0.65100  0.34887  1.0000
  H   H3862     1.0  0.68852  0.65452  0.35908  1.0000
  H   H3863     1.0  0.93855  0.66378  0.38961  1.0000
  C   C2171     1.0  0.69490  0.94908  0.35888  1.0000
  C   C2172     1.0  0.72203  0.93081  0.45384  1.0000
  H   H3864     1.0  0.98223  0.89502  0.35156  1.0000
  H   H3865     1.0  0.91076  0.93724  0.33446  1.0000
  C   C2173     1.0  0.94073  0.82528  0.32873  1.0000
  C   C2174     1.0  0.75349  0.74662  0.43615  1.0000
  H   H3866     1.0  0.86997  0.70888  0.28677  1.0000
  H   H3867     1.0  0.90272  0.67724  0.36995  1.0000
  H   H3868     1.0  0.90862  0.68448  0.35150  1.0000
  H   H3869     1.0  0.88500  0.65439  0.35608  1.0000
  C   C2175     1.0  0.89730  0.94320  0.33827  1.0000
  S   S485      1.0  0.66770  0.66982  0.45078  1.0000
  H   H3870     1.0  0.96043  0.50264  0.27579  1.0000
  H   H3871     1.0  0.69304  0.76204  0.38137  1.0000
  C   C2176     1.0  0.82332  0.52339  0.24572  1.0000
  H   H3872     1.0  0.77588  0.71019  0.34173  1.0000
  H   H3873     1.0  0.92289  0.79019  0.30595  1.0000
  H   H3874     1.0  0.70687  0.93574  0.37718  1.0000
  H   H3875     1.0  0.70331  0.92578  0.45752  1.0000
  C   C2177     1.0  0.96877  0.87039  0.33225  1.0000
  N   N119      1.0  0.85499  0.68975  0.24276  1.0000
  C   C2178     1.0  0.85598  0.89297  0.33276  1.0000
  H   H3876     1.0  0.95786  0.61188  0.44386  1.0000
  C   C2179     1.0  0.91212  0.96975  0.34491  1.0000
  H   H3877     1.0  0.86060  0.97556  0.31885  1.0000
  N   N120      1.0  0.96841  0.67341  0.36507  1.0000
  H   H3878     1.0  0.95281  0.69413  0.35447  1.0000
  H   H3879     1.0  0.93196  0.62204  0.39624  1.0000
  H   H3880     1.0  0.86897  0.72949  0.24384  1.0000
  H   H3881     1.0  0.75005  0.64105  0.28840  1.0000
  C   C2180     1.0  0.94022  0.82947  0.31253  1.0000
  H   H3882     1.0  0.94703  0.63586  0.37193  1.0000
  H   H3883     1.0  0.85263  0.90818  0.31297  1.0000
  H   H3884     1.0  0.97510  0.87179  0.32124  1.0000
  H   H3885     1.0  0.68462  0.96126  0.37791  1.0000
  S   S486      1.0  0.96168  0.71536  0.40910  1.0000
  C   C2181     1.0  0.65998  0.83934  0.42658  1.0000
  H   H3886     1.0  0.71350  0.52376  0.25436  1.0000
  C   C2182     1.0  0.67925  0.65803  0.47710  1.0000
  C   C2183     1.0  0.86743  0.91241  0.32125  1.0000
  H   H3887     1.0  0.85736  0.94629  0.30222  1.0000
  C   C2184     1.0  0.81486  0.80067  0.37931  1.0000
  H   H3888     1.0  0.69101  0.53518  0.28879  1.0000
  H   H3889     1.0  0.70892  0.77316  0.40643  1.0000
  H   H3890     1.0  0.95449  0.64489  0.34821  1.0000
  N   N121      1.0  0.76050  0.78855  0.40416  1.0000
  C   C2185     1.0  0.74883  0.76773  0.41422  1.0000
  C   C2186     1.0  0.78029  0.78524  0.39667  1.0000
  H   H3891     1.0  0.76129  0.84578  0.43990  1.0000
  H   H3892     1.0  0.97024  0.67709  0.39572  1.0000
  H   H3893     1.0  0.97799  0.65073  0.37841  1.0000
  H   H3894     1.0  0.90635  0.67036  0.47000  1.0000
  H   H3895     1.0  0.87068  0.89262  0.33967  1.0000
  C   C2187     1.0  0.89212  0.95468  0.31409  1.0000
  H   H3896     1.0  0.70742  0.54979  0.27328  1.0000
  H   H3897     1.0  0.88813  0.93157  0.34733  1.0000
  H   H3898     1.0  0.89208  0.69198  0.26255  1.0000
  Fe  Fe244     1.0  0.65936  0.69091  0.43334  1.0000
  C   C2188     1.0  0.92011  0.80668  0.30443  1.0000
  H   H3899     1.0  0.88138  0.90855  0.31597  1.0000
  H   H3900     1.0  0.94270  0.96383  0.35248  1.0000
  H   H3901     1.0  0.88288  0.67772  0.24066  1.0000
  C   C2189     1.0  0.96534  0.62852  0.46476  1.0000
  H   H3902     1.0  0.71070  0.96964  0.45533  1.0000
  C   C2190     1.0  0.71343  0.94303  0.36657  1.0000
  C   C2191     1.0  0.97382  0.51895  0.34616  1.0000
  H   H3903     1.0  0.96357  0.52929  0.34878  1.0000
  H   H3904     1.0  0.67590  0.98569  0.39159  1.0000
  H   H3905     1.0  0.68127  0.49398  0.27859  1.0000
  H   H3906     1.0  0.90596  0.97364  0.28691  1.0000
  C   C2192     1.0  0.97994  0.69487  0.47495  1.0000
  H   H3907     1.0  0.97713  0.82066  0.34249  1.0000
  C   C2193     1.0  0.68303  0.98767  0.34622  1.0000
  H   H3908     1.0  0.97181  0.59677  0.42764  1.0000
  H   H3909     1.0  0.98278  0.51724  0.35614  1.0000
  C   C2194     1.0  0.97134  0.66258  0.35111  1.0000
  H   H3910     1.0  0.97293  0.67495  0.34230  1.0000
  S   S487      1.0  0.97974  0.97919  0.33100  1.0000
  S   S488      1.0  0.95387  0.98939  0.30236  1.0000
  H   H3911     1.0  0.74082  0.50765  0.25775  1.0000
  H   H3912     1.0  0.88160  0.98619  0.33382  1.0000
  C   C2195     1.0  0.97976  0.58968  0.39976  1.0000
  H   H3913     1.0  0.94813  0.69510  0.48392  1.0000
  H   H3914     1.0  0.66873  0.99083  0.46141  1.0000
  H   H3915     1.0  0.65295  0.69543  0.47261  1.0000
  H   H3916     1.0  0.98429  0.57901  0.39168  1.0000
  H   H3917     1.0  0.88970  0.98840  0.29529  1.0000
  C   C2196     1.0  0.66399  0.99072  0.38493  1.0000
  C   C2197     1.0  0.96325  0.69112  0.48584  1.0000
  C   C2198     1.0  0.66777  0.53340  0.23648  1.0000
  C   C2199     1.0  0.95610  0.49333  0.33961  1.0000
  Fe  Fe245     1.0  0.68759  0.65944  0.53795  1.0000
  S   S489      1.0  0.72084  0.68957  0.54991  1.0000
  C   C2200     1.0  0.85119  0.61089  0.51989  1.0000
  Fe  Fe246     1.0  0.68137  0.62113  0.56036  1.0000
  S   S490      1.0  0.71464  0.64917  0.57331  1.0000
  H   H3918     1.0  0.65471  0.68146  0.64139  1.0000
  Fe  Fe247     1.0  0.70001  0.67619  0.56972  1.0000
  S   S491      1.0  0.70203  0.69930  0.58987  1.0000
  Fe  Fe248     1.0  0.73393  0.66102  0.55284  1.0000
  S   S492      1.0  0.77624  0.67824  0.55194  1.0000
  S   S493      1.0  0.66564  0.64751  0.55794  1.0000
  S   S494      1.0  0.70167  0.63132  0.53964  1.0000
  Fe  Fe249     1.0  0.89780  0.65279  0.55696  1.0000
  S   S495      1.0  0.90696  0.63057  0.54098  1.0000
  S   S496      1.0  0.85583  0.63842  0.55829  1.0000
  Fe  Fe250     1.0  0.95260  0.68179  0.56749  1.0000
  S   S497      1.0  0.96439  0.66092  0.55189  1.0000
  Fe  Fe251     1.0  0.93974  0.66639  0.53578  1.0000
  S   S498      1.0  0.94380  0.67758  0.51234  1.0000
  Fe  Fe252     1.0  0.93061  0.62661  0.55833  1.0000
  S   S499      1.0  0.92910  0.58832  0.56064  1.0000
  S   S500      1.0  0.92958  0.68908  0.55113  1.0000
  S   S501      1.0  0.92000  0.64705  0.57455  1.0000
  C   C2201     1.0  0.68344  0.85293  0.58667  1.0000
  S   S502      1.0  0.89385  0.50625  0.60808  1.0000
  H   H3919     1.0  0.65418  0.69502  0.49904  1.0000
  S   S503      1.0  0.95510  0.94788  0.67658  1.0000
  C   C2202     1.0  0.82219  0.66823  0.50599  1.0000
  H   H3920     1.0  0.76688  0.89935  0.56928  1.0000
  C   C2203     1.0  0.87176  0.56243  0.53526  1.0000
  S   S504      1.0  0.90439  0.96928  0.66623  1.0000
  Fe  Fe253     1.0  0.72363  0.83421  0.61900  1.0000
  S   S505      1.0  0.73646  0.83100  0.64111  1.0000
  S   S506      1.0  0.70915  0.80665  0.59971  1.0000
  Fe  Fe254     1.0  0.74041  0.89031  0.62356  1.0000
  S   S507      1.0  0.75440  0.89085  0.64598  1.0000
  S   S508      1.0  0.75073  0.92726  0.61304  1.0000
  Fe  Fe255     1.0  0.77042  0.86714  0.63757  1.0000
  S   S509      1.0  0.80950  0.87237  0.64101  1.0000
  Fe  Fe256     1.0  0.71929  0.85494  0.64823  1.0000
  S   S510      1.0  0.70218  0.85231  0.67002  1.0000
  S   S511      1.0  0.75859  0.86850  0.61505  1.0000
  S   S512      1.0  0.70427  0.85612  0.62622  1.0000
  H   H3921     1.0  0.69229  0.60628  0.59512  1.0000
  H   H3922     1.0  0.68137  0.71105  0.72174  1.0000
  H   H3923     1.0  0.89152  0.57318  0.53855  1.0000
  H   H3924     1.0  0.90699  0.95597  0.73084  1.0000
  C   C2204     1.0  0.87829  0.94129  0.66001  1.0000
  C   C2205     1.0  0.85457  0.93803  0.66263  1.0000
  C   C2206     1.0  0.83336  0.91670  0.65728  1.0000
  C   C2207     1.0  0.83560  0.89869  0.64887  1.0000
  C   C2208     1.0  0.85930  0.90176  0.64643  1.0000
  C   C2209     1.0  0.88052  0.92287  0.65199  1.0000
  H   H3925     1.0  0.85260  0.95200  0.66895  1.0000
  H   H3926     1.0  0.81526  0.91414  0.65965  1.0000
  H   H3927     1.0  0.86128  0.88782  0.64008  1.0000
  H   H3928     1.0  0.89859  0.92507  0.64987  1.0000
  C   C2210     1.0  0.69786  0.61670  0.60557  1.0000
  C   C2211     1.0  0.96600  0.68244  0.49914  1.0000
  C   C2212     1.0  0.70743  0.92577  0.60212  1.0000
  C   C2213     1.0  0.73316  0.93830  0.60308  1.0000
  C   C2214     1.0  0.74558  0.96051  0.59594  1.0000
  C   C2215     1.0  0.73254  0.97002  0.58786  1.0000
  H   H3929     1.0  0.69759  0.90888  0.60769  1.0000
  H   H3930     1.0  0.76546  0.97044  0.59664  1.0000
  H   H3931     1.0  0.69195  0.85683  0.55035  1.0000
  C   C2216     1.0  0.66134  0.68474  0.49296  1.0000
  C   C2217     1.0  0.86834  0.65754  0.51866  1.0000
  C   C2218     1.0  0.92020  0.56612  0.57420  1.0000
  C   C2219     1.0  0.91679  0.54209  0.57075  1.0000
  C   C2220     1.0  0.90926  0.52369  0.58098  1.0000
  C   C2221     1.0  0.90483  0.52900  0.59485  1.0000
  C   C2222     1.0  0.90854  0.55311  0.59834  1.0000
  C   C2223     1.0  0.91640  0.57160  0.58817  1.0000
  H   H3932     1.0  0.91984  0.53761  0.56003  1.0000
  H   H3933     1.0  0.81748  0.64869  0.50354  1.0000
  H   H3934     1.0  0.90535  0.55758  0.60903  1.0000
  H   H3935     1.0  0.91969  0.59013  0.59116  1.0000
  C   C2224     1.0  0.67126  0.67135  0.50023  1.0000
  C   C2225     1.0  0.69441  0.93530  0.59404  1.0000
  C   C2226     1.0  0.82442  0.97691  0.61523  1.0000
  H   H3936     1.0  0.98250  0.52388  0.58039  1.0000
  C   C2227     1.0  0.84178  0.98578  0.60268  1.0000
  C   C2228     1.0  0.79801  0.66677  0.55401  1.0000
  C   C2229     1.0  0.79093  0.64145  0.55421  1.0000
  C   C2230     1.0  0.80888  0.63329  0.55542  1.0000
  C   C2231     1.0  0.83420  0.65019  0.55658  1.0000
  C   C2232     1.0  0.84128  0.67555  0.55652  1.0000
  C   C2233     1.0  0.82334  0.68373  0.55511  1.0000
  H   H3937     1.0  0.77161  0.62812  0.55330  1.0000
  H   H3938     1.0  0.80300  0.61367  0.55543  1.0000
  H   H3939     1.0  0.86054  0.68888  0.55777  1.0000
  H   H3940     1.0  0.82912  0.70338  0.55502  1.0000
  C   C2234     1.0  0.70422  0.72930  0.59225  1.0000
  C   C2235     1.0  0.70984  0.74087  0.60596  1.0000
  C   C2236     1.0  0.71190  0.76468  0.60841  1.0000
  C   C2237     1.0  0.70801  0.77711  0.59717  1.0000
  C   C2238     1.0  0.70243  0.76555  0.58345  1.0000
  C   C2239     1.0  0.70068  0.74187  0.58097  1.0000
  H   H3941     1.0  0.71269  0.73138  0.61476  1.0000
  H   H3942     1.0  0.71616  0.77327  0.61902  1.0000
  H   H3943     1.0  0.69929  0.77491  0.57469  1.0000
  H   H3944     1.0  0.69629  0.73323  0.57037  1.0000
  H   H3945     1.0  0.66829  0.95906  0.63639  1.0000
  H   H3946     1.0  0.72417  0.89023  0.56272  1.0000
  N   N122      1.0  0.69051  0.86542  0.57267  1.0000
  H   H3947     1.0  0.68118  0.67184  0.61661  1.0000
  C   C2240     1.0  0.96719  0.98699  0.73130  1.0000
  H   H3948     1.0  0.76444  0.91962  0.58288  1.0000
  H   H3949     1.0  0.73428  0.86269  0.58071  1.0000
  C   C2241     1.0  0.71698  0.88564  0.57358  1.0000
  H   H3950     1.0  0.84150  0.67705  0.52669  1.0000
  H   H3951     1.0  0.77488  0.89767  0.58761  1.0000
  H   H3952     1.0  0.80395  0.68770  0.51586  1.0000
  H   H3953     1.0  0.90638  0.50527  0.57805  1.0000
  C   C2242     1.0  0.69035  0.81059  0.55001  1.0000
  H   H3954     1.0  0.70713  0.80941  0.69352  1.0000
  H   H3955     1.0  0.82058  0.57509  0.54922  1.0000
  H   H3956     1.0  0.79620  0.65788  0.52298  1.0000
  C   C2243     1.0  0.80203  0.97234  0.64407  1.0000
  H   H3957     1.0  0.67277  0.80597  0.71355  1.0000
  C   C2244     1.0  0.73561  0.88116  0.58280  1.0000
  H   H3958     1.0  0.83875  0.49872  0.59382  1.0000
  C   C2245     1.0  0.68015  0.97572  0.49989  1.0000
  H   H3959     1.0  0.65365  0.83521  0.61014  1.0000
  C   C2246     1.0  0.67188  0.77518  0.69324  1.0000
  H   H3960     1.0  0.81090  0.58298  0.56566  1.0000
  H   H3961     1.0  0.95223  0.53083  0.65085  1.0000
  C   C2247     1.0  0.85638  0.54990  0.54792  1.0000
  C   C2248     1.0  0.76205  0.90070  0.58045  1.0000
  C   C2249     1.0  0.83844  0.49620  0.58206  1.0000
  H   H3962     1.0  0.69014  0.64118  0.61851  1.0000
  H   H3963     1.0  0.87407  0.94160  0.73221  1.0000
  C   C2250     1.0  0.97228  0.50500  0.67993  1.0000
  H   H3964     1.0  0.85899  0.58533  0.55516  1.0000
  H   H3965     1.0  0.84034  0.91719  0.59920  1.0000
  N   N123      1.0  0.86828  0.67931  0.51153  1.0000
  H   H3966     1.0  0.90780  0.69978  0.51575  1.0000
  H   H3967     1.0  0.71785  0.62982  0.60557  1.0000
  H   H3968     1.0  0.86556  0.57505  0.53050  1.0000
  H   H3969     1.0  0.92035  0.54369  0.65333  1.0000
  H   H3970     1.0  0.76930  0.54705  0.56149  1.0000
  H   H3971     1.0  0.86798  0.61162  0.51533  1.0000
  H   H3972     1.0  0.84376  0.62859  0.50271  1.0000
  H   H3973     1.0  0.66616  0.83434  0.55865  1.0000
  H   H3974     1.0  0.67452  0.92553  0.59344  1.0000
  C   C2251     1.0  0.67789  0.75272  0.71361  1.0000
  H   H3975     1.0  0.94343  0.89084  0.68037  1.0000
  C   C2252     1.0  0.80024  0.66843  0.51312  1.0000
  C   C2253     1.0  0.65666  0.83171  0.58724  1.0000
  C   C2254     1.0  0.87164  0.59207  0.59088  1.0000
  C   C2255     1.0  0.89120  0.70245  0.51676  1.0000
  H   H3976     1.0  0.69593  0.77148  0.66862  1.0000
  H   H3977     1.0  0.90864  0.51551  0.64241  1.0000
  N   N124      1.0  0.97661  0.53227  0.62419  1.0000
  C   C2256     1.0  0.67916  0.79292  0.71750  1.0000
  H   H3978     1.0  0.89216  0.65820  0.49405  1.0000
  C   C2257     1.0  0.67083  0.83904  0.69224  1.0000
  H   H3979     1.0  0.86974  0.54817  0.52702  1.0000
  H   H3980     1.0  0.87449  0.62886  0.59412  1.0000
  C   C2258     1.0  0.78055  0.95839  0.65364  1.0000
  H   H3981     1.0  0.87860  0.57648  0.56420  1.0000
  C   C2259     1.0  0.92199  0.53558  0.64296  1.0000
  H   H3982     1.0  0.85330  0.61233  0.53166  1.0000
  S   S513      1.0  0.66201  0.58141  0.56880  1.0000
  H   H3983     1.0  0.97163  0.50013  0.61124  1.0000
  C   C2260     1.0  0.70183  0.79041  0.67328  1.0000
  H   H3984     1.0  0.84740  0.59701  0.57618  1.0000
  C   C2261     1.0  0.95853  0.51938  0.59797  1.0000
  H   H3985     1.0  0.68655  0.85307  0.69836  1.0000
  H   H3986     1.0  0.81292  0.97866  0.58653  1.0000
  H   H3987     1.0  0.81218  0.88996  0.60286  1.0000
  H   H3988     1.0  0.97028  0.50036  0.63628  1.0000
  H   H3989     1.0  0.69547  0.84482  0.58986  1.0000
  H   H3990     1.0  0.93821  0.50749  0.62725  1.0000
  H   H3991     1.0  0.85034  0.70210  0.51518  1.0000
  C   C2262     1.0  0.68419  0.71485  0.71027  1.0000
  H   H3992     1.0  0.88599  0.65711  0.51708  1.0000
  C   C2263     1.0  0.78206  0.55445  0.55265  1.0000
  H   H3993     1.0  0.69463  0.60345  0.61409  1.0000
  H   H3994     1.0  0.83764  0.90171  0.61569  1.0000
  H   H3995     1.0  0.82447  0.67747  0.49572  1.0000
  C   C2264     1.0  0.85340  0.98649  0.63631  1.0000
  H   H3996     1.0  0.96974  0.52070  0.68324  1.0000
  C   C2265     1.0  0.68351  0.63110  0.60803  1.0000
  H   H3997     1.0  0.86777  0.65967  0.53037  1.0000
  N   N125      1.0  0.77881  0.75569  0.58295  1.0000
  C   C2266     1.0  0.76168  0.74630  0.56991  1.0000
  C   C2267     1.0  0.77172  0.73497  0.59312  1.0000
  C   C2268     1.0  0.77487  0.77586  0.59026  1.0000
  C   C2269     1.0  0.80561  0.76623  0.57946  1.0000
  C   C2270     1.0  0.81168  0.75432  0.56634  1.0000
  C   C2271     1.0  0.76293  0.76654  0.55988  1.0000
  C   C2272     1.0  0.78769  0.78551  0.60518  1.0000
  C   C2273     1.0  0.77203  0.71106  0.58751  1.0000
  C   C2274     1.0  0.76183  0.69090  0.59838  1.0000
  C   C2275     1.0  0.83924  0.76277  0.56591  1.0000
  C   C2276     1.0  0.74961  0.75530  0.54553  1.0000
  C   C2277     1.0  0.78594  0.80862  0.61027  1.0000
  H   H3998     1.0  0.74229  0.73586  0.57308  1.0000
  H   H3999     1.0  0.76469  0.73255  0.56350  1.0000
  H   H4000     1.0  0.78429  0.74129  0.60275  1.0000
  H   H4001     1.0  0.75303  0.72963  0.59699  1.0000
  H   H4002     1.0  0.75487  0.76944  0.59145  1.0000
  H   H4003     1.0  0.78140  0.79235  0.58361  1.0000
  H   H4004     1.0  0.81364  0.78634  0.57741  1.0000
  H   H4005     1.0  0.81654  0.76542  0.58885  1.0000
  H   H4006     1.0  0.80604  0.75987  0.55636  1.0000
  H   H4007     1.0  0.80211  0.73385  0.56614  1.0000
  H   H4008     1.0  0.75378  0.77671  0.56471  1.0000
  H   H4009     1.0  0.78225  0.78011  0.55799  1.0000
  H   H4010     1.0  0.80742  0.79025  0.60505  1.0000
  H   H4011     1.0  0.77857  0.77125  0.61313  1.0000
  H   H4012     1.0  0.76071  0.70334  0.57753  1.0000
  H   H4013     1.0  0.79117  0.71481  0.58578  1.0000
  H   H4014     1.0  0.76262  0.67412  0.59418  1.0000
  H   H4015     1.0  0.77288  0.69730  0.60857  1.0000
  H   H4016     1.0  0.74235  0.68575  0.60037  1.0000
  H   H4017     1.0  0.84301  0.75452  0.55621  1.0000
  H   H4018     1.0  0.84977  0.78328  0.56562  1.0000
  H   H4019     1.0  0.84561  0.75649  0.57534  1.0000
  H   H4020     1.0  0.75802  0.74494  0.54007  1.0000
  H   H4021     1.0  0.72984  0.74257  0.54701  1.0000
  H   H4022     1.0  0.75092  0.77026  0.53863  1.0000
  H   H4023     1.0  0.76641  0.80461  0.61064  1.0000
  H   H4024     1.0  0.79455  0.81471  0.62115  1.0000
  H   H4025     1.0  0.79573  0.82409  0.60312  1.0000
  H   H4026     1.0  0.66286  0.78644  0.69000  1.0000
  C   C2278     1.0  0.84609  0.68227  0.51550  1.0000
  H   H4027     1.0  0.82965  0.62987  0.51917  1.0000
  H   H4028     1.0  0.80965  0.53277  0.55912  1.0000
  N   N126      1.0  0.84165  0.55958  0.57179  1.0000
  C   C2279     1.0  0.67119  0.68261  0.63620  1.0000
  C   C2280     1.0  0.82964  0.51275  0.57468  1.0000
  H   H4029     1.0  0.71822  0.90310  0.57836  1.0000
  C   C2281     1.0  0.67311  0.83479  0.67770  1.0000
  H   H4030     1.0  0.67357  0.88773  0.57965  1.0000
  H   H4031     1.0  0.86292  0.53702  0.55195  1.0000
  H   H4032     1.0  0.96886  0.87044  0.68618  1.0000
  S   S514      1.0  0.67073  0.67108  0.51927  1.0000
  C   C2282     1.0  0.87492  0.61405  0.60052  1.0000
  H   H4033     1.0  0.77788  0.56791  0.54710  1.0000
  H   H4034     1.0  0.83528  0.59268  0.51672  1.0000
  H   H4035     1.0  0.80580  0.96326  0.61083  1.0000
  C   C2283     1.0  0.84518  0.54031  0.57988  1.0000
  C   C2284     1.0  0.80876  0.56743  0.55839  1.0000
  H   H4036     1.0  0.73200  0.88256  0.59419  1.0000
  H   H4037     1.0  0.78561  0.94877  0.66190  1.0000
  H   H4038     1.0  0.80282  0.54248  0.57545  1.0000
  H   H4039     1.0  0.65391  0.81319  0.65875  1.0000
  H   H4040     1.0  0.69833  0.76318  0.71403  1.0000
  H   H4041     1.0  0.89417  0.71827  0.51005  1.0000
  H   H4042     1.0  0.68643  0.86700  0.59534  1.0000
  C   C2285     1.0  0.68031  0.65805  0.49214  1.0000
  H   H4043     1.0  0.79404  0.94002  0.63091  1.0000
  H   H4044     1.0  0.68811  0.64461  0.59958  1.0000
  H   H4045     1.0  0.66110  0.91440  0.56534  1.0000
  H   H4046     1.0  0.69976  0.91233  0.56013  1.0000
  C   C2286     1.0  0.85940  0.56906  0.55993  1.0000
  H   H4047     1.0  0.65944  0.65484  0.59494  1.0000
  H   H4048     1.0  0.86019  0.60809  0.60832  1.0000
  H   H4049     1.0  0.67298  0.74761  0.72477  1.0000
  C   C2287     1.0  0.96380  0.51073  0.58368  1.0000
  C   C2288     1.0  0.89180  0.71129  0.53248  1.0000
  H   H4050     1.0  0.95896  0.90066  0.66388  1.0000
  C   C2289     1.0  0.91579  0.73484  0.53632  1.0000
  H   H4051     1.0  0.96062  0.55970  0.64246  1.0000
  C   C2290     1.0  0.95098  0.52781  0.62737  1.0000
  H   H4052     1.0  0.78369  0.65955  0.50582  1.0000
  H   H4053     1.0  0.89036  0.69691  0.53981  1.0000
  H   H4054     1.0  0.87655  0.71563  0.53452  1.0000
  H   H4055     1.0  0.69943  0.80239  0.71644  1.0000
  H   H4056     1.0  0.68319  0.97130  0.51055  1.0000
  C   C2291     1.0  0.66563  0.97114  0.61512  1.0000
  H   H4057     1.0  0.91716  0.75039  0.52992  1.0000
  H   H4058     1.0  0.91634  0.74011  0.54776  1.0000
  H   H4059     1.0  0.93194  0.73183  0.53439  1.0000
  C   C2292     1.0  0.69923  0.78986  0.68939  1.0000
  C   C2293     1.0  0.83864  0.94649  0.62258  1.0000
  H   H4060     1.0  0.87259  0.57813  0.59779  1.0000
  C   C2294     1.0  0.81047  0.95451  0.63695  1.0000
  H   H4061     1.0  0.71960  0.84301  0.56021  1.0000
  H   H4062     1.0  0.83033  0.50995  0.56308  1.0000
  C   C2295     1.0  0.81777  0.92328  0.61473  1.0000
  C   C2296     1.0  0.84699  0.58124  0.58200  1.0000
  H   H4063     1.0  0.65657  0.67925  0.61496  1.0000
  H   H4064     1.0  0.68784  0.64751  0.49747  1.0000
  C   C2297     1.0  0.81525  0.54926  0.56638  1.0000
  C   C2298     1.0  0.82769  0.90713  0.60769  1.0000
  C   C2299     1.0  0.70683  0.95743  0.58683  1.0000
  H   H4065     1.0  0.84503  0.93985  0.63185  1.0000
  H   H4066     1.0  0.85453  0.95401  0.61559  1.0000
  H   H4067     1.0  0.77891  0.53905  0.54494  1.0000
  H   H4068     1.0  0.69693  0.82231  0.57197  1.0000
  H   H4069     1.0  0.81463  0.94480  0.64554  1.0000
  H   H4070     1.0  0.96976  0.57324  0.61608  1.0000
  H   H4071     1.0  0.89300  0.62192  0.60644  1.0000
  H   H4072     1.0  0.91718  0.54473  0.63431  1.0000
  C   C2300     1.0  0.65556  0.61337  0.60811  1.0000
  N   N127      1.0  0.66704  0.76888  0.70863  1.0000
  H   H4073     1.0  0.80429  0.91185  0.62252  1.0000
  H   H4074     1.0  0.80810  0.92829  0.60639  1.0000
  H   H4075     1.0  0.84038  0.54067  0.59120  1.0000
  H   H4076     1.0  0.67506  0.94310  0.62221  1.0000
  C   C2301     1.0  0.89159  0.67476  0.48994  1.0000
  C   C2302     1.0  0.95337  0.88643  0.67200  1.0000
  H   H4077     1.0  0.83711  0.53919  0.54381  1.0000
  H   H4078     1.0  0.83203  0.57600  0.58968  1.0000
  H   H4079     1.0  0.88737  0.59873  0.58384  1.0000
  C   C2303     1.0  0.86930  0.67721  0.49555  1.0000
  H   H4080     1.0  0.76426  0.94457  0.64721  1.0000
  H   H4081     1.0  0.86493  0.54480  0.58022  1.0000
  H   H4082     1.0  0.97159  0.89635  0.71077  1.0000
  Fe  Fe257     1.0  0.94421  0.97615  0.66915  1.0000
  S   S515      1.0  0.97977  0.70667  0.58541  1.0000
  H   H4083     1.0  0.94477  0.49325  0.66258  1.0000
  H   H4084     1.0  0.94059  0.86821  0.66674  1.0000
  N   N128      1.0  0.83212  0.96632  0.62749  1.0000
  S   S516      1.0  0.68925  0.96814  0.57659  1.0000
  H   H4085     1.0  0.72136  0.80237  0.67083  1.0000
  H   H4086     1.0  0.66913  0.91921  0.54704  1.0000
  C   C2304     1.0  0.69965  0.83126  0.56164  1.0000
  H   H4087     1.0  0.74239  0.98706  0.58240  1.0000
  C   C2305     1.0  0.67243  0.95741  0.48868  1.0000
  C   C2306     1.0  0.94821  0.53944  0.64164  1.0000
  H   H4088     1.0  0.65338  0.81638  0.57946  1.0000
  H   H4089     1.0  0.68445  0.70249  0.63510  1.0000
  H   H4090     1.0  0.69293  0.81840  0.53929  1.0000
  H   H4091     1.0  0.85262  0.66116  0.49082  1.0000
  C   C2307     1.0  0.66289  0.95110  0.62533  1.0000
  C   C2308     1.0  0.84670  0.63172  0.51438  1.0000
  H   H4092     1.0  0.94341  0.53491  0.61895  1.0000
  H   H4093     1.0  0.71039  0.78157  0.69380  1.0000
  H   H4094     1.0  0.66074  0.96227  0.60426  1.0000
  C   C2309     1.0  0.68618  0.84711  0.56045  1.0000
  H   H4095     1.0  0.68008  0.67430  0.64303  1.0000
  H   H4096     1.0  0.69060  0.79816  0.66822  1.0000
  H   H4097     1.0  0.81009  0.50612  0.57726  1.0000
  C   C2310     1.0  0.66411  0.66938  0.62151  1.0000
  H   H4098     1.0  0.95024  0.50992  0.57541  1.0000
  H   H4099     1.0  0.84505  0.97076  0.59805  1.0000
  H   H4100     1.0  0.93943  0.50605  0.60046  1.0000
  C   C2311     1.0  0.97658  0.52001  0.60997  1.0000
  H   H4101     1.0  0.68277  0.88697  0.54745  1.0000
  H   H4102     1.0  0.66324  0.75834  0.68608  1.0000
  C   C2312     1.0  0.67426  0.87740  0.56987  1.0000
  C   C2313     1.0  0.66293  0.90530  0.55539  1.0000
  H   H4103     1.0  0.67287  0.73071  0.69358  1.0000
  H   H4104     1.0  0.70415  0.72637  0.70864  1.0000
  H   H4105     1.0  0.90916  0.69142  0.49306  1.0000
  C   C2314     1.0  0.66977  0.72794  0.70508  1.0000
  C   C2315     1.0  0.68168  0.89583  0.55765  1.0000
  H   H4106     1.0  0.79559  0.98103  0.63595  1.0000
  H   H4107     1.0  0.65497  0.86308  0.56727  1.0000
  H   H4108     1.0  0.66948  0.93898  0.49089  1.0000
  C   C2316     1.0  0.97855  0.87826  0.72809  1.0000
  C   C2317     1.0  0.65153  0.82084  0.60194  1.0000
  C   C2318     1.0  0.97579  0.88533  0.67849  1.0000
  H   H4109     1.0  0.67057  0.79755  0.55120  1.0000
  H   H4110     1.0  0.70082  0.79999  0.55089  1.0000
  H   H4111     1.0  0.96784  0.85935  0.72307  1.0000
  H   H4112     1.0  0.95920  0.53758  0.59663  1.0000
  C   C2319     1.0  0.98102  0.97431  0.73025  1.0000
  H   H4113     1.0  0.66425  0.81326  0.60473  1.0000
  Fe  Fe258     1.0  0.98140  0.97807  0.69199  1.0000
  H   H4114     1.0  0.65340  0.60165  0.61730  1.0000
  H   H4115     1.0  0.77546  0.97163  0.65902  1.0000
  C   C2320     1.0  0.65254  0.81668  0.66993  1.0000
  H   H4116     1.0  0.86942  0.69373  0.49075  1.0000
  H   H4117     1.0  0.85226  0.98156  0.64769  1.0000
  C   C2321     1.0  0.67519  0.79081  0.73375  1.0000
  H   H4118     1.0  0.67771  0.69689  0.70419  1.0000
  H   H4119     1.0  0.85718  0.50063  0.57879  1.0000
  H   H4120     1.0  0.88313  0.97628  0.63517  1.0000
  H   H4121     1.0  0.81714  0.98720  0.65073  1.0000
  H   H4122     1.0  0.68530  0.98522  0.61550  1.0000
  S   S517      1.0  0.97246  0.99014  0.65224  1.0000
  H   H4123     1.0  0.89044  0.92392  0.73515  1.0000
  H   H4124     1.0  0.65368  0.98956  0.63053  1.0000
  H   H4125     1.0  0.96220  0.49192  0.58436  1.0000
  H   H4126     1.0  0.96636  0.88191  0.73519  1.0000
  H   H4127     1.0  0.65118  0.63373  0.63121  1.0000
  H   H4128     1.0  0.65562  0.77942  0.73611  1.0000
  Fe  Fe259     1.0  0.70893  0.67661  0.91132  1.0000
  S   S518      1.0  0.74137  0.68794  0.92660  1.0000
  S   S519      1.0  0.69887  0.69906  0.89589  1.0000
  Fe  Fe260     1.0  0.68616  0.62149  0.91885  1.0000
  S   S520      1.0  0.71735  0.62905  0.93474  1.0000
  H   H4129     1.0  0.80006  0.57077  0.88429  1.0000
  Fe  Fe261     1.0  0.71395  0.66290  0.94198  1.0000
  S   S521      1.0  0.71766  0.67366  0.96582  1.0000
  Fe  Fe262     1.0  0.74275  0.65355  0.91843  1.0000
  S   S522      1.0  0.77895  0.65702  0.91006  1.0000
  S   S523      1.0  0.68150  0.65388  0.92726  1.0000
  S   S524      1.0  0.71167  0.64369  0.90207  1.0000
  Fe  Fe263     1.0  0.90548  0.64885  0.92437  1.0000
  S   S525      1.0  0.92652  0.63082  0.93448  1.0000
  S   S526      1.0  0.86646  0.63623  0.93197  1.0000
  Fe  Fe264     1.0  0.95052  0.68491  0.90827  1.0000
  C   C2322     1.0  0.97349  0.50435  0.79498  1.0000
  Fe  Fe265     1.0  0.94085  0.63142  0.91253  1.0000
  S   S527      1.0  0.94895  0.60113  0.90280  1.0000
  Fe  Fe266     1.0  0.95781  0.66950  0.93827  1.0000
  H   H4130     1.0  0.67280  0.85152  0.84910  1.0000
  S   S528      1.0  0.91819  0.64739  0.90224  1.0000
  S   S529      1.0  0.93580  0.68717  0.92959  1.0000
  H   H4131     1.0  0.68245  0.73115  0.91914  1.0000
  H   H4132     1.0  0.73407  0.95271  0.93124  1.0000
  H   H4133     1.0  0.80498  0.96261  0.87872  1.0000
  S   S530      1.0  0.94940  0.94680  0.80652  1.0000
  H   H4134     1.0  0.88137  0.57424  0.93664  1.0000
  H   H4135     1.0  0.93067  0.88563  0.83768  1.0000
  Fe  Fe267     1.0  0.94676  0.96946  0.82487  1.0000
  S   S531      1.0  0.91291  0.96125  0.83757  1.0000
  Fe  Fe268     1.0  0.74429  0.88463  0.86061  1.0000
  S   S532      1.0  0.74347  0.87523  0.83719  1.0000
  S   S533      1.0  0.74473  0.92192  0.86510  1.0000
  Fe  Fe269     1.0  0.74539  0.83643  0.86882  1.0000
  S   S534      1.0  0.74400  0.82399  0.84597  1.0000
  S   S535      1.0  0.75056  0.81625  0.88780  1.0000
  Fe  Fe270     1.0  0.77217  0.86372  0.84278  1.0000
  S   S536      1.0  0.80454  0.87114  0.82879  1.0000
  Fe  Fe271     1.0  0.71543  0.83675  0.84221  1.0000
  S   S537      1.0  0.67714  0.81366  0.83142  1.0000
  S   S538      1.0  0.77516  0.87568  0.86583  1.0000
  S   S539      1.0  0.71496  0.84664  0.86548  1.0000
  H   H4136     1.0  0.74096  0.74093  0.91081  1.0000
  C   C2323     1.0  0.97991  0.97031  0.75607  1.0000
  H   H4137     1.0  0.66978  0.73680  0.96966  1.0000
  C   C2324     1.0  0.83413  0.89730  0.83064  1.0000
  C   C2325     1.0  0.85319  0.89774  0.82251  1.0000
  C   C2326     1.0  0.87730  0.91751  0.82422  1.0000
  C   C2327     1.0  0.88259  0.93701  0.83412  1.0000
  C   C2328     1.0  0.86343  0.93683  0.84202  1.0000
  C   C2329     1.0  0.83931  0.91708  0.84030  1.0000
  H   H4138     1.0  0.84939  0.88241  0.81510  1.0000
  H   H4139     1.0  0.89193  0.91732  0.81820  1.0000
  H   H4140     1.0  0.86734  0.95189  0.84967  1.0000
  H   H4141     1.0  0.82481  0.91703  0.84658  1.0000
  C   C2330     1.0  0.75772  0.73827  0.95220  1.0000
  S   S540      1.0  0.95623  0.98887  0.77363  1.0000
  H   H4142     1.0  0.98160  0.77125  0.94341  1.0000
  N   N129      1.0  0.65919  0.87739  0.84428  1.0000
  H   H4143     1.0  0.70352  0.60758  0.87004  1.0000
  C   C2331     1.0  0.95651  0.58536  0.80731  1.0000
  C   C2332     1.0  0.70793  0.94899  0.89848  1.0000
  C   C2333     1.0  0.70581  0.92508  0.89907  1.0000
  C   C2334     1.0  0.71675  0.91633  0.88891  1.0000
  C   C2335     1.0  0.72988  0.93143  0.87800  1.0000
  C   C2336     1.0  0.73159  0.95514  0.87727  1.0000
  C   C2337     1.0  0.72059  0.96383  0.88739  1.0000
  H   H4144     1.0  0.69587  0.91335  0.90754  1.0000
  H   H4145     1.0  0.71521  0.89802  0.88960  1.0000
  H   H4146     1.0  0.74146  0.96685  0.86878  1.0000
  C   C2338     1.0  0.68393  0.81631  0.74112  1.0000
  H   H4147     1.0  0.66205  0.55498  0.96383  1.0000
  C   C2339     1.0  0.87758  0.51779  0.84034  1.0000
  H   H4148     1.0  0.75911  0.72326  0.95786  1.0000
  H   H4149     1.0  0.92232  0.90951  0.83342  1.0000
  H   H4150     1.0  0.81064  0.60897  0.90051  1.0000
  C   C2340     1.0  0.93100  0.57028  0.89547  1.0000
  C   C2341     1.0  0.94284  0.55604  0.89208  1.0000
  C   C2342     1.0  0.92960  0.53173  0.88595  1.0000
  C   C2343     1.0  0.90425  0.52126  0.88311  1.0000
  C   C2344     1.0  0.89235  0.53545  0.88657  1.0000
  C   C2345     1.0  0.90564  0.55984  0.89261  1.0000
  H   H4151     1.0  0.96243  0.56383  0.89430  1.0000
  H   H4152     1.0  0.93897  0.52095  0.88360  1.0000
  H   H4153     1.0  0.87272  0.52749  0.88455  1.0000
  H   H4154     1.0  0.89639  0.57064  0.89505  1.0000
  C   C2346     1.0  0.69955  0.67987  0.97822  1.0000
  C   C2347     1.0  0.66635  0.81341  0.81365  1.0000
  H   H4155     1.0  0.79887  0.80359  0.84638  1.0000
  H   H4156     1.0  0.88258  0.64147  0.87837  1.0000
  H   H4157     1.0  0.95714  0.62105  0.87357  1.0000
  H   H4158     1.0  0.72344  0.80923  0.94855  1.0000
  C   C2348     1.0  0.80363  0.65248  0.91704  1.0000
  C   C2349     1.0  0.80166  0.63916  0.92921  1.0000
  C   C2350     1.0  0.82120  0.63467  0.93371  1.0000
  C   C2351     1.0  0.84305  0.64368  0.92625  1.0000
  C   C2352     1.0  0.84529  0.65754  0.91431  1.0000
  C   C2353     1.0  0.82561  0.66167  0.90967  1.0000
  H   H4159     1.0  0.78489  0.63189  0.93497  1.0000
  H   H4160     1.0  0.81925  0.62395  0.94298  1.0000
  H   H4161     1.0  0.86206  0.66485  0.90855  1.0000
  H   H4162     1.0  0.82738  0.67204  0.90026  1.0000
  C   C2354     1.0  0.71418  0.73166  0.89358  1.0000
  C   C2355     1.0  0.70576  0.74134  0.88262  1.0000
  C   C2356     1.0  0.71691  0.76706  0.88057  1.0000
  C   C2357     1.0  0.73648  0.78355  0.88961  1.0000
  C   C2358     1.0  0.74485  0.77391  0.90064  1.0000
  C   C2359     1.0  0.73397  0.74812  0.90252  1.0000
  H   H4163     1.0  0.69060  0.72890  0.87557  1.0000
  H   H4164     1.0  0.71023  0.77414  0.87205  1.0000
  H   H4165     1.0  0.76004  0.78647  0.90766  1.0000
  C   C2360     1.0  0.96617  0.98306  0.75712  1.0000
  H   H4166     1.0  0.65340  0.64197  0.85919  1.0000
  C   C2361     1.0  0.87290  0.93242  0.76118  1.0000
  C   C2362     1.0  0.68989  0.74662  0.97228  1.0000
  C   C2363     1.0  0.65720  0.69531  0.92555  1.0000
  H   H4167     1.0  0.68364  0.87719  0.86127  1.0000
  C   C2364     1.0  0.94710  0.58222  0.85402  1.0000
  H   H4168     1.0  0.69302  0.77686  0.96031  1.0000
  H   H4169     1.0  0.92181  0.52715  0.85472  1.0000
  H   H4170     1.0  0.89806  0.49781  0.80772  1.0000
  H   H4171     1.0  0.81169  0.79209  0.83289  1.0000
  H   H4172     1.0  0.69896  0.98460  0.96911  1.0000
  H   H4173     1.0  0.91605  0.88237  0.77194  1.0000
  N   N130      1.0  0.65179  0.59417  0.96786  1.0000
  H   H4174     1.0  0.76781  0.59773  0.90533  1.0000
  H   H4175     1.0  0.73136  0.74022  0.96555  1.0000
  C   C2365     1.0  0.65217  0.92425  0.87061  1.0000
  C   C2366     1.0  0.71460  0.90305  0.81903  1.0000
  C   C2367     1.0  0.83067  0.53047  0.86710  1.0000
  C   C2368     1.0  0.90617  0.65138  0.97335  1.0000
  N   N131      1.0  0.90626  0.69312  0.96933  1.0000
  H   H4176     1.0  0.72199  0.77931  0.96541  1.0000
  H   H4177     1.0  0.69682  0.71435  0.92695  1.0000
  H   H4178     1.0  0.84886  0.55314  0.93629  1.0000
  H   H4179     1.0  0.87905  0.51046  0.82969  1.0000
  H   H4180     1.0  0.75876  0.56524  0.90248  1.0000
  H   H4181     1.0  0.96866  0.76035  0.92550  1.0000
  C   C2369     1.0  0.89694  0.66643  0.96436  1.0000
  H   H4182     1.0  0.67000  0.67419  0.96345  1.0000
  H   H4183     1.0  0.70363  0.82865  0.73924  1.0000
  C   C2370     1.0  0.68117  0.82991  0.80373  1.0000
  H   H4184     1.0  0.72175  0.98196  0.88660  1.0000
  H   H4185     1.0  0.75294  0.97969  0.94252  1.0000
  C   C2371     1.0  0.89125  0.94237  0.73672  1.0000
  C   C2372     1.0  0.87193  0.69659  0.95432  1.0000
  C   C2373     1.0  0.86813  0.70863  0.94114  1.0000
  C   C2374     1.0  0.65869  0.58592  0.95421  1.0000
  H   H4186     1.0  0.68096  0.56973  0.93373  1.0000
  C   C2375     1.0  0.97047  0.66256  0.98122  1.0000
  H   H4187     1.0  0.90259  0.66549  0.95332  1.0000
  H   H4188     1.0  0.87658  0.65618  0.96364  1.0000
  C   C2376     1.0  0.89490  0.95031  0.75250  1.0000
  C   C2377     1.0  0.89664  0.69585  0.98354  1.0000
  C   C2378     1.0  0.73230  0.73633  0.95410  1.0000
  H   H4189     1.0  0.68569  0.60422  0.85389  1.0000
  C   C2379     1.0  0.89041  0.62351  0.97038  1.0000
  H   H4190     1.0  0.85675  0.67204  0.97824  1.0000
  C   C2380     1.0  0.89184  0.96678  0.79833  1.0000
  H   H4191     1.0  0.68185  0.71753  0.95050  1.0000
  H   H4192     1.0  0.94737  0.91627  0.84594  1.0000
  H   H4193     1.0  0.85731  0.93631  0.75863  1.0000
  N   N132      1.0  0.94885  0.56139  0.84595  1.0000
  H   H4194     1.0  0.67811  0.90922  0.83127  1.0000
  H   H4195     1.0  0.86208  0.67633  0.95204  1.0000
  H   H4196     1.0  0.86324  0.70140  0.96323  1.0000
  H   H4197     1.0  0.84812  0.70130  0.93870  1.0000
  H   H4198     1.0  0.87664  0.72906  0.94292  1.0000
  H   H4199     1.0  0.87626  0.70421  0.93177  1.0000
  H   H4200     1.0  0.67133  0.60784  0.88456  1.0000
  H   H4201     1.0  0.90212  0.55565  0.83658  1.0000
  H   H4202     1.0  0.69013  0.62070  0.97229  1.0000
  H   H4203     1.0  0.85821  0.64805  0.88392  1.0000
  C   C2381     1.0  0.72892  0.75519  0.94497  1.0000
  S   S541      1.0  0.69430  0.95935  0.91171  1.0000
  C   C2382     1.0  0.97145  0.60665  0.85677  1.0000
  H   H4204     1.0  0.83046  0.98066  0.89109  1.0000
  H   H4205     1.0  0.95753  0.73997  0.94002  1.0000
  C   C2383     1.0  0.83587  0.57389  0.91342  1.0000
  C   C2384     1.0  0.86130  0.57605  0.91785  1.0000
  C   C2385     1.0  0.86287  0.57207  0.93371  1.0000
  H   H4206     1.0  0.82142  0.55589  0.91713  1.0000
  H   H4207     1.0  0.83424  0.58849  0.91988  1.0000
  H   H4208     1.0  0.79967  0.58869  0.91515  1.0000
  H   H4209     1.0  0.87637  0.59473  0.91580  1.0000
  H   H4210     1.0  0.86470  0.56200  0.91203  1.0000
  N   N133      1.0  0.70508  0.75625  0.94621  1.0000
  H   H4211     1.0  0.86001  0.58595  0.94015  1.0000
  H   H4212     1.0  0.90436  0.95996  0.80266  1.0000
  C   C2386     1.0  0.81476  0.87851  0.78644  1.0000
  H   H4213     1.0  0.85656  0.92070  0.79587  1.0000
  C   C2387     1.0  0.86295  0.63662  0.87651  1.0000
  H   H4214     1.0  0.80619  0.85808  0.78463  1.0000
  H   H4215     1.0  0.81543  0.88268  0.79804  1.0000
  H   H4216     1.0  0.80297  0.88522  0.78096  1.0000
  H   H4217     1.0  0.86676  0.91333  0.75678  1.0000
  H   H4218     1.0  0.68639  0.77336  0.93486  1.0000
  C   C2388     1.0  0.67076  0.61156  0.87315  1.0000
  H   H4219     1.0  0.65283  0.68897  0.87639  1.0000
  S   S542      1.0  0.96367  0.72079  0.89637  1.0000
  H   H4220     1.0  0.91045  0.89072  0.78948  1.0000
  C   C2389     1.0  0.90076  0.54197  0.84439  1.0000
  C   C2390     1.0  0.67673  0.67828  0.97442  1.0000
  H   H4221     1.0  0.91566  0.94237  0.78128  1.0000
  H   H4222     1.0  0.69602  0.86969  0.83059  1.0000
  H   H4223     1.0  0.72179  0.89400  0.81145  1.0000
  S   S543      1.0  0.98302  0.97664  0.83528  1.0000
  C   C2391     1.0  0.81570  0.98110  0.88429  1.0000
  H   H4224     1.0  0.96217  0.55340  0.86554  1.0000
  C   C2392     1.0  0.88688  0.96089  0.78205  1.0000
  H   H4225     1.0  0.83860  0.88604  0.76911  1.0000
  C   C2393     1.0  0.68159  0.89517  0.83671  1.0000
  H   H4226     1.0  0.90675  0.72617  0.96115  1.0000
  H   H4227     1.0  0.89704  0.71423  0.98462  1.0000
  C   C2394     1.0  0.66239  0.68164  0.98491  1.0000
  H   H4228     1.0  0.67516  0.57950  0.86626  1.0000
  H   H4229     1.0  0.93485  0.91335  0.77931  1.0000
  C   C2395     1.0  0.85379  0.91895  0.78412  1.0000
  H   H4230     1.0  0.92527  0.56041  0.81838  1.0000
  H   H4231     1.0  0.69614  0.73243  0.97292  1.0000
  H   H4232     1.0  0.95520  0.63163  0.85605  1.0000
  C   C2396     1.0  0.65671  0.83480  0.87529  1.0000
  H   H4233     1.0  0.87981  0.88882  0.77058  1.0000
  C   C2397     1.0  0.68453  0.59992  0.86531  1.0000
  H   H4234     1.0  0.90458  0.97302  0.77716  1.0000
  N   N134      1.0  0.87777  0.93414  0.77708  1.0000
  H   H4235     1.0  0.68098  0.63186  0.87193  1.0000
  H   H4236     1.0  0.68052  0.59193  0.98049  1.0000
  H   H4237     1.0  0.94158  0.70168  0.96067  1.0000
  H   H4238     1.0  0.97813  0.52356  0.86957  1.0000
  C   C2398     1.0  0.89966  0.70627  0.95800  1.0000
  H   H4239     1.0  0.88989  0.61876  0.95885  1.0000
  H   H4240     1.0  0.65816  0.68598  0.85778  1.0000
  H   H4241     1.0  0.92516  0.65627  0.97044  1.0000
  C   C2399     1.0  0.89685  0.92633  0.78134  1.0000
  H   H4242     1.0  0.76985  0.58606  0.88793  1.0000
  H   H4243     1.0  0.89688  0.96934  0.75339  1.0000
  H   H4244     1.0  0.65721  0.65093  0.87751  1.0000
  C   C2400     1.0  0.66697  0.86394  0.85481  1.0000
  H   H4245     1.0  0.84957  0.61592  0.90142  1.0000
  S   S544      1.0  0.97395  0.66908  0.91710  1.0000
  C   C2401     1.0  0.97416  0.75513  0.93566  1.0000
  H   H4246     1.0  0.90873  0.70581  0.94798  1.0000
  C   C2402     1.0  0.70480  0.77405  0.93544  1.0000
  C   C2403     1.0  0.77207  0.58421  0.89951  1.0000
  H   H4247     1.0  0.78398  0.98629  0.88591  1.0000
  H   H4248     1.0  0.68324  0.84219  0.78228  1.0000
  C   C2404     1.0  0.91591  0.89754  0.77865  1.0000
  H   H4249     1.0  0.72914  0.91362  0.82741  1.0000
  C   C2405     1.0  0.68158  0.71911  0.92790  1.0000
  H   H4250     1.0  0.76567  0.96049  0.93531  1.0000
  H   H4251     1.0  0.86043  0.64121  0.86547  1.0000
  C   C2406     1.0  0.69153  0.88329  0.82559  1.0000
  H   H4252     1.0  0.79246  0.55219  0.89922  1.0000
  H   H4253     1.0  0.93934  0.57588  0.86461  1.0000
  H   H4254     1.0  0.80138  0.53377  0.87715  1.0000
  H   H4255     1.0  0.87371  0.96752  0.77843  1.0000
  C   C2407     1.0  0.67162  0.82929  0.78985  1.0000
  H   H4256     1.0  0.67790  0.87349  0.81671  1.0000
  H   H4257     1.0  0.69711  0.90613  0.84454  1.0000
  H   H4258     1.0  0.70306  0.81713  0.92750  1.0000
  C   C2408     1.0  0.84633  0.60903  0.87848  1.0000
  H   H4259     1.0  0.95140  0.51607  0.84785  1.0000
  H   H4260     1.0  0.70790  0.76868  0.92458  1.0000
  H   H4261     1.0  0.95716  0.64755  0.97435  1.0000
  H   H4262     1.0  0.89452  0.92057  0.79255  1.0000
  H   H4263     1.0  0.66789  0.56758  0.89325  1.0000
  H   H4264     1.0  0.82724  0.60537  0.87600  1.0000
  H   H4265     1.0  0.89811  0.54869  0.85498  1.0000
  C   C2409     1.0  0.68299  0.73137  0.94278  1.0000
  H   H4266     1.0  0.81967  0.52269  0.85698  1.0000
  H   H4267     1.0  0.68583  0.78231  0.73867  1.0000
  H   H4268     1.0  0.85097  0.88214  0.78593  1.0000
  H   H4269     1.0  0.84065  0.92623  0.78161  1.0000
  C   C2410     1.0  0.72128  0.81770  0.92677  1.0000
  H   H4270     1.0  0.71825  0.71709  0.95102  1.0000
  C   C2411     1.0  0.72453  0.80162  0.93791  1.0000
  H   H4271     1.0  0.69998  0.84313  0.80673  1.0000
  H   H4272     1.0  0.89836  0.61338  0.97638  1.0000
  C   C2412     1.0  0.80514  0.57107  0.89568  1.0000
  H   H4273     1.0  0.85557  0.56393  0.88769  1.0000
  N   N135      1.0  0.86555  0.86540  0.86014  1.0000
  C   C2413     1.0  0.84124  0.84864  0.85248  1.0000
  C   C2414     1.0  0.86521  0.88831  0.86645  1.0000
  C   C2415     1.0  0.88519  0.87356  0.84923  1.0000
  C   C2416     1.0  0.87210  0.85217  0.87140  1.0000
  C   C2417     1.0  0.85334  0.84056  0.88311  1.0000
  C   C2418     1.0  0.83880  0.82452  0.84515  1.0000
  C   C2419     1.0  0.91122  0.89423  0.85428  1.0000
  C   C2420     1.0  0.84041  0.88539  0.87189  1.0000
  C   C2421     1.0  0.84392  0.90889  0.88003  1.0000
  C   C2422     1.0  0.86022  0.82451  0.89245  1.0000
  C   C2423     1.0  0.81306  0.80914  0.83824  1.0000
  C   C2424     1.0  0.92886  0.90174  0.84205  1.0000
  H   H4274     1.0  0.83742  0.85906  0.84417  1.0000
  H   H4275     1.0  0.82566  0.84286  0.85965  1.0000
  H   H4276     1.0  0.87945  0.89696  0.87525  1.0000
  H   H4277     1.0  0.87033  0.90267  0.85835  1.0000
  H   H4278     1.0  0.87932  0.88029  0.83978  1.0000
  H   H4279     1.0  0.88777  0.85766  0.84524  1.0000
  H   H4280     1.0  0.87561  0.83746  0.86641  1.0000
  H   H4281     1.0  0.88976  0.86513  0.87707  1.0000
  H   H4282     1.0  0.83448  0.82858  0.87861  1.0000
  H   H4283     1.0  0.85339  0.85542  0.89017  1.0000
  H   H4284     1.0  0.85208  0.82871  0.83660  1.0000
  H   H4285     1.0  0.84182  0.81286  0.85295  1.0000
  H   H4286     1.0  0.91919  0.88773  0.86283  1.0000
  H   H4287     1.0  0.91078  0.91125  0.85830  1.0000
  H   H4288     1.0  0.82740  0.88204  0.86271  1.0000
  H   H4289     1.0  0.83152  0.86971  0.87894  1.0000
  H   H4290     1.0  0.82582  0.90655  0.88338  1.0000
  H   H4291     1.0  0.85606  0.91258  0.88968  1.0000
  H   H4292     1.0  0.85208  0.92507  0.87317  1.0000
  H   H4293     1.0  0.85977  0.80874  0.88604  1.0000
  H   H4294     1.0  0.87886  0.83566  0.89755  1.0000
  H   H4295     1.0  0.84678  0.81685  0.90095  1.0000
  H   H4296     1.0  0.80920  0.81993  0.83016  1.0000
  C   C2425     1.0  0.79841  0.58971  0.90344  1.0000
  H   H4297     1.0  0.87455  0.50371  0.84830  1.0000
  N   N136      1.0  0.83149  0.57603  0.89777  1.0000
  H   H4298     1.0  0.86868  0.60438  0.89457  1.0000
  C   C2426     1.0  0.92407  0.53823  0.84515  1.0000
  H   H4299     1.0  0.83064  0.54006  0.89609  1.0000
  C   C2427     1.0  0.83565  0.55666  0.88962  1.0000
  H   H4300     1.0  0.87452  0.95835  0.80412  1.0000
  H   H4301     1.0  0.76098  0.73651  0.94078  1.0000
  H   H4302     1.0  0.95884  0.55240  0.82559  1.0000
  C   C2428     1.0  0.84959  0.60180  0.89371  1.0000
  H   H4303     1.0  0.73581  0.83723  0.92853  1.0000
  C   C2429     1.0  0.95837  0.56839  0.83127  1.0000
  H   H4304     1.0  0.77231  0.75636  0.95670  1.0000
  H   H4305     1.0  0.82218  0.56070  0.86824  1.0000
  H   H4306     1.0  0.92296  0.52571  0.83599  1.0000
  H   H4307     1.0  0.73157  0.75132  0.93371  1.0000
  H   H4308     1.0  0.97030  0.52027  0.79596  1.0000
  H   H4309     1.0  0.74331  0.80371  0.93690  1.0000
  C   C2430     1.0  0.67088  0.55599  0.94177  1.0000
  C   C2431     1.0  0.70333  0.76600  0.96092  1.0000
  H   H4310     1.0  0.93403  0.58727  0.84861  1.0000
  H   H4311     1.0  0.74475  0.77354  0.94801  1.0000
  C   C2432     1.0  0.84061  0.89066  0.78067  1.0000
  H   H4312     1.0  0.93998  0.69635  0.97913  1.0000
  C   C2433     1.0  0.89792  0.90545  0.77204  1.0000
  H   H4313     1.0  0.91240  0.95127  0.75647  1.0000
  H   H4314     1.0  0.90442  0.91196  0.76133  1.0000
  H   H4315     1.0  0.71026  0.91610  0.81315  1.0000
  C   C2434     1.0  0.82111  0.54602  0.87522  1.0000
  H   H4316     1.0  0.97471  0.60194  0.80938  1.0000
  H   H4317     1.0  0.85166  0.59874  0.87063  1.0000
  C   C2435     1.0  0.94348  0.57644  0.82122  1.0000
  H   H4318     1.0  0.65697  0.68600  0.91520  1.0000
  C   C2436     1.0  0.75297  0.96831  0.93311  1.0000
  H   H4319     1.0  0.68238  0.92509  0.85940  1.0000
  C   C2437     1.0  0.94771  0.73336  0.97431  1.0000
  H   H4320     1.0  0.90642  0.65557  0.98492  1.0000
  H   H4321     1.0  0.94523  0.59052  0.80014  1.0000
  C   C2438     1.0  0.66505  0.91082  0.86367  1.0000
  C   C2439     1.0  0.96697  0.55591  0.85419  1.0000
  H   H4322     1.0  0.67147  0.60233  0.94840  1.0000
  H   H4323     1.0  0.82909  0.51481  0.87349  1.0000
  H   H4324     1.0  0.93972  0.73827  0.98353  1.0000
  H   H4325     1.0  0.72292  0.81124  0.91588  1.0000
  C   C2440     1.0  0.69333  0.98801  0.97938  1.0000
  H   H4326     1.0  0.66131  0.82178  0.86920  1.0000
  C   C2441     1.0  0.96664  0.62701  0.86342  1.0000
  H   H4327     1.0  0.67999  0.54423  0.94332  1.0000
  H   H4328     1.0  0.87134  0.61738  0.97375  1.0000
  H   H4329     1.0  0.66586  0.73310  0.94386  1.0000
  Fe  Fe272     1.0  0.96856  0.98272  0.79552  1.0000
  H   H4330     1.0  0.75913  0.97153  0.91080  1.0000
  H   H4331     1.0  0.66986  0.90149  0.87218  1.0000
  C   C2442     1.0  0.79855  0.98691  0.89328  1.0000
  H   H4332     1.0  0.94101  0.59183  0.82605  1.0000
  H   H4333     1.0  0.95910  0.57046  0.80182  1.0000
  H   H4334     1.0  0.67324  0.84864  0.88155  1.0000
  C   C2443     1.0  0.76045  0.98384  0.91996  1.0000
  C   C2444     1.0  0.97497  0.74233  0.97794  1.0000
  H   H4335     1.0  0.66079  0.63023  0.96020  1.0000
  H   H4336     1.0  0.85022  0.54203  0.86453  1.0000
  C   C2445     1.0  0.67119  0.56917  0.95587  1.0000
  H   H4337     1.0  0.69077  0.58068  0.95948  1.0000
  C   C2446     1.0  0.67447  0.60585  0.97773  1.0000
  H   H4338     1.0  0.68169  0.81432  0.75277  1.0000
  C   C2447     1.0  0.96945  0.53300  0.84877  1.0000
  H   H4339     1.0  0.97782  0.58324  0.83193  1.0000
  H   H4340     1.0  0.67273  0.82499  0.73720  1.0000
  H   H4341     1.0  0.65473  0.68240  0.93414  1.0000
  H   H4342     1.0  0.98381  0.73794  0.96895  1.0000
  H   H4343     1.0  0.79034  0.97190  0.90086  1.0000
  H   H4344     1.0  0.97781  0.53621  0.83823  1.0000
  C   C2448     1.0  0.93405  0.70503  0.97067  1.0000
  H   H4345     1.0  0.86135  0.52113  0.84005  1.0000
  H   H4346     1.0  0.94670  0.74376  0.96507  1.0000
  H   H4347     1.0  0.97465  0.60596  0.98087  1.0000
  H   H4348     1.0  0.66450  0.93757  0.87913  1.0000
  H   H4349     1.0  0.98098  0.61356  0.84676  1.0000
  H   H4350     1.0  0.74668  0.99041  0.91803  1.0000
  H   H4351     1.0  0.65170  0.54396  0.93765  1.0000
  H   H4352     1.0  0.98395  0.60389  0.86435  1.0000
