data_image0
_chemical_formula_structural       FeS2FeS2FeSFeHS2FeS2FeHSFeHFeCS2H2FeS2FeSHCH7C3NCH4C6H4C6H8C2SH3CH5CH3CH2C2H2CH3CH2SCH5C3H2C3HCH2C3H2C2H6CH2CHCH8CHCH6CHCHC3H2C2H3CH2CH3C2H2CH3CH3NH2CH2CH2CHCH6NC2H2CH3CH2C2HCH3CH2NH2CHCH2CH2CH5CHCH2C2HCH4C2H5FeSFeSFeS2FeSHFeS3C3H2C2H2CH6C4H6C2H3C2H2S2FeS2FeSHFeSC3H2C2SHC2H4C6H4NCH3C2HCH3C4H4C2H2CH2CHC3HCHCH3CH5C2H4CH8C2H4CH11CH3CH2CHC2H9C2HCH4NHC2HCHCNC4H3CNH6CH3C2HCH8C2NH8CH4FeS2FeS2FeHFeS3FeS2FeHSFeHFeHS2C3HFeS2FeSH7FeH4CFeC2HC9H4C6H9C2H2CH2CH2CH2NC12H16C2H10SH3SHNH4SH3CSH5SC2H2C4H2SH2C3H4CHC2FeH2CH2SH6C2HCH4CH4C2HC2H4C2HCHC3SHSH2CH2CH2CSHCH3CHCNHCHCH3SH9C2FeCH3C3HCHCH3CSFeS2FeS2FeSFeCS2FeS2FeS2FeHFeHS2C2FeS2FeS2C2H5SC2HC2H4C6H4C6H4CH2CHCHCHCH2CSCH4CHSH2C2HSFeSH2CHCH3CH4CH3NC6HC2H12C3H4CFeHSNC12H27NC3H2C4HCSH8CH3CH6C2H5CH5C2HSCSCH4CH5CHSH2CSC2H3C4HCH2NHCH3CHC2H2CH3FeHCHSCH2C2HNC2H5CHFeHC3H2CH3C2H2CH2C2H2CH2C2HCH4C2HSCHCH3C2HCHSFeSFeSFeS2FeS2FeS3C3H2CH2CNH2CH2C6H6C2HC3H2S2FeS2FeS2FeSC3H3C3HCH4CHC3H7CH5C2HCHCH2C2HNH3C2HCHCH6CHNH3NC4NC4H2CH2CH11C2H6CHCHCH9C4HCNCHCH3CH9CH3CH2SH2C3SHCHC2H8CH6CH2C2H2CH3C2HCH4CH3C2H2CHCH3C4H3CH5C2HCH6C2HC2HCHC2H6CH3C3H4CH3CH3FeSCFeS2FeSFeS3FeS2FeS2FeHFeCS2HCH3SCHCSCHC3H3CHC4H3C8H4C6H12NH3SH2C2H2FeCH2CNHC2HCSH6C2H3CH2CH2CNC2HC4NHC2H4CH3CH7NH2C2SH4CHNH4C2H3CH3SCH4CHCH2FeH3CHNC2H4C3H6CHCH2C4H6CH5C3H2C2H5CH4C2H2CHCH3CH2CH3C5HC2H5C2H2SHC2H7CH6C2H2NH6CHCH4CH5CHCH3CHNFeSHFeS2FeSFeS3FeS2FeS2FeSFeHS2FeSCHFeS2HCH5C2H3CH2CH4C6H4CH4CH6CH2C6H4CHCH2C2H2NHC3SHCH2C2H2CH10C2H8C3H5C2H2CHSHCH2C2H2C2HCH3CHSFeHC2H3C4H2CH2C2H3CHCH2CHCH2CHCH7NC11H14CH5C2H6CH2SHNC5NFeH2C2H3CH4CHCHSH3C2HC2HC3HCH2CNHSH2CH2CH5SH2CH3S2CSHC3H4FeSCFeSFeS2FeS2FeS3CHC3H2C6H7SHCHC3FeSCSFeS2FeSH5CH2C3H2C5H4CHC2HCNC2H3SHCH3CH3C2HCH5C3H4CH2CH8NCH2C3H3CHNCH2CH7C2H8CHCNC6HCH2CH3CH9CH2CH2NH7CH2C2HCH2CHCHCHCHCH4C2HC2H3C3HCH3CH3CH2CH5CH5CH3C2H2C2H3CHC2HC2HCH2C2H2CNHCH2CH2CH2C2H5CH4SHCH2CHSH3CH2CH2CH3C3HCHCFeS2FeS2FeSFeS3FeS2FeS2FeSFeS3FeSH5CHS2HCHNHC2HCH2CHC9H8C3HC2HCHC6H3NC8HC3H14NH3CH4CH4SHCH2C2HCH4CH3C2HCSCHC4H2C2H3CH7CHCHCH2C3NH2CH2CHCH3NHSC2HFeCSCH6CH5CHC2H3CH9CHSH2CH5CSH2CH6CH2CH4CNC5HC3H12CH2CH5CH3CHFeH4CH5CH2CHCH4CHCH5C2H3CH3CH4NH3CH2CH2CHC2FeHFeSHFeSCFeSFeS3FeS2FeS2FeSFeS3FeSHCFeS2H5CH2C2H4CH3NSC6H5C3H9CHC6H2CFeHCHCSH2FeH3CHCH4CH3C2H2CHCH4CHC2HNH5NC6H17C4H6SHCH3CH3CH3SHFeH2CHCHCHNH2SH2C2SCHCHC2H7C2HC2H2CHCHCH3CHCNC6H2C2H4CHCHC2H9C3H3SCFeSFeSCFeS2FeS3HC4H4C3H12C3FeSHSFeS2FeSHCHNHCH2C3FeHC6H6C2HC2H4C3NHC6H3CH5CH7CH5CH2CH2CHCHCH4CHCH9CHCH2C2HCH2C2H2CH2C2H3CHCH6NHC2HC2HCHCH3C2HCH6CH4CH2CH3CH2C2H2CHCH2C2H2CHCH5CH8CHSH2NHCHCH4CHC2H6C2HCHCH5CH4C2FeSHFeSCFeSFeS3FeS2FeS2FeCFeS3CH6Fe2S2HCHCHC2HCHC3H3C6H4CHCHC2HC2H2NH3C5H2C2H3C2H3C2H6CHC3H2FeC2HCH3CHCH5SHCH5CH2C2HCH5CHCH5CHC2H8C2HSH2C2H2CHC2H6CH3CSHCHSCH2CH4C3H2NHNC2H10NHCHC2H5CH2CHCSH2C2H3CH5SH2CH4C2HCH5NC2H2
_chemical_formula_sum              "Fe128 S256 H2048 C1152 N64"
_cell_length_a       46.2886
_cell_length_b       32.7219
_cell_length_c       49.7905
_cell_angle_alpha    90.0689
_cell_angle_beta     90.0904
_cell_angle_gamma    89.9438

_space_group_name_H-M_alt    "P 1"
_space_group_IT_number       1

loop_
  _space_group_symop_operation_xyz
  'x, y, z'

loop_
  _atom_site_type_symbol
  _atom_site_label
  _atom_site_symmetry_multiplicity
  _atom_site_fract_x
  _atom_site_fract_y
  _atom_site_fract_z
  _atom_site_occupancy
  Fe  Fe1       1.0  0.42969  0.07961  0.23300  1.0000
  S   S1        1.0  0.43468  0.14820  0.22767  1.0000
  S   S2        1.0  0.47144  0.04098  0.23905  1.0000
  Fe  Fe2       1.0  0.36329  0.08774  0.23650  1.0000
  S   S3        1.0  0.36447  0.15556  0.23100  1.0000
  S   S4        1.0  0.32264  0.04903  0.24417  1.0000
  Fe  Fe3       1.0  0.39755  0.14451  0.19849  1.0000
  S   S5        1.0  0.39310  0.19036  0.16355  1.0000
  Fe  Fe4       1.0  0.40148  0.15550  0.26031  1.0000
  H   H1        1.0  0.16712  0.38639  0.05427  1.0000
  S   S6        1.0  0.39403  0.07555  0.20182  1.0000
  S   S7        1.0  0.39878  0.08779  0.26775  1.0000
  Fe  Fe5       1.0  0.08159  0.07851  0.27728  1.0000
  S   S8        1.0  0.07224  0.01134  0.27236  1.0000
  S   S9        1.0  0.04420  0.11861  0.29381  1.0000
  Fe  Fe6       1.0  0.14655  0.06406  0.26496  1.0000
  H   H2        1.0  0.05389  0.46522  0.06347  1.0000
  S   S10       1.0  0.18949  0.09972  0.26160  1.0000
  Fe  Fe7       1.0  0.10078  0.01265  0.23568  1.0000
  H   H3        1.0  0.26339  0.10978  0.31016  1.0000
  Fe  Fe8       1.0  0.11241  0.99905  0.29634  1.0000
  C   C1        1.0  0.32366  0.09619  0.31620  1.0000
  S   S11       1.0  0.10773  0.08093  0.23897  1.0000
  S   S12       1.0  0.12069  0.06599  0.30358  1.0000
  H   H4        1.0  0.45134  0.29712  0.08590  1.0000
  H   H5        1.0  0.33629  0.22708  0.30967  1.0000
  Fe  Fe9       1.0  0.41002  0.27396  0.00763  1.0000
  S   S13       1.0  0.42341  0.22672  0.03992  1.0000
  S   S14       1.0  0.40300  0.34248  0.00805  1.0000
  Fe  Fe10      1.0  0.11236  0.42745  0.00355  1.0000
  S   S15       1.0  0.11705  0.35948  0.00801  1.0000
  H   H6        1.0  0.07309  0.00202  0.08064  1.0000
  C   C2        1.0  0.00625  0.20877  0.24820  1.0000
  H   H7        1.0  0.27132  0.00191  0.25463  1.0000
  H   H8        1.0  0.08746  0.34191  0.07555  1.0000
  H   H9        1.0  0.14689  0.99474  0.12327  1.0000
  H   H10       1.0  0.32444  0.97715  0.15513  1.0000
  H   H11       1.0  0.01626  0.04547  0.06561  1.0000
  H   H12       1.0  0.19426  0.42974  0.00505  1.0000
  H   H13       1.0  0.16667  0.43544  0.14221  1.0000
  C   C3        1.0  0.00889  0.42327  0.31909  1.0000
  C   C4        1.0  0.11151  0.44614  0.08748  1.0000
  C   C5        1.0  0.12003  0.98430  0.15803  1.0000
  N   N1        1.0  0.00436  0.04106  0.12518  1.0000
  C   C6        1.0  0.48780  0.99226  0.23176  1.0000
  H   H14       1.0  0.41659  0.24200  0.22241  1.0000
  H   H15       1.0  0.11214  0.41625  0.07822  1.0000
  H   H16       1.0  0.17710  0.42571  0.28744  1.0000
  H   H17       1.0  0.49382  0.10187  0.02490  1.0000
  C   C7        1.0  0.40142  0.19916  0.12896  1.0000
  C   C8        1.0  0.39114  0.23511  0.11661  1.0000
  C   C9        1.0  0.39724  0.24390  0.08939  1.0000
  C   C10       1.0  0.41394  0.21690  0.07410  1.0000
  C   C11       1.0  0.42452  0.18120  0.08652  1.0000
  C   C12       1.0  0.41830  0.17226  0.11370  1.0000
  H   H18       1.0  0.37812  0.25624  0.12815  1.0000
  H   H19       1.0  0.38899  0.27156  0.08028  1.0000
  H   H20       1.0  0.43755  0.16019  0.07497  1.0000
  H   H21       1.0  0.42647  0.14458  0.12281  1.0000
  C   C13       1.0  0.28578  0.06397  0.24914  1.0000
  C   C14       1.0  0.27685  0.10484  0.24841  1.0000
  C   C15       1.0  0.24743  0.11507  0.25228  1.0000
  C   C16       1.0  0.22636  0.08469  0.25670  1.0000
  C   C17       1.0  0.23534  0.04382  0.25754  1.0000
  C   C18       1.0  0.26480  0.03363  0.25390  1.0000
  H   H22       1.0  0.29256  0.12855  0.24460  1.0000
  H   H23       1.0  0.24085  0.14678  0.25155  1.0000
  H   H24       1.0  0.21956  0.02006  0.26103  1.0000
  H   H25       1.0  0.04373  0.06572  0.08733  1.0000
  H   H26       1.0  0.46274  0.36034  0.22286  1.0000
  H   H27       1.0  0.29229  0.16022  0.29463  1.0000
  H   H28       1.0  0.44212  0.13414  0.01932  1.0000
  H   H29       1.0  0.30343  0.03523  0.18165  1.0000
  C   C19       1.0  0.46169  0.25373  0.17518  1.0000
  C   C20       1.0  0.02258  0.16061  0.28245  1.0000
  S   S16       1.0  0.14069  0.99627  0.25933  1.0000
  H   H30       1.0  0.01754  0.09107  0.21060  1.0000
  H   H31       1.0  0.02626  0.03748  0.21455  1.0000
  H   H32       1.0  0.47944  0.36083  0.29493  1.0000
  C   C21       1.0  0.32723  0.20244  0.29695  1.0000
  H   H33       1.0  0.11020  0.42265  0.12803  1.0000
  H   H34       1.0  0.02842  0.09768  0.13020  1.0000
  H   H35       1.0  0.38420  0.26108  0.23826  1.0000
  H   H36       1.0  0.47999  0.20344  0.15369  1.0000
  H   H37       1.0  0.27989  0.33216  0.03315  1.0000
  C   C22       1.0  0.18933  0.37588  0.04919  1.0000
  H   H38       1.0  0.02564  0.05180  0.00561  1.0000
  H   H39       1.0  0.01870  0.99733  0.17488  1.0000
  H   H40       1.0  0.36484  0.97735  0.24721  1.0000
  C   C23       1.0  0.16741  0.30499  0.05217  1.0000
  H   H41       1.0  0.06542  0.43131  0.22443  1.0000
  H   H42       1.0  0.48532  0.37905  0.24862  1.0000
  C   C24       1.0  0.26080  0.36843  0.06522  1.0000
  C   C25       1.0  0.43134  0.30703  0.25619  1.0000
  H   H43       1.0  0.20407  0.44890  0.13819  1.0000
  H   H44       1.0  0.24933  0.34142  0.07315  1.0000
  C   C26       1.0  0.40106  0.21176  0.32454  1.0000
  H   H45       1.0  0.04047  0.16415  0.24270  1.0000
  H   H46       1.0  0.39791  0.98513  0.20810  1.0000
  H   H47       1.0  0.18930  0.37326  0.02693  1.0000
  C   C27       1.0  0.40496  0.44457  0.24983  1.0000
  H   H48       1.0  0.45207  0.19142  0.99579  1.0000
  H   H49       1.0  0.48398  0.18757  0.10090  1.0000
  S   S17       1.0  0.40330  0.21070  0.28883  1.0000
  C   C28       1.0  0.47822  0.25600  0.12659  1.0000
  H   H50       1.0  0.44694  0.42513  0.23752  1.0000
  H   H51       1.0  0.34411  0.17892  0.29354  1.0000
  H   H52       1.0  0.16499  0.30315  0.03000  1.0000
  H   H53       1.0  0.17082  0.27354  0.05992  1.0000
  H   H54       1.0  0.14722  0.31738  0.06107  1.0000
  C   C29       1.0  0.46148  0.06945  0.04717  1.0000
  C   C30       1.0  0.11042  0.44991  0.11575  1.0000
  C   C31       1.0  0.20634  0.45344  0.01619  1.0000
  H   H55       1.0  0.40911  0.37250  0.27514  1.0000
  H   H56       1.0  0.46534  0.28685  0.17844  1.0000
  C   C32       1.0  0.25343  0.13059  0.32501  1.0000
  C   C33       1.0  0.01505  0.45329  0.29627  1.0000
  C   C34       1.0  0.01608  0.06441  0.22429  1.0000
  H   H57       1.0  0.17962  0.45449  0.05144  1.0000
  C   C35       1.0  0.03849  0.39215  0.07931  1.0000
  H   H58       1.0  0.28292  0.20682  0.31069  1.0000
  H   H59       1.0  0.02869  0.37140  0.09454  1.0000
  C   C36       1.0  0.47365  0.08498  0.02056  1.0000
  C   C37       1.0  0.04901  0.36543  0.05537  1.0000
  C   C38       1.0  0.01884  0.01419  0.10452  1.0000
  H   H60       1.0  0.39903  0.33222  0.22865  1.0000
  H   H61       1.0  0.26901  0.38626  0.08266  1.0000
  C   C39       1.0  0.34792  0.06483  0.31939  1.0000
  C   C40       1.0  0.06791  0.33012  0.06516  1.0000
  H   H62       1.0  0.49530  0.16777  0.02119  1.0000
  H   H63       1.0  0.16650  0.40069  0.09813  1.0000
  H   H64       1.0  0.05594  0.01947  0.15300  1.0000
  H   H65       1.0  0.47654  0.22458  0.29799  1.0000
  H   H66       1.0  0.47923  0.05770  0.00847  1.0000
  H   H67       1.0  0.05836  0.40466  0.08872  1.0000
  C   C41       1.0  0.29369  0.00419  0.18182  1.0000
  H   H68       1.0  0.03908  0.44108  0.03509  1.0000
  H   H69       1.0  0.46436  0.23747  0.19459  1.0000
  C   C42       1.0  0.44477  0.32614  0.31389  1.0000
  H   H70       1.0  0.28510  0.45103  0.30855  1.0000
  C   C43       1.0  0.43084  0.38136  0.26749  1.0000
  H   H71       1.0  0.06225  0.38374  0.04127  1.0000
  H   H72       1.0  0.29910  0.37899  0.04045  1.0000
  H   H73       1.0  0.23429  0.46666  0.29945  1.0000
  H   H74       1.0  0.23927  0.38177  0.02730  1.0000
  H   H75       1.0  0.38996  0.26891  0.20286  1.0000
  H   H76       1.0  0.19361  0.39571  0.14114  1.0000
  H   H77       1.0  0.21258  0.09857  0.32183  1.0000
  H   H78       1.0  0.05063  0.09374  0.00877  1.0000
  C   C44       1.0  0.02470  0.17663  0.25647  1.0000
  H   H79       1.0  0.02843  0.07127  0.24291  1.0000
  C   C45       1.0  0.42623  0.41028  0.24310  1.0000
  H   H80       1.0  0.41382  0.30276  0.27123  1.0000
  H   H81       1.0  0.22904  0.43401  0.09426  1.0000
  H   H82       1.0  0.01800  0.41038  0.24362  1.0000
  H   H83       1.0  0.07491  0.31145  0.04767  1.0000
  H   H84       1.0  0.44181  0.05074  0.04366  1.0000
  H   H85       1.0  0.47864  0.24129  0.06825  1.0000
  C   C46       1.0  0.49424  0.31695  0.23675  1.0000
  H   H86       1.0  0.49558  0.12079  0.22744  1.0000
  C   C47       1.0  0.18737  0.42594  0.13280  1.0000
  H   H87       1.0  0.32433  0.10800  0.29532  1.0000
  C   C48       1.0  0.05635  0.05075  0.14494  1.0000
  C   C49       1.0  0.45122  0.11122  0.00502  1.0000
  C   C50       1.0  0.40080  0.26757  0.22277  1.0000
  H   H88       1.0  0.05561  0.31008  0.07902  1.0000
  H   H89       1.0  0.07444  0.10956  0.15725  1.0000
  C   C51       1.0  0.07351  0.07748  0.16446  1.0000
  C   C52       1.0  0.02540  0.06777  0.14051  1.0000
  H   H90       1.0  0.47881  0.30764  0.28793  1.0000
  H   H91       1.0  0.06371  0.07667  0.18477  1.0000
  H   H92       1.0  0.04790  0.44280  0.12323  1.0000
  C   C53       1.0  0.19328  0.33172  0.05960  1.0000
  H   H93       1.0  0.42759  0.34952  0.31615  1.0000
  H   H94       1.0  0.46334  0.45362  0.99989  1.0000
  C   C54       1.0  0.46478  0.33498  0.28959  1.0000
  H   H95       1.0  0.45608  0.09536  0.06063  1.0000
  H   H96       1.0  0.15554  0.45215  0.26280  1.0000
  H   H97       1.0  0.06853  0.04979  0.12578  1.0000
  C   C55       1.0  0.49216  0.26447  0.07885  1.0000
  C   C56       1.0  0.47032  0.32101  0.05001  1.0000
  H   H98       1.0  0.47417  0.28907  0.12944  1.0000
  H   H99       1.0  0.14142  0.44455  0.29610  1.0000
  C   C57       1.0  0.48323  0.23701  0.15474  1.0000
  H   H100      1.0  0.09596  0.06577  0.16617  1.0000
  H   H101      1.0  0.28374  0.99876  0.20178  1.0000
  H   H102      1.0  0.03069  0.35199  0.04403  1.0000
  C   C58       1.0  0.20277  0.44794  0.04700  1.0000
  H   H103      1.0  0.48602  0.24119  0.01777  1.0000
  H   H104      1.0  0.41796  0.39374  0.22530  1.0000
  H   H105      1.0  0.43306  0.08968  0.00091  1.0000
  N   N2        1.0  0.01757  0.42608  0.07243  1.0000
  H   H106      1.0  0.49173  0.32709  0.04094  1.0000
  H   H107      1.0  0.45847  0.29918  0.03703  1.0000
  C   C59       1.0  0.49749  0.18190  0.00113  1.0000
  H   H108      1.0  0.48292  0.28832  0.23119  1.0000
  H   H109      1.0  0.40266  0.46528  0.23228  1.0000
  C   C60       1.0  0.24118  0.39609  0.04755  1.0000
  H   H110      1.0  0.47788  0.04997  0.05729  1.0000
  H   H111      1.0  0.30321  0.07950  0.31945  1.0000
  C   C61       1.0  0.28696  0.35310  0.04943  1.0000
  H   H112      1.0  0.01635  0.07567  0.16057  1.0000
  C   C62       1.0  0.32000  0.22187  0.26986  1.0000
  H   H113      1.0  0.21254  0.31768  0.05003  1.0000
  H   H114      1.0  0.33993  0.23491  0.26095  1.0000
  H   H115      1.0  0.31114  0.19874  0.25574  1.0000
  H   H116      1.0  0.30400  0.24690  0.27241  1.0000
  H   H117      1.0  0.30172  0.33596  0.06295  1.0000
  H   H118      1.0  0.44435  0.27843  0.25747  1.0000
  N   N3        1.0  0.21149  0.40680  0.05829  1.0000
  C   C63       1.0  0.30002  0.18284  0.30962  1.0000
  C   C64       1.0  0.47249  0.35198  0.24245  1.0000
  H   H119      1.0  0.37427  0.98031  0.15735  1.0000
  H   H120      1.0  0.43450  0.29583  0.31122  1.0000
  C   C65       1.0  0.04628  0.42638  0.21130  1.0000
  H   H121      1.0  0.34997  0.00520  0.19685  1.0000
  H   H122      1.0  0.43919  0.24917  0.16806  1.0000
  H   H123      1.0  0.45789  0.35006  0.05054  1.0000
  C   C66       1.0  0.41591  0.30817  0.22863  1.0000
  H   H124      1.0  0.21942  0.38219  0.09825  1.0000
  H   H125      1.0  0.00846  0.46579  0.15332  1.0000
  C   C67       1.0  0.18367  0.42344  0.10231  1.0000
  C   C68       1.0  0.03245  0.46598  0.11562  1.0000
  H   H126      1.0  0.04703  0.39457  0.20352  1.0000
  C   C69       1.0  0.49895  0.22351  0.29000  1.0000
  H   H127      1.0  0.45727  0.24368  0.11906  1.0000
  H   H128      1.0  0.34664  0.04197  0.30291  1.0000
  H   H129      1.0  0.22934  0.45152  0.01007  1.0000
  C   C70       1.0  0.03301  0.45590  0.05439  1.0000
  H   H130      1.0  0.25427  0.42431  0.04456  1.0000
  H   H131      1.0  0.19556  0.33070  0.08173  1.0000
  N   N4        1.0  0.44957  0.34373  0.26331  1.0000
  H   H132      1.0  0.06548  0.02804  0.04971  1.0000
  H   H133      1.0  0.43120  0.31383  0.21200  1.0000
  C   C71       1.0  0.03306  0.03712  0.08064  1.0000
  H   H134      1.0  0.03547  0.99432  0.11390  1.0000
  C   C72       1.0  0.47345  0.30399  0.07845  1.0000
  H   H135      1.0  0.13168  0.00570  0.17059  1.0000
  H   H136      1.0  0.48246  0.32844  0.09126  1.0000
  C   C73       1.0  0.05558  0.01065  0.06646  1.0000
  H   H137      1.0  0.41673  0.99211  0.25568  1.0000
  H   H138      1.0  0.04754  0.44769  0.19397  1.0000
  C   C74       1.0  0.00399  0.98213  0.16046  1.0000
  H   H139      1.0  0.21543  0.47283  0.05680  1.0000
  H   H140      1.0  0.03364  0.44115  0.28470  1.0000
  H   H141      1.0  0.48429  0.14165  0.18193  1.0000
  H   H142      1.0  0.24435  0.15707  0.31384  1.0000
  H   H143      1.0  0.27636  0.00310  0.16638  1.0000
  C   C75       1.0  0.21240  0.41096  0.08851  1.0000
  H   H144      1.0  0.44022  0.40148  0.28339  1.0000
  C   C76       1.0  0.01834  0.43303  0.22708  1.0000
  H   H145      1.0  0.00279  0.99259  0.09568  1.0000
  H   H146      1.0  0.36936  0.07993  0.31865  1.0000
  C   C77       1.0  0.00823  0.44571  0.09856  1.0000
  C   C78       1.0  0.04534  0.06594  0.99691  1.0000
  H   H147      1.0  0.17627  0.45396  0.09547  1.0000
  C   C79       1.0  0.16137  0.45095  0.28443  1.0000
  H   H148      1.0  0.00812  0.22070  0.22802  1.0000
  H   H149      1.0  0.38336  0.43192  0.25477  1.0000
  H   H150      1.0  0.49031  0.17025  0.26644  1.0000
  H   H151      1.0  0.00382  0.39250  0.31086  1.0000
  C   C80       1.0  0.12862  0.97799  0.13114  1.0000
  C   C81       1.0  0.00169  0.17730  0.29992  1.0000
  H   H152      1.0  0.49964  0.44502  0.31533  1.0000
  H   H153      1.0  0.06371  0.04419  0.99854  1.0000
  H   H154      1.0  0.49420  0.07833  0.31208  1.0000
  H   H155      1.0  0.41300  0.46302  0.26705  1.0000
  H   H156      1.0  0.04556  0.98255  0.05814  1.0000
  Fe  Fe11      1.0  0.42130  0.33869  0.48535  1.0000
  S   S18       1.0  0.46062  0.37863  0.49757  1.0000
  Fe  Fe12      1.0  0.35545  0.33133  0.47631  1.0000
  S   S19       1.0  0.31494  0.37115  0.47030  1.0000
  Fe  Fe13      1.0  0.39623  0.26957  0.44957  1.0000
  S   S20       1.0  0.40494  0.22096  0.41714  1.0000
  S   S21       1.0  0.39354  0.33852  0.44792  1.0000
  Fe  Fe14      1.0  0.11072  0.43468  0.44660  1.0000
  S   S22       1.0  0.11362  0.36712  0.43839  1.0000
  H   H157      1.0  0.11524  0.17831  0.33015  1.0000
  Fe  Fe15      1.0  0.07495  0.36028  0.46598  1.0000
  S   S23       1.0  0.03177  0.32819  0.45602  1.0000
  S   S24       1.0  0.13980  0.43354  0.48337  1.0000
  S   S25       1.0  0.07063  0.42838  0.47180  1.0000
  C   C82       1.0  0.27780  0.35699  0.47258  1.0000
  C   C83       1.0  0.25639  0.38611  0.46626  1.0000
  C   C84       1.0  0.22671  0.37659  0.46834  1.0000
  H   H158      1.0  0.26285  0.41619  0.45960  1.0000
  H   H159      1.0  0.21054  0.39893  0.46299  1.0000
  C   C85       1.0  0.09906  0.25191  0.43853  1.0000
  C   C86       1.0  0.49942  0.27622  0.54525  1.0000
  H   H160      1.0  0.00755  0.02114  0.64336  1.0000
  H   H161      1.0  0.33430  0.20946  0.35078  1.0000
  C   C87       1.0  0.39359  0.24858  0.33749  1.0000
  H   H162      1.0  0.04120  0.30098  0.56948  1.0000
  H   H163      1.0  0.21658  0.12789  0.35227  1.0000
  H   H164      1.0  0.00833  0.43215  0.46981  1.0000
  H   H165      1.0  0.49182  0.00450  0.55238  1.0000
  H   H166      1.0  0.06885  0.26220  0.39268  1.0000
  H   H167      1.0  0.06986  0.02318  0.45770  1.0000
  C   C88       1.0  0.44266  0.13489  0.53365  1.0000
  C   C89       1.0  0.40852  0.18110  0.36853  1.0000
  C   C90       1.0  0.40210  0.21832  0.38148  1.0000
  C   C91       1.0  0.39418  0.25194  0.36577  1.0000
  H   H168      1.0  0.04230  0.13425  0.57922  1.0000
  H   H169      1.0  0.45250  0.28199  0.54377  1.0000
  H   H170      1.0  0.41457  0.15485  0.38049  1.0000
  H   H171      1.0  0.38891  0.28063  0.37541  1.0000
  H   H172      1.0  0.48442  0.19807  0.59162  1.0000
  H   H173      1.0  0.18720  0.38802  0.59089  1.0000
  C   C92       1.0  0.10343  0.97548  0.37607  1.0000
  C   C93       1.0  0.48227  0.41958  0.48473  1.0000
  H   H174      1.0  0.16344  0.42765  0.58027  1.0000
  H   H175      1.0  0.05659  0.04016  0.48981  1.0000
  H   H176      1.0  0.49740  0.98200  0.65213  1.0000
  C   C94       1.0  0.02930  0.25323  0.48307  1.0000
  C   C95       1.0  0.01496  0.28191  0.46705  1.0000
  H   H177      1.0  0.22855  0.36884  0.52806  1.0000
  H   H178      1.0  0.05124  0.25909  0.48949  1.0000
  S   S26       1.0  0.42651  0.26988  0.48524  1.0000
  S   S27       1.0  0.35679  0.26276  0.47563  1.0000
  Fe  Fe16      1.0  0.38691  0.26731  0.51135  1.0000
  S   S28       1.0  0.37925  0.21881  0.54421  1.0000
  S   S29       1.0  0.38304  0.33596  0.51371  1.0000
  Fe  Fe17      1.0  0.09971  0.42144  0.50786  1.0000
  S   S30       1.0  0.10239  0.35311  0.50284  1.0000
  H   H179      1.0  0.28063  0.36794  0.53767  1.0000
  Fe  Fe18      1.0  0.14089  0.36567  0.47616  1.0000
  S   S31       1.0  0.18088  0.32548  0.48216  1.0000
  C   C96       1.0  0.21799  0.33801  0.47722  1.0000
  C   C97       1.0  0.23935  0.30876  0.48330  1.0000
  C   C98       1.0  0.26905  0.31807  0.48089  1.0000
  H   H180      1.0  0.23293  0.27877  0.49017  1.0000
  H   H181      1.0  0.28518  0.29532  0.48583  1.0000
  C   C99       1.0  0.09542  0.45878  0.36674  1.0000
  C   C100      1.0  0.01209  0.47150  0.38943  1.0000
  S   S32       1.0  0.08317  0.44363  0.54907  1.0000
  H   H182      1.0  0.03705  0.36394  0.52370  1.0000
  C   C101      1.0  0.22810  0.10789  0.33776  1.0000
  C   C102      1.0  0.02137  0.23645  0.37021  1.0000
  H   H183      1.0  0.41378  0.14923  0.33068  1.0000
  H   H184      1.0  0.00955  0.28891  0.39599  1.0000
  H   H185      1.0  0.01004  0.01335  0.58016  1.0000
  H   H186      1.0  0.20473  0.46370  0.47988  1.0000
  C   C103      1.0  0.40542  0.18637  0.63161  1.0000
  C   C104      1.0  0.38542  0.16265  0.61741  1.0000
  C   C105      1.0  0.37782  0.17306  0.59076  1.0000
  C   C106      1.0  0.38976  0.20754  0.57798  1.0000
  C   C107      1.0  0.40979  0.23121  0.59218  1.0000
  C   C108      1.0  0.41777  0.22044  0.61868  1.0000
  H   H187      1.0  0.37588  0.13619  0.62689  1.0000
  H   H188      1.0  0.36236  0.15441  0.58000  1.0000
  H   H189      1.0  0.41879  0.25806  0.58283  1.0000
  H   H190      1.0  0.43325  0.23909  0.62940  1.0000
  N   N5        1.0  0.20601  0.42996  0.56221  1.0000
  C   C109      1.0  0.31640  0.18342  0.38617  1.0000
  H   H191      1.0  0.09096  0.43010  0.37670  1.0000
  H   H192      1.0  0.24301  0.44513  0.51435  1.0000
  H   H193      1.0  0.44728  0.14170  0.51224  1.0000
  C   C110      1.0  0.26590  0.34775  0.54925  1.0000
  C   C111      1.0  0.22517  0.46655  0.51946  1.0000
  H   H194      1.0  0.46477  0.15085  0.63303  1.0000
  C   C112      1.0  0.05155  0.08509  0.60760  1.0000
  H   H195      1.0  0.04655  0.29107  0.53404  1.0000
  H   H196      1.0  0.09567  0.00103  0.61420  1.0000
  H   H197      1.0  0.32856  0.11633  0.35686  1.0000
  C   C113      1.0  0.01940  0.18859  0.40911  1.0000
  C   C114      1.0  0.00555  0.43604  0.40929  1.0000
  C   C115      1.0  0.05760  0.24008  0.40601  1.0000
  C   C116      1.0  0.27533  0.14576  0.34662  1.0000
  H   H198      1.0  0.02050  0.12662  0.62550  1.0000
  H   H199      1.0  0.44691  0.31674  0.35693  1.0000
  H   H200      1.0  0.02095  0.42730  0.51862  1.0000
  H   H201      1.0  0.33571  0.16353  0.38852  1.0000
  C   C117      1.0  0.08498  0.47193  0.60134  1.0000
  C   C118      1.0  0.20935  0.46844  0.57891  1.0000
  H   H202      1.0  0.06961  0.20150  0.44051  1.0000
  H   H203      1.0  0.23802  0.39803  0.58607  1.0000
  C   C119      1.0  0.02219  0.98409  0.58051  1.0000
  H   H204      1.0  0.03249  0.16847  0.42240  1.0000
  H   H205      1.0  0.42616  0.15697  0.54081  1.0000
  C   C120      1.0  0.10121  0.97693  0.65425  1.0000
  H   H206      1.0  0.01823  0.38725  0.38176  1.0000
  C   C121      1.0  0.01540  0.21654  0.49062  1.0000
  C   C122      1.0  0.46436  0.12976  0.58038  1.0000
  C   C123      1.0  0.47985  0.12592  0.62709  1.0000
  H   H207      1.0  0.46408  0.42048  0.44499  1.0000
  C   C124      1.0  0.32712  0.13119  0.33682  1.0000
  H   H208      1.0  0.19137  0.46190  0.32848  1.0000
  C   C125      1.0  0.02925  0.35153  0.54312  1.0000
  H   H209      1.0  0.15366  0.33180  0.58370  1.0000
  H   H210      1.0  0.07876  0.43886  0.32834  1.0000
  H   H211      1.0  0.09435  0.22072  0.36648  1.0000
  C   C126      1.0  0.40798  0.17776  0.34026  1.0000
  H   H212      1.0  0.47880  0.16999  0.54735  1.0000
  H   H213      1.0  0.06998  0.21474  0.33852  1.0000
  H   H214      1.0  0.34870  0.14544  0.33362  1.0000
  H   H215      1.0  0.29166  0.04922  0.64934  1.0000
  H   H216      1.0  0.03290  0.37448  0.55911  1.0000
  C   C127      1.0  0.46175  0.32447  0.34016  1.0000
  C   C128      1.0  0.14243  0.35078  0.56843  1.0000
  H   H217      1.0  0.21482  0.46549  0.41862  1.0000
  H   H218      1.0  0.49797  0.12798  0.64166  1.0000
  H   H219      1.0  0.29727  0.16658  0.39364  1.0000
  H   H220      1.0  0.29730  0.22256  0.35550  1.0000
  C   C129      1.0  0.20761  0.46320  0.60996  1.0000
  H   H221      1.0  0.19917  0.98553  0.39139  1.0000
  H   H222      1.0  0.18541  0.45475  0.61629  1.0000
  H   H223      1.0  0.48219  0.22052  0.50131  1.0000
  H   H224      1.0  0.04242  0.16204  0.36110  1.0000
  H   H225      1.0  0.06675  0.15832  0.38831  1.0000
  H   H226      1.0  0.49477  0.98993  0.61635  1.0000
  H   H227      1.0  0.09510  0.19939  0.41322  1.0000
  H   H228      1.0  0.25749  0.99839  0.63331  1.0000
  C   C130      1.0  0.09906  0.47131  0.57624  1.0000
  C   C131      1.0  0.20040  0.44286  0.53353  1.0000
  H   H229      1.0  0.24008  0.45958  0.33465  1.0000
  H   H230      1.0  0.11143  0.26982  0.42350  1.0000
  H   H231      1.0  0.02428  0.43031  0.42272  1.0000
  H   H232      1.0  0.26596  0.31715  0.53957  1.0000
  C   C132      1.0  0.31291  0.19660  0.35634  1.0000
  H   H233      1.0  0.03166  0.46234  0.37781  1.0000
  H   H234      1.0  0.19950  0.99822  0.50136  1.0000
  H   H235      1.0  0.06492  0.09397  0.56623  1.0000
  H   H236      1.0  0.47871  0.30047  0.33912  1.0000
  H   H237      1.0  0.47178  0.35460  0.34448  1.0000
  H   H238      1.0  0.42266  0.45523  0.51658  1.0000
  H   H239      1.0  0.00844  0.21013  0.42305  1.0000
  H   H240      1.0  0.09662  0.99888  0.41610  1.0000
  H   H241      1.0  0.07449  0.07629  0.65776  1.0000
  H   H242      1.0  0.18035  0.46175  0.53268  1.0000
  H   H243      1.0  0.05999  0.15179  0.64672  1.0000
  C   C133      1.0  0.47032  0.13862  0.55026  1.0000
  H   H244      1.0  0.08552  0.27311  0.45057  1.0000
  H   H245      1.0  0.23578  0.07991  0.34817  1.0000
  H   H246      1.0  0.03556  0.98205  0.56202  1.0000
  C   C134      1.0  0.05000  0.02978  0.46945  1.0000
  H   H247      1.0  0.07090  0.32426  0.55204  1.0000
  H   H248      1.0  0.27926  0.12017  0.36092  1.0000
  C   C135      1.0  0.18048  0.40623  0.57303  1.0000
  H   H249      1.0  0.25248  0.42491  0.55853  1.0000
  C   C136      1.0  0.23520  0.36505  0.54923  1.0000
  C   C137      1.0  0.16400  0.37763  0.55336  1.0000
  H   H250      1.0  0.43374  0.10346  0.53496  1.0000
  H   H251      1.0  0.19594  0.41622  0.52033  1.0000
  H   H252      1.0  0.00886  0.00199  0.43437  1.0000
  H   H253      1.0  0.02675  0.08540  0.57018  1.0000
  H   H254      1.0  0.22111  0.34207  0.55904  1.0000
  H   H255      1.0  0.15150  0.39625  0.53875  1.0000
  H   H256      1.0  0.17851  0.35739  0.54180  1.0000
  H   H257      1.0  0.12575  0.37000  0.57837  1.0000
  H   H258      1.0  0.08657  0.14170  0.33387  1.0000
  C   C138      1.0  0.08036  0.21970  0.42461  1.0000
  C   C139      1.0  0.03140  0.99139  0.47181  1.0000
  H   H259      1.0  0.13148  0.32991  0.55409  1.0000
  C   C140      1.0  0.05652  0.18077  0.37444  1.0000
  H   H260      1.0  0.19107  0.02722  0.64315  1.0000
  H   H261      1.0  0.27418  0.34432  0.57007  1.0000
  H   H262      1.0  0.34001  0.23840  0.39798  1.0000
  H   H263      1.0  0.44092  0.08797  0.62535  1.0000
  N   N6        1.0  0.02777  0.07835  0.65469  1.0000
  H   H264      1.0  0.11184  0.14998  0.36102  1.0000
  C   C141      1.0  0.47994  0.43389  0.45831  1.0000
  C   C142      1.0  0.49881  0.98471  0.53624  1.0000
  H   H265      1.0  0.07119  0.10079  0.61511  1.0000
  C   C143      1.0  0.02691  0.03228  0.65451  1.0000
  H   H266      1.0  0.48622  0.11652  0.54199  1.0000
  C   C144      1.0  0.09958  0.16506  0.34460  1.0000
  N   N7        1.0  0.03873  0.21144  0.38992  1.0000
  C   C145      1.0  0.49836  0.46538  0.44904  1.0000
  C   C146      1.0  0.04802  0.31456  0.55007  1.0000
  C   C147      1.0  0.46379  0.08497  0.63199  1.0000
  C   C148      1.0  0.04592  0.10067  0.57912  1.0000
  H   H267      1.0  0.45482  0.09857  0.58113  1.0000
  H   H268      1.0  0.04409  0.25950  0.41931  1.0000
  H   H269      1.0  0.03668  0.98379  0.59829  1.0000
  C   C149      1.0  0.32086  0.22052  0.40442  1.0000
  N   N8        1.0  0.30381  0.16340  0.33690  1.0000
  H   H270      1.0  0.44686  0.15085  0.58722  1.0000
  H   H271      1.0  0.30150  0.24061  0.40419  1.0000
  H   H272      1.0  0.02811  0.42061  0.33230  1.0000
  H   H273      1.0  0.32464  0.21019  0.42539  1.0000
  H   H274      1.0  0.11470  0.23678  0.45225  1.0000
  H   H275      1.0  0.10176  0.00513  0.36660  1.0000
  C   C150      1.0  0.02514  0.09323  0.62606  1.0000
  H   H276      1.0  0.05634  0.05202  0.60618  1.0000
  H   H277      1.0  0.06508  0.45505  0.60382  1.0000
  H   H278      1.0  0.02684  0.19469  0.50299  1.0000
  C   C151      1.0  0.47091  0.29262  0.55631  1.0000
  C   C152      1.0  0.02130  0.97638  0.44364  1.0000
  H   H279      1.0  0.48105  0.15940  0.47261  1.0000
  C   C153      1.0  0.23371  0.40589  0.56475  1.0000
  H   H280      1.0  0.26302  0.16903  0.35836  1.0000
  H   H281      1.0  0.00632  0.13574  0.38441  1.0000
  H   H282      1.0  0.03603  0.25539  0.35764  1.0000
  H   H283      1.0  0.49511  0.23161  0.46806  1.0000
  H   H284      1.0  0.00446  0.42406  0.61165  1.0000
  H   H285      1.0  0.48606  0.29151  0.50452  1.0000
  H   H286      1.0  0.22262  0.43924  0.61723  1.0000
  H   H287      1.0  0.01272  0.99931  0.48477  1.0000
  C   C154      1.0  0.08016  0.19880  0.35581  1.0000
  C   C155      1.0  0.08844  0.46389  0.33931  1.0000
  N   N9        1.0  0.49026  0.13301  0.59879  1.0000
  H   H288      1.0  0.47373  0.05944  0.62068  1.0000
  H   H289      1.0  0.34587  0.04857  0.33886  1.0000
  H   H290      1.0  0.46777  0.28138  0.57713  1.0000
  H   H291      1.0  0.19999  0.46148  0.37138  1.0000
  H   H292      1.0  0.00996  0.21633  0.35562  1.0000
  H   H293      1.0  0.23817  0.04131  0.64730  1.0000
  H   H294      1.0  0.04570  0.01972  0.64337  1.0000
  H   H295      1.0  0.47095  0.32659  0.55670  1.0000
  C   C156      1.0  0.25180  0.01447  0.65223  1.0000
  H   H296      1.0  0.00622  0.07878  0.61605  1.0000
  H   H297      1.0  0.03769  0.05482  0.45962  1.0000
  H   H298      1.0  0.49787  0.24246  0.54475  1.0000
  H   H299      1.0  0.38756  0.27486  0.32559  1.0000
  Fe  Fe19      1.0  0.42634  0.06500  0.73593  1.0000
  S   S33       1.0  0.43175  0.13345  0.73334  1.0000
  S   S34       1.0  0.46808  0.02886  0.74597  1.0000
  Fe  Fe20      1.0  0.36011  0.07383  0.72956  1.0000
  S   S35       1.0  0.36222  0.14221  0.72574  1.0000
  S   S36       1.0  0.31815  0.03610  0.73115  1.0000
  Fe  Fe21      1.0  0.40055  0.13162  0.69855  1.0000
  H   H300      1.0  0.00814  0.42498  0.77980  1.0000
  Fe  Fe22      1.0  0.39344  0.13925  0.76060  1.0000
  S   S37       1.0  0.38572  0.18883  0.79248  1.0000
  S   S38       1.0  0.39673  0.06263  0.69987  1.0000
  S   S39       1.0  0.38963  0.07123  0.76573  1.0000
  Fe  Fe23      1.0  0.08034  0.07751  0.75550  1.0000
  S   S40       1.0  0.07029  0.01072  0.76103  1.0000
  S   S41       1.0  0.04493  0.12205  0.74043  1.0000
  Fe  Fe24      1.0  0.14594  0.06075  0.76252  1.0000
  H   H301      1.0  0.02133  0.44775  0.93269  1.0000
  S   S42       1.0  0.18927  0.09486  0.75923  1.0000
  Fe  Fe25      1.0  0.10833  0.99716  0.73462  1.0000
  H   H302      1.0  0.48644  0.14230  0.80795  1.0000
  Fe  Fe26      1.0  0.10196  0.01151  0.79567  1.0000
  H   H303      1.0  0.01039  0.40849  0.85494  1.0000
  S   S43       1.0  0.11653  0.06334  0.72640  1.0000
  S   S44       1.0  0.11018  0.07955  0.79142  1.0000
  C   C157      1.0  0.21572  0.17899  0.81769  1.0000
  C   C158      1.0  0.46015  0.33621  0.85730  1.0000
  C   C159      1.0  0.02760  0.01146  0.68247  1.0000
  H   H304      1.0  0.18127  0.09566  0.66131  1.0000
  Fe  Fe27      1.0  0.40912  0.27055  0.94496  1.0000
  S   S45       1.0  0.42515  0.22405  0.91359  1.0000
  S   S46       1.0  0.40119  0.33821  0.94147  1.0000
  Fe  Fe28      1.0  0.10822  0.42141  0.94119  1.0000
  S   S47       1.0  0.11261  0.35248  0.94167  1.0000
  H   H305      1.0  0.00182  0.12963  0.66770  1.0000
  H   H306      1.0  0.37697  0.11282  0.95136  1.0000
  H   H307      1.0  0.20287  0.42269  0.81091  1.0000
  H   H308      1.0  0.00441  0.39221  0.96194  1.0000
  H   H309      1.0  0.03640  0.36447  0.74043  1.0000
  H   H310      1.0  0.29849  0.21654  0.74409  1.0000
  H   H311      1.0  0.49986  0.00326  0.97271  1.0000
  Fe  Fe29      1.0  0.43497  0.34734  0.97369  1.0000
  H   H312      1.0  0.04424  0.42725  0.76678  1.0000
  H   H313      1.0  0.19752  0.17528  0.80329  1.0000
  H   H314      1.0  0.24730  0.17623  0.78647  1.0000
  H   H315      1.0  0.16916  0.10061  0.69549  1.0000
  C   C160      1.0  0.11168  0.44097  0.82794  1.0000
  Fe  Fe30      1.0  0.36927  0.32946  0.97568  1.0000
  C   C161      1.0  0.03224  0.03962  0.95051  1.0000
  C   C162      1.0  0.48827  0.98585  0.73377  1.0000
  H   H316      1.0  0.41645  0.31356  0.85123  1.0000
  C   C163      1.0  0.38266  0.14578  0.95125  1.0000
  C   C164      1.0  0.02330  0.00640  0.90719  1.0000
  C   C165      1.0  0.48538  0.10811  0.96627  1.0000
  C   C166      1.0  0.39689  0.19722  0.82628  1.0000
  C   C167      1.0  0.38417  0.22952  0.84077  1.0000
  C   C168      1.0  0.39212  0.23767  0.86761  1.0000
  C   C169      1.0  0.41328  0.21398  0.88022  1.0000
  C   C170      1.0  0.42594  0.18152  0.86580  1.0000
  C   C171      1.0  0.41776  0.17304  0.83901  1.0000
  H   H317      1.0  0.36805  0.24848  0.83114  1.0000
  H   H318      1.0  0.38209  0.26262  0.87843  1.0000
  H   H319      1.0  0.44222  0.16280  0.87539  1.0000
  H   H320      1.0  0.42769  0.14804  0.82818  1.0000
  C   C172      1.0  0.28234  0.05300  0.73861  1.0000
  C   C173      1.0  0.27423  0.09408  0.73676  1.0000
  C   C174      1.0  0.24562  0.10614  0.74270  1.0000
  C   C175      1.0  0.22463  0.07739  0.75053  1.0000
  C   C176      1.0  0.23269  0.03624  0.75221  1.0000
  C   C177      1.0  0.26125  0.02413  0.74604  1.0000
  H   H321      1.0  0.28996  0.11651  0.73042  1.0000
  H   H322      1.0  0.23967  0.13803  0.74114  1.0000
  H   H323      1.0  0.21708  0.01391  0.75886  1.0000
  H   H324      1.0  0.26720  0.99222  0.74749  1.0000
  H   H325      1.0  0.48602  0.21719  0.87526  1.0000
  H   H326      1.0  0.33614  0.21812  0.75405  1.0000
  H   H327      1.0  0.04900  0.01559  0.69222  1.0000
  H   H328      1.0  0.14736  0.07283  0.67154  1.0000
  H   H329      1.0  0.45075  0.04525  0.66468  1.0000
  C   C178      1.0  0.42857  0.33264  0.86584  1.0000
  C   C179      1.0  0.00753  0.99083  0.81810  1.0000
  H   H330      1.0  0.11023  0.40731  0.86544  1.0000
  H   H331      1.0  0.48877  0.12977  0.75057  1.0000
  C   C180      1.0  0.16986  0.07973  0.67787  1.0000
  H   H332      1.0  0.16321  0.99995  0.65916  1.0000
  H   H333      1.0  0.22468  0.43467  0.78192  1.0000
  C   C181      1.0  0.23621  0.98489  0.67178  1.0000
  H   H334      1.0  0.23822  0.12778  0.80128  1.0000
  H   H335      1.0  0.18602  0.38925  0.76858  1.0000
  C   C182      1.0  0.02171  0.15937  0.75555  1.0000
  H   H336      1.0  0.41848  0.36344  0.86642  1.0000
  H   H337      1.0  0.03808  0.33375  0.88444  1.0000
  N   N10       1.0  0.29751  0.14769  0.81534  1.0000
  C   C183      1.0  0.29487  0.10202  0.81196  1.0000
  C   C184      1.0  0.26901  0.16410  0.82537  1.0000
  C   C185      1.0  0.30547  0.16612  0.78861  1.0000
  C   C186      1.0  0.32071  0.15861  0.83544  1.0000
  C   C187      1.0  0.31925  0.13636  0.86289  1.0000
  C   C188      1.0  0.32288  0.07937  0.80353  1.0000
  C   C189      1.0  0.30585  0.21349  0.78740  1.0000
  C   C190      1.0  0.24307  0.16029  0.80569  1.0000
  C   C191      1.0  0.03130  0.24218  0.95982  1.0000
  C   C192      1.0  0.34345  0.15076  0.88156  1.0000
  C   C193      1.0  0.31897  0.03307  0.80509  1.0000
  C   C194      1.0  0.31396  0.22835  0.75931  1.0000
  H   H338      1.0  0.27876  0.09457  0.79611  1.0000
  H   H339      1.0  0.28621  0.08774  0.83055  1.0000
  H   H340      1.0  0.26248  0.14787  0.84401  1.0000
  H   H341      1.0  0.27109  0.19675  0.83139  1.0000
  H   H342      1.0  0.29087  0.15480  0.77255  1.0000
  H   H343      1.0  0.32740  0.15580  0.78244  1.0000
  H   H344      1.0  0.34254  0.15317  0.82687  1.0000
  H   H345      1.0  0.32019  0.19194  0.83989  1.0000
  H   H346      1.0  0.32176  0.10286  0.86039  1.0000
  H   H347      1.0  0.29842  0.14250  0.87310  1.0000
  H   H348      1.0  0.32832  0.08713  0.78244  1.0000
  H   H349      1.0  0.34156  0.08742  0.81641  1.0000
  H   H350      1.0  0.32200  0.22617  0.80161  1.0000
  H   H351      1.0  0.28438  0.22655  0.79228  1.0000
  H   H352      1.0  0.21881  0.21213  0.82163  1.0000
  H   H353      1.0  0.46038  0.34773  0.83639  1.0000
  C   C195      1.0  0.00233  0.19647  0.79414  1.0000
  C   C196      1.0  0.27823  0.31378  0.97754  1.0000
  H   H354      1.0  0.17882  0.43886  0.75423  1.0000
  H   H355      1.0  0.34169  0.18413  0.88542  1.0000
  H   H356      1.0  0.34195  0.13452  0.90107  1.0000
  H   H357      1.0  0.36491  0.14412  0.87258  1.0000
  H   H358      1.0  0.33864  0.01765  0.79728  1.0000
  H   H359      1.0  0.31552  0.02335  0.82620  1.0000
  H   H360      1.0  0.30030  0.02317  0.79268  1.0000
  H   H361      1.0  0.31353  0.26227  0.75878  1.0000
  H   H362      1.0  0.00358  0.17770  0.71749  1.0000
  H   H363      1.0  0.00713  0.05627  0.77436  1.0000
  S   S48       1.0  0.32638  0.36581  0.97494  1.0000
  H   H364      1.0  0.05714  0.09876  0.91469  1.0000
  H   H365      1.0  0.04516  0.15471  0.68003  1.0000
  H   H366      1.0  0.44177  0.14743  0.94081  1.0000
  S   S49       1.0  0.10111  0.46920  0.90780  1.0000
  H   H367      1.0  0.00219  0.20167  0.81559  1.0000
  N   N11       1.0  0.02858  0.04696  0.92081  1.0000
  H   H368      1.0  0.11418  0.41377  0.81579  1.0000
  H   H369      1.0  0.22497  0.45648  0.84350  1.0000
  H   H370      1.0  0.11083  0.09819  0.90612  1.0000
  H   H371      1.0  0.01179  0.27265  0.86388  1.0000
  S   S50       1.0  0.41692  0.17395  0.66491  1.0000
  H   H372      1.0  0.47040  0.35929  0.87062  1.0000
  H   H373      1.0  0.03469  0.14852  0.79640  1.0000
  H   H374      1.0  0.06607  0.27459  0.86726  1.0000
  C   C197      1.0  0.20347  0.43983  0.79173  1.0000
  S   S51       1.0  0.03925  0.31771  0.98597  1.0000
  H   H375      1.0  0.01075  0.02393  0.69586  1.0000
  H   H376      1.0  0.20985  0.16331  0.83669  1.0000
  H   H377      1.0  0.10001  0.00644  0.66397  1.0000
  H   H378      1.0  0.38785  0.15530  0.93040  1.0000
  H   H379      1.0  0.47198  0.09685  0.79217  1.0000
  S   S52       1.0  0.07529  0.42145  0.97455  1.0000
  C   C198      1.0  0.49417  0.43138  0.97110  1.0000
  C   C199      1.0  0.04020  0.07770  0.96760  1.0000
  H   H380      1.0  0.00819  0.33485  0.84503  1.0000
  H   H381      1.0  0.08921  0.04647  0.93729  1.0000
  C   C200      1.0  0.18749  0.46303  0.88333  1.0000
  C   C201      1.0  0.06128  0.13882  0.66723  1.0000
  C   C202      1.0  0.22788  0.33789  0.97431  1.0000
  C   C203      1.0  0.06368  0.27990  0.88919  1.0000
  H   H382      1.0  0.20777  0.04974  0.69191  1.0000
  H   H383      1.0  0.05098  0.24866  0.94898  1.0000
  S   S53       1.0  0.13955  0.99332  0.76937  1.0000
  H   H384      1.0  0.47842  0.07601  0.96250  1.0000
  H   H385      1.0  0.12999  0.05024  0.90631  1.0000
  C   C204      1.0  0.05524  0.06605  0.90873  1.0000
  C   C205      1.0  0.00329  0.18270  0.73896  1.0000
  C   C206      1.0  0.09119  0.14893  0.67842  1.0000
  H   H386      1.0  0.00931  0.10688  0.92417  1.0000
  H   H387      1.0  0.09294  0.13903  0.69968  1.0000
  H   H388      1.0  0.08398  0.01236  0.90954  1.0000
  H   H389      1.0  0.29337  0.28893  0.98030  1.0000
  C   C207      1.0  0.05579  0.09202  0.66731  1.0000
  H   H390      1.0  0.27520  0.05032  0.68200  1.0000
  C   C208      1.0  0.18043  0.42146  0.77334  1.0000
  C   C209      1.0  0.43594  0.13193  0.95990  1.0000
  Fe  Fe31      1.0  0.14792  0.36347  0.97281  1.0000
  H   H391      1.0  0.02238  0.10033  0.96727  1.0000
  H   H392      1.0  0.02740  0.00402  0.80917  1.0000
  C   C210      1.0  0.48412  0.27279  0.80064  1.0000
  H   H393      1.0  0.06001  0.09292  0.96019  1.0000
  H   H394      1.0  0.49168  0.42894  0.79566  1.0000
  S   S54       1.0  0.44397  0.27998  0.97564  1.0000
  H   H395      1.0  0.02673  0.43488  0.72102  1.0000
  H   H396      1.0  0.47750  0.28765  0.88179  1.0000
  H   H397      1.0  0.01175  0.04656  0.73924  1.0000
  H   H398      1.0  0.01101  0.09374  0.87459  1.0000
  H   H399      1.0  0.19202  0.43042  0.87870  1.0000
  H   H400      1.0  0.02348  0.18490  0.93934  1.0000
  C   C211      1.0  0.03611  0.30407  0.89501  1.0000
  C   C212      1.0  0.02085  0.16621  0.78330  1.0000
  H   H401      1.0  0.46125  0.27083  0.85168  1.0000
  C   C213      1.0  0.47597  0.29453  0.85988  1.0000
  H   H402      1.0  0.47142  0.19298  0.96552  1.0000
  H   H403      1.0  0.46162  0.27422  0.80816  1.0000
  H   H404      1.0  0.00975  0.25004  0.89600  1.0000
  H   H405      1.0  0.04110  0.98469  0.91184  1.0000
  C   C214      1.0  0.46372  0.07342  0.66174  1.0000
  H   H406      1.0  0.05349  0.06644  0.88642  1.0000
  H   H407      1.0  0.05669  0.08256  0.68875  1.0000
  H   H408      1.0  0.15910  0.42170  0.78348  1.0000
  H   H409      1.0  0.06336  0.25002  0.89975  1.0000
  C   C215      1.0  0.10935  0.06532  0.90068  1.0000
  C   C216      1.0  0.01561  0.20588  0.95445  1.0000
  H   H410      1.0  0.42691  0.31878  0.88614  1.0000
  C   C217      1.0  0.02132  0.37252  0.75695  1.0000
  C   C218      1.0  0.08435  0.04489  0.91550  1.0000
  H   H411      1.0  0.47570  0.31864  0.76977  1.0000
  H   H412      1.0  0.19820  0.97832  0.72148  1.0000
  H   H413      1.0  0.48108  0.12123  0.92299  1.0000
  H   H414      1.0  0.20414  0.47476  0.89744  1.0000
  C   C219      1.0  0.18580  0.04049  0.68555  1.0000
  C   C220      1.0  0.23827  0.37764  0.97050  1.0000
  H   H415      1.0  0.08275  0.29742  0.89635  1.0000
  C   C221      1.0  0.00356  0.07588  0.91669  1.0000
  H   H416      1.0  0.49176  0.24067  0.80088  1.0000
  C   C222      1.0  0.28863  0.35363  0.97419  1.0000
  C   C223      1.0  0.18604  0.00986  0.66178  1.0000
  C   C224      1.0  0.49144  0.11043  0.80178  1.0000
  S   S55       1.0  0.37515  0.26082  0.97696  1.0000
  H   H417      1.0  0.17420  0.02709  0.70288  1.0000
  S   S56       1.0  0.47704  0.38322  0.96463  1.0000
  H   H418      1.0  0.25568  0.46825  0.80852  1.0000
  H   H419      1.0  0.04863  0.01529  0.95421  1.0000
  C   C225      1.0  0.00304  0.09597  0.67073  1.0000
  H   H420      1.0  0.09472  0.18248  0.67773  1.0000
  H   H421      1.0  0.22318  0.40237  0.96729  1.0000
  C   C226      1.0  0.49900  0.21352  0.85664  1.0000
  H   H422      1.0  0.01181  0.02761  0.95923  1.0000
  H   H423      1.0  0.02395  0.00979  0.88495  1.0000
  C   C227      1.0  0.10944  0.43716  0.85616  1.0000
  S   S57       1.0  0.14503  0.43186  0.97009  1.0000
  H   H424      1.0  0.02832  0.35621  0.77541  1.0000
  C   C228      1.0  0.27990  0.03056  0.66440  1.0000
  H   H425      1.0  0.10646  0.06233  0.87859  1.0000
  H   H426      1.0  0.13836  0.98993  0.86112  1.0000
  H   H427      1.0  0.03544  0.31010  0.91692  1.0000
  C   C229      1.0  0.26835  0.38544  0.97073  1.0000
  H   H428      1.0  0.00690  0.09233  0.69271  1.0000
  C   C230      1.0  0.10569  0.47191  0.87221  1.0000
  N   N12       1.0  0.46110  0.13181  0.97925  1.0000
  H   H429      1.0  0.29415  0.00499  0.67081  1.0000
  C   C231      1.0  0.01074  0.44257  0.73700  1.0000
  H   H430      1.0  0.49628  0.20946  0.73378  1.0000
  C   C232      1.0  0.00897  0.28010  0.88556  1.0000
  H   H431      1.0  0.10834  0.13377  0.66641  1.0000
  H   H432      1.0  0.43014  0.09993  0.95435  1.0000
  H   H433      1.0  0.41189  0.18745  0.97039  1.0000
  S   S58       1.0  0.19009  0.32609  0.97527  1.0000
  H   H434      1.0  0.48985  0.22267  0.68522  1.0000
  H   H435      1.0  0.23709  0.99901  0.69204  1.0000
  H   H436      1.0  0.22632  0.98729  0.98157  1.0000
  H   H437      1.0  0.36361  0.16360  0.95813  1.0000
  H   H438      1.0  0.00533  0.00290  0.83880  1.0000
  H   H439      1.0  0.48394  0.20999  0.83952  1.0000
  H   H440      1.0  0.46849  0.26673  0.75968  1.0000
  H   H441      1.0  0.40189  0.14421  0.99044  1.0000
  H   H442      1.0  0.00934  0.46332  0.98136  1.0000
  C   C233      1.0  0.48344  0.28656  0.77131  1.0000
  C   C234      1.0  0.02157  0.41865  0.76199  1.0000
  Fe  Fe32      1.0  0.08157  0.35304  0.97687  1.0000
  C   C235      1.0  0.02144  0.27005  0.97913  1.0000
  H   H443      1.0  0.49666  0.09231  0.82000  1.0000
  H   H444      1.0  0.16615  0.46480  0.89344  1.0000
  H   H445      1.0  0.27603  0.41636  0.96798  1.0000
  C   C236      1.0  0.46953  0.17555  0.98464  1.0000
  C   C237      1.0  0.48341  0.45983  0.98957  1.0000
  C   C238      1.0  0.24813  0.30611  0.97779  1.0000
  H   H446      1.0  0.24049  0.27520  0.98069  1.0000
  C   C239      1.0  0.40822  0.15396  0.96996  1.0000
  H   H447      1.0  0.45408  0.09834  0.67397  1.0000
  C   C240      1.0  0.00236  0.46761  0.93738  1.0000
  H   H448      1.0  0.48600  0.06731  0.66892  1.0000
  H   H449      1.0  0.49968  0.14988  0.70408  1.0000
  H   H450      1.0  0.49941  0.33261  0.81328  1.0000
  C   C241      1.0  0.49717  0.12526  0.93934  1.0000
  S   S59       1.0  0.08395  0.97563  0.83184  1.0000
  Fe  Fe33      1.0  0.42625  0.57960  0.25503  1.0000
  S   S60       1.0  0.43868  0.64581  0.25902  1.0000
  S   S61       1.0  0.46096  0.53255  0.24222  1.0000
  Fe  Fe34      1.0  0.36159  0.60023  0.26168  1.0000
  S   S62       1.0  0.36986  0.66756  0.26656  1.0000
  S   S63       1.0  0.31742  0.56773  0.26185  1.0000
  Fe  Fe35      1.0  0.40113  0.66083  0.23220  1.0000
  S   S64       1.0  0.40653  0.71641  0.20474  1.0000
  Fe  Fe36      1.0  0.40709  0.64956  0.29330  1.0000
  C   C242      1.0  0.02401  0.72067  0.24483  1.0000
  S   S65       1.0  0.39058  0.59445  0.22534  1.0000
  S   S66       1.0  0.39695  0.58186  0.29122  1.0000
  Fe  Fe37      1.0  0.08150  0.62036  0.22060  1.0000
  S   S67       1.0  0.07032  0.55333  0.22155  1.0000
  S   S68       1.0  0.04622  0.66588  0.20648  1.0000
  Fe  Fe38      1.0  0.14582  0.60068  0.23136  1.0000
  S   S69       1.0  0.13827  0.53286  0.23266  1.0000
  S   S70       1.0  0.18919  0.63351  0.23731  1.0000
  Fe  Fe39      1.0  0.10975  0.54207  0.19620  1.0000
  H   H451      1.0  0.33111  0.96878  0.21667  1.0000
  Fe  Fe40      1.0  0.09940  0.54864  0.25786  1.0000
  H   H452      1.0  0.38283  0.79628  0.26162  1.0000
  S   S71       1.0  0.11982  0.60925  0.19318  1.0000
  S   S72       1.0  0.10815  0.61650  0.25864  1.0000
  C   C243      1.0  0.39938  0.77994  0.27366  1.0000
  C   C244      1.0  0.47130  0.81036  0.09051  1.0000
  Fe  Fe41      1.0  0.40802  0.76983  0.04582  1.0000
  S   S73       1.0  0.40836  0.71854  0.07680  1.0000
  S   S74       1.0  0.40248  0.83731  0.05121  1.0000
  Fe  Fe42      1.0  0.11909  0.89572  0.04862  1.0000
  S   S75       1.0  0.12252  0.82836  0.05653  1.0000
  S   S76       1.0  0.12418  0.94652  0.07997  1.0000
  C   C245      1.0  0.47426  0.96242  0.21598  1.0000
  C   C246      1.0  0.28584  0.80202  0.01793  1.0000
  H   H453      1.0  0.08538  0.78479  0.31580  1.0000
  H   H454      1.0  0.43230  0.78864  0.24416  1.0000
  H   H455      1.0  0.25345  0.75508  0.01272  1.0000
  H   H456      1.0  0.03829  0.73170  0.12288  1.0000
  H   H457      1.0  0.35544  0.68696  0.05137  1.0000
  S   S77       1.0  0.19810  0.79110  0.02459  1.0000
  C   C247      1.0  0.08093  0.93656  0.15138  1.0000
  C   C248      1.0  0.08994  0.92950  0.12468  1.0000
  H   H458      1.0  0.40938  0.96562  0.11879  1.0000
  C   C249      1.0  0.11071  0.51968  0.08385  1.0000
  C   C250      1.0  0.10988  0.52346  0.11214  1.0000
  H   H459      1.0  0.06189  0.92131  0.15879  1.0000
  H   H460      1.0  0.07798  0.90889  0.11186  1.0000
  H   H461      1.0  0.42413  0.93787  0.25755  1.0000
  H   H462      1.0  0.10923  0.55336  0.12140  1.0000
  C   C251      1.0  0.40573  0.71672  0.16916  1.0000
  C   C252      1.0  0.40205  0.68089  0.15427  1.0000
  C   C253      1.0  0.40223  0.68232  0.12600  1.0000
  C   C254      1.0  0.40598  0.71948  0.11232  1.0000
  C   C255      1.0  0.40883  0.75554  0.12720  1.0000
  C   C256      1.0  0.40894  0.75407  0.15549  1.0000
  H   H463      1.0  0.39940  0.65199  0.16453  1.0000
  H   H464      1.0  0.39988  0.65427  0.11466  1.0000
  H   H465      1.0  0.41126  0.78443  0.11697  1.0000
  H   H466      1.0  0.41177  0.78197  0.16685  1.0000
  C   C257      1.0  0.28208  0.58670  0.25422  1.0000
  C   C258      1.0  0.27621  0.62848  0.25161  1.0000
  C   C259      1.0  0.24773  0.64209  0.24644  1.0000
  C   C260      1.0  0.22470  0.61426  0.24365  1.0000
  C   C261      1.0  0.23056  0.57246  0.24616  1.0000
  C   C262      1.0  0.25903  0.55885  0.25139  1.0000
  H   H467      1.0  0.29356  0.65035  0.25383  1.0000
  H   H468      1.0  0.24352  0.67448  0.24462  1.0000
  H   H469      1.0  0.21321  0.55061  0.24389  1.0000
  H   H470      1.0  0.26327  0.52646  0.25301  1.0000
  C   C263      1.0  0.48900  0.95155  0.99770  1.0000
  H   H471      1.0  0.39512  0.78552  0.29532  1.0000
  H   H472      1.0  0.08820  0.79186  0.11271  1.0000
  C   C264      1.0  0.10970  0.48853  0.12834  1.0000
  H   H473      1.0  0.01667  0.53339  0.27532  1.0000
  C   C265      1.0  0.02340  0.70651  0.21828  1.0000
  H   H474      1.0  0.36359  0.92938  0.15005  1.0000
  C   C266      1.0  0.01999  0.48780  0.14018  1.0000
  H   H475      1.0  0.02241  0.60732  0.26485  1.0000
  C   C267      1.0  0.40930  0.93844  0.15883  1.0000
  H   H476      1.0  0.30548  0.94157  0.17626  1.0000
  H   H477      1.0  0.37779  0.79988  0.20442  1.0000
  C   C268      1.0  0.49066  0.74146  0.20450  1.0000
  S   S78       1.0  0.15407  0.89461  0.01722  1.0000
  C   C269      1.0  0.48712  0.82971  0.28583  1.0000
  H   H478      1.0  0.42291  0.96317  0.16747  1.0000
  H   H479      1.0  0.01994  0.92629  0.08094  1.0000
  H   H480      1.0  0.37210  0.92315  0.24847  1.0000
  H   H481      1.0  0.06133  0.91410  0.27698  1.0000
  C   C270      1.0  0.23156  0.52388  0.32243  1.0000
  H   H482      1.0  0.03829  0.89828  0.20531  1.0000
  S   S79       1.0  0.08393  0.50578  0.29148  1.0000
  H   H483      1.0  0.03858  0.70665  0.25910  1.0000
  H   H484      1.0  0.43023  0.82824  0.26928  1.0000
  C   C271      1.0  0.23924  0.85230  0.03250  1.0000
  C   C272      1.0  0.48681  0.72220  0.10703  1.0000
  H   H485      1.0  0.34211  0.89956  0.21658  1.0000
  S   S80       1.0  0.08380  0.88958  0.01754  1.0000
  Fe  Fe43      1.0  0.08878  0.82107  0.02386  1.0000
  S   S81       1.0  0.11310  0.94369  0.32481  1.0000
  H   H486      1.0  0.05010  0.84389  0.11851  1.0000
  H   H487      1.0  0.45991  0.65954  0.13716  1.0000
  C   C273      1.0  0.26770  0.86780  0.03199  1.0000
  H   H488      1.0  0.44110  0.86126  0.09250  1.0000
  C   C274      1.0  0.29120  0.84293  0.02454  1.0000
  H   H489      1.0  0.45412  0.78685  0.09098  1.0000
  H   H490      1.0  0.00650  0.51054  0.06395  1.0000
  H   H491      1.0  0.09450  0.89056  0.22391  1.0000
  C   C275      1.0  0.01666  0.47748  0.23786  1.0000
  H   H492      1.0  0.02324  0.66844  0.12075  1.0000
  H   H493      1.0  0.05277  0.53665  0.04651  1.0000
  H   H494      1.0  0.16692  0.64543  0.31857  1.0000
  H   H495      1.0  0.30356  0.78257  0.01182  1.0000
  C   C276      1.0  0.48341  0.49390  0.25672  1.0000
  H   H496      1.0  0.41638  0.90926  0.16787  1.0000
  H   H497      1.0  0.10901  0.91771  0.26743  1.0000
  H   H498      1.0  0.05579  0.92604  0.24291  1.0000
  N   N13       1.0  0.06386  0.86167  0.25054  1.0000
  C   C277      1.0  0.09432  0.86846  0.24091  1.0000
  C   C278      1.0  0.04685  0.84164  0.22830  1.0000
  C   C279      1.0  0.06308  0.83409  0.27482  1.0000
  C   C280      1.0  0.08051  0.79362  0.27261  1.0000
  C   C281      1.0  0.11552  0.88614  0.26204  1.0000
  C   C282      1.0  0.04458  0.86608  0.20175  1.0000
  H   H499      1.0  0.05412  0.75980  0.30125  1.0000
  C   C283      1.0  0.07716  0.76787  0.29800  1.0000
  C   C284      1.0  0.14624  0.88790  0.25094  1.0000
  H   H500      1.0  0.04344  0.81287  0.08929  1.0000
  H   H501      1.0  0.10352  0.83973  0.23250  1.0000
  H   H502      1.0  0.05640  0.81165  0.22279  1.0000
  H   H503      1.0  0.07078  0.85058  0.29307  1.0000
  H   H504      1.0  0.04038  0.82541  0.27946  1.0000
  H   H505      1.0  0.10390  0.79963  0.26999  1.0000
  H   H506      1.0  0.07304  0.77481  0.25544  1.0000
  H   H507      1.0  0.11609  0.86769  0.28068  1.0000
  H   H508      1.0  0.47903  0.80585  0.23611  1.0000
  H   H509      1.0  0.06572  0.86576  0.19125  1.0000
  H   H510      1.0  0.01460  0.59480  0.12499  1.0000
  H   H511      1.0  0.47450  0.73387  0.12469  1.0000
  C   C285      1.0  0.06715  0.78236  0.12125  1.0000
  C   C286      1.0  0.19085  0.64335  0.31757  1.0000
  C   C287      1.0  0.45818  0.64762  0.99958  1.0000
  H   H512      1.0  0.21474  0.89641  0.99217  1.0000
  H   H513      1.0  0.16081  0.90161  0.26625  1.0000
  H   H514      1.0  0.15420  0.85671  0.24613  1.0000
  H   H515      1.0  0.14699  0.90713  0.23257  1.0000
  C   C288      1.0  0.02078  0.68119  0.99405  1.0000
  Fe  Fe44      1.0  0.37019  0.83311  0.01732  1.0000
  H   H516      1.0  0.04510  0.64648  0.14688  1.0000
  S   S82       1.0  0.44400  0.77670  0.01593  1.0000
  N   N14       1.0  0.29798  0.74528  0.10518  1.0000
  C   C289      1.0  0.31487  0.71427  0.08905  1.0000
  C   C290      1.0  0.29852  0.73415  0.13478  1.0000
  C   C291      1.0  0.26693  0.74383  0.09566  1.0000
  C   C292      1.0  0.30890  0.78819  0.10083  1.0000
  C   C293      1.0  0.34107  0.79589  0.10742  1.0000
  C   C294      1.0  0.31528  0.72046  0.05818  1.0000
  C   C295      1.0  0.24503  0.77051  0.11162  1.0000
  C   C296      1.0  0.32564  0.71138  0.14567  1.0000
  C   C297      1.0  0.32508  0.70833  0.17632  1.0000
  C   C298      1.0  0.34912  0.84049  0.10226  1.0000
  C   C299      1.0  0.33265  0.68669  0.04439  1.0000
  C   C300      1.0  0.21409  0.76251  0.10219  1.0000
  H   H517      1.0  0.30621  0.68306  0.09298  1.0000
  H   H518      1.0  0.33788  0.71329  0.09539  1.0000
  H   H519      1.0  0.29506  0.76188  0.14739  1.0000
  H   H520      1.0  0.28022  0.71327  0.13970  1.0000
  H   H521      1.0  0.25897  0.71166  0.09581  1.0000
  H   H522      1.0  0.26508  0.75456  0.07453  1.0000
  H   H523      1.0  0.30493  0.79812  0.07973  1.0000
  H   H524      1.0  0.29651  0.81011  0.11341  1.0000
  H   H525      1.0  0.35533  0.77651  0.09483  1.0000
  H   H526      1.0  0.34540  0.79010  0.12895  1.0000
  H   H527      1.0  0.29327  0.71927  0.04946  1.0000
  H   H528      1.0  0.32533  0.75019  0.05307  1.0000
  H   H529      1.0  0.24943  0.80348  0.10838  1.0000
  H   H530      1.0  0.24583  0.76429  0.13349  1.0000
  H   H531      1.0  0.32627  0.67969  0.13762  1.0000
  H   H532      1.0  0.34602  0.72650  0.13990  1.0000
  H   H533      1.0  0.34392  0.69020  0.18338  1.0000
  H   H534      1.0  0.32641  0.73918  0.18555  1.0000
  H   H535      1.0  0.30510  0.69281  0.18324  1.0000
  H   H536      1.0  0.34516  0.84859  0.08089  1.0000
  H   H537      1.0  0.33627  0.86123  0.11527  1.0000
  H   H538      1.0  0.37238  0.84516  0.10677  1.0000
  H   H539      1.0  0.02793  0.81485  0.17828  1.0000
  H   H540      1.0  0.49650  0.58075  0.18483  1.0000
  H   H541      1.0  0.20793  0.73019  0.10586  1.0000
  H   H542      1.0  0.19891  0.78262  0.11333  1.0000
  H   H543      1.0  0.21189  0.76927  0.08044  1.0000
  N   N15       1.0  0.08112  0.70567  0.12016  1.0000
  C   C301      1.0  0.10981  0.71268  0.10646  1.0000
  C   C302      1.0  0.08513  0.70332  0.15036  1.0000
  C   C303      1.0  0.06961  0.66494  0.11048  1.0000
  H   H544      1.0  0.45894  0.64768  0.10156  1.0000
  H   H545      1.0  0.04657  0.51123  0.01479  1.0000
  C   C304      1.0  0.10931  0.71526  0.07532  1.0000
  C   C305      1.0  0.04214  0.64850  0.12483  1.0000
  C   C306      1.0  0.10965  0.72946  0.16315  1.0000
  C   C307      1.0  0.10677  0.73163  0.19371  1.0000
  H   H546      1.0  0.48422  0.66035  0.30681  1.0000
  C   C308      1.0  0.13984  0.72089  0.06417  1.0000
  S   S83       1.0  0.08200  0.97426  0.20097  1.0000
  H   H547      1.0  0.12519  0.68790  0.11222  1.0000
  H   H548      1.0  0.12003  0.74147  0.11332  1.0000
  H   H549      1.0  0.06449  0.71110  0.16067  1.0000
  H   H550      1.0  0.09018  0.67141  0.15667  1.0000
  H   H551      1.0  0.08671  0.64103  0.11237  1.0000
  H   H552      1.0  0.06379  0.66642  0.08881  1.0000
  H   H553      1.0  0.23372  0.53993  0.30279  1.0000
  H   H554      1.0  0.47725  0.90179  0.19869  1.0000
  C   C309      1.0  0.49539  0.63410  0.31641  1.0000
  H   H555      1.0  0.47572  0.66678  0.00811  1.0000
  H   H556      1.0  0.10053  0.68708  0.06606  1.0000
  H   H557      1.0  0.09612  0.74167  0.06859  1.0000
  C   C310      1.0  0.40732  0.96173  0.26043  1.0000
  H   H558      1.0  0.17172  0.49835  0.01191  1.0000
  H   H559      1.0  0.13095  0.71540  0.15850  1.0000
  H   H560      1.0  0.11001  0.76119  0.15556  1.0000
  H   H561      1.0  0.08600  0.74629  0.19944  1.0000
  H   H562      1.0  0.10771  0.70055  0.20259  1.0000
  H   H563      1.0  0.12478  0.74993  0.20225  1.0000
  C   C311      1.0  0.04436  0.81268  0.11154  1.0000
  C   C312      1.0  0.01781  0.90284  0.26319  1.0000
  H   H564      1.0  0.02274  0.80474  0.11965  1.0000
  H   H565      1.0  0.15339  0.69371  0.06867  1.0000
  H   H566      1.0  0.13883  0.72480  0.04202  1.0000
  H   H567      1.0  0.15029  0.74844  0.07288  1.0000
  H   H568      1.0  0.47565  0.76349  0.19478  1.0000
  C   C313      1.0  0.05930  0.73816  0.11298  1.0000
  H   H569      1.0  0.06775  0.78498  0.14345  1.0000
  H   H570      1.0  0.01652  0.96128  0.14737  1.0000
  H   H571      1.0  0.03783  0.50191  0.15193  1.0000
  H   H572      1.0  0.49285  0.75726  0.05739  1.0000
  H   H573      1.0  0.47634  0.85024  0.27105  1.0000
  C   C314      1.0  0.35411  0.90084  0.19723  1.0000
  C   C315      1.0  0.37613  0.86522  0.19684  1.0000
  H   H574      1.0  0.18880  0.56763  0.30038  1.0000
  S   S84       1.0  0.32640  0.86496  0.02283  1.0000
  C   C316      1.0  0.48244  0.48357  0.28397  1.0000
  S   S85       1.0  0.47756  0.88289  0.02984  1.0000
  C   C317      1.0  0.36148  0.82477  0.20393  1.0000
  H   H575      1.0  0.46275  0.72971  0.23757  1.0000
  H   H576      1.0  0.48153  0.61846  0.12395  1.0000
  H   H577      1.0  0.05445  0.73761  0.09106  1.0000
  H   H578      1.0  0.45312  0.84326  0.12476  1.0000
  C   C318      1.0  0.49907  0.79541  0.10484  1.0000
  H   H579      1.0  0.47687  0.87350  0.10372  1.0000
  H   H580      1.0  0.39740  0.74676  0.26952  1.0000
  H   H581      1.0  0.33778  0.89324  0.18162  1.0000
  H   H582      1.0  0.39380  0.86996  0.21157  1.0000
  H   H583      1.0  0.38529  0.86149  0.17643  1.0000
  C   C319      1.0  0.48807  0.92449  0.21088  1.0000
  H   H584      1.0  0.00643  0.76364  0.27356  1.0000
  S   S86       1.0  0.37409  0.76539  0.01376  1.0000
  H   H585      1.0  0.11061  0.54694  0.07158  1.0000
  H   H586      1.0  0.45330  0.96880  0.20754  1.0000
  C   C320      1.0  0.48533  0.73996  0.23472  1.0000
  S   S87       1.0  0.04806  0.78368  0.03502  1.0000
  C   C321      1.0  0.49999  0.75896  0.32395  1.0000
  C   C322      1.0  0.05093  0.90242  0.25828  1.0000
  H   H587      1.0  0.35121  0.82652  0.22405  1.0000
  H   H588      1.0  0.34485  0.81682  0.18869  1.0000
  H   H589      1.0  0.45143  0.62520  0.01508  1.0000
  C   C323      1.0  0.27683  0.48210  0.31322  1.0000
  C   C324      1.0  0.45995  0.84941  0.10377  1.0000
  C   C325      1.0  0.42949  0.79474  0.26593  1.0000
  C   C326      1.0  0.03451  0.60561  0.11479  1.0000
  H   H590      1.0  0.01014  0.87370  0.08539  1.0000
  C   C327      1.0  0.11158  0.48106  0.07132  1.0000
  H   H591      1.0  0.47600  0.81770  0.06923  1.0000
  H   H592      1.0  0.27149  0.89946  0.03722  1.0000
  N   N16       1.0  0.36594  0.94325  0.19267  1.0000
  H   H593      1.0  0.40380  0.91081  0.11922  1.0000
  C   C328      1.0  0.17445  0.49178  0.29306  1.0000
  H   H594      1.0  0.43932  0.66737  0.99470  1.0000
  H   H595      1.0  0.15812  0.51582  0.28878  1.0000
  H   H596      1.0  0.00316  0.71466  0.17961  1.0000
  C   C329      1.0  0.11377  0.95046  0.11432  1.0000
  H   H597      1.0  0.32308  0.65625  0.04858  1.0000
  C   C330      1.0  0.02905  0.73871  0.02445  1.0000
  C   C331      1.0  0.21652  0.96148  0.99278  1.0000
  H   H598      1.0  0.45039  0.73910  0.27999  1.0000
  H   H599      1.0  0.19758  0.64134  0.29622  1.0000
  C   C332      1.0  0.23377  0.81174  0.02520  1.0000
  H   H600      1.0  0.05224  0.58375  0.11939  1.0000
  H   H601      1.0  0.04446  0.48914  0.10385  1.0000
  H   H602      1.0  0.47015  0.71822  0.09107  1.0000
  Fe  Fe45      1.0  0.15553  0.82716  0.02319  1.0000
  H   H603      1.0  0.44745  0.77786  0.30431  1.0000
  C   C333      1.0  0.47297  0.64949  0.11967  1.0000
  H   H604      1.0  0.20725  0.52012  0.01714  1.0000
  S   S88       1.0  0.11165  0.47837  0.03549  1.0000
  C   C334      1.0  0.03587  0.52552  0.03242  1.0000
  H   H605      1.0  0.46728  0.49901  0.29704  1.0000
  H   H606      1.0  0.48076  0.60719  0.31604  1.0000
  C   C335      1.0  0.49087  0.78229  0.24794  1.0000
  C   C336      1.0  0.38947  0.95397  0.21251  1.0000
  H   H607      1.0  0.01050  0.86176  0.01771  1.0000
  N   N17       1.0  0.48366  0.78559  0.27741  1.0000
  C   C337      1.0  0.18188  0.49201  0.32343  1.0000
  C   C338      1.0  0.49530  0.92982  0.02120  1.0000
  H   H608      1.0  0.03814  0.88741  0.06167  1.0000
  H   H609      1.0  0.40829  0.93330  0.21039  1.0000
  H   H610      1.0  0.33248  0.69160  0.02231  1.0000
  H   H611      1.0  0.08972  0.73911  0.29588  1.0000
  H   H612      1.0  0.22150  0.87189  0.03840  1.0000
  C   C339      1.0  0.45297  0.77265  0.28280  1.0000
  H   H613      1.0  0.00661  0.56134  0.22795  1.0000
  Fe  Fe46      1.0  0.43671  0.84501  0.01916  1.0000
  H   H614      1.0  0.01728  0.49750  0.21985  1.0000
  C   C340      1.0  0.38102  0.95330  0.24264  1.0000
  C   C341      1.0  0.18770  0.56618  0.32273  1.0000
  C   C342      1.0  0.02223  0.84710  0.18287  1.0000
  H   H615      1.0  0.48683  0.71079  0.19561  1.0000
  H   H616      1.0  0.28223  0.50258  0.29618  1.0000
  C   C343      1.0  0.31650  0.97162  0.17581  1.0000
  H   H617      1.0  0.40072  0.96182  0.28187  1.0000
  H   H618      1.0  0.01830  0.95172  0.29307  1.0000
  H   H619      1.0  0.02474  0.83432  0.23531  1.0000
  C   C344      1.0  0.25733  0.78657  0.01830  1.0000
  C   C345      1.0  0.03729  0.71555  0.00207  1.0000
  H   H620      1.0  0.02145  0.86459  0.16379  1.0000
  H   H621      1.0  0.02295  0.55216  0.02548  1.0000
  C   C346      1.0  0.41567  0.93654  0.12874  1.0000
  H   H622      1.0  0.49913  0.63253  0.22129  1.0000
  H   H623      1.0  0.43918  0.93175  0.12557  1.0000
  C   C347      1.0  0.37690  0.94801  0.16416  1.0000
  C   C348      1.0  0.19506  0.49514  0.00714  1.0000
  H   H624      1.0  0.49021  0.51790  0.00935  1.0000
  H   H625      1.0  0.03711  0.48402  0.24889  1.0000
  C   C349      1.0  0.00566  0.75305  0.25299  1.0000
  H   H626      1.0  0.01145  0.87948  0.27817  1.0000
  H   H627      1.0  0.47579  0.83582  0.30513  1.0000
  C   C350      1.0  0.24416  0.48047  0.31765  1.0000
  C   C351      1.0  0.00776  0.94446  0.27357  1.0000
  H   H628      1.0  0.00834  0.58069  0.31738  1.0000
  C   C352      1.0  0.34147  0.97330  0.19673  1.0000
  H   H629      1.0  0.19269  0.96562  0.99348  1.0000
  H   H630      1.0  0.22488  0.96200  0.01371  1.0000
  H   H631      1.0  0.03047  0.60583  0.09278  1.0000
  H   H632      1.0  0.01301  0.96870  0.25878  1.0000
  C   C353      1.0  0.01706  0.89674  0.07039  1.0000
  C   C354      1.0  0.01614  0.49480  0.04641  1.0000
  H   H633      1.0  0.49471  0.79805  0.12673  1.0000
  S   S89       1.0  0.10798  0.49100  0.16417  1.0000
  C   C355      1.0  0.09590  0.96396  0.16826  1.0000
  H   H634      1.0  0.19385  0.49790  0.28063  1.0000
  C   C356      1.0  0.00403  0.72528  0.20018  1.0000
  H   H635      1.0  0.02150  0.48283  0.30538  1.0000
  H   H636      1.0  0.00586  0.89673  0.24425  1.0000
  H   H637      1.0  0.00483  0.51238  0.13390  1.0000
  C   C357      1.0  0.00428  0.72652  0.03883  1.0000
  C   C358      1.0  0.49882  0.49629  0.99497  1.0000
  H   H638      1.0  0.00041  0.84804  0.19218  1.0000
  C   C359      1.0  0.49796  0.67908  0.11514  1.0000
  H   H639      1.0  0.50004  0.71650  0.24322  1.0000
  S   S90       1.0  0.42326  0.69471  0.32527  1.0000
  Fe  Fe47      1.0  0.43244  0.83594  0.51052  1.0000
  S   S91       1.0  0.47381  0.87463  0.50277  1.0000
  Fe  Fe48      1.0  0.36657  0.81959  0.51676  1.0000
  S   S92       1.0  0.32225  0.85142  0.52236  1.0000
  Fe  Fe49      1.0  0.40358  0.76100  0.48250  1.0000
  S   S93       1.0  0.40410  0.70836  0.45200  1.0000
  S   S94       1.0  0.39561  0.82907  0.48050  1.0000
  Fe  Fe50      1.0  0.10419  0.88154  0.48460  1.0000
  S   S95       1.0  0.11093  0.81339  0.48291  1.0000
  S   S96       1.0  0.09868  0.93122  0.45251  1.0000
  Fe  Fe51      1.0  0.07867  0.80795  0.51690  1.0000
  S   S97       1.0  0.03546  0.77185  0.51950  1.0000
  S   S98       1.0  0.13915  0.89249  0.51516  1.0000
  S   S99       1.0  0.06993  0.87591  0.51634  1.0000
  C   C360      1.0  0.28551  0.83426  0.51980  1.0000
  C   C361      1.0  0.26293  0.86092  0.52734  1.0000
  C   C362      1.0  0.23356  0.84922  0.52497  1.0000
  H   H640      1.0  0.26823  0.89087  0.53511  1.0000
  H   H641      1.0  0.21664  0.87005  0.53109  1.0000
  C   C363      1.0  0.11085  0.90255  0.37310  1.0000
  H   H642      1.0  0.17462  0.77138  0.43933  1.0000
  H   H643      1.0  0.44316  0.49926  0.48185  1.0000
  C   C364      1.0  0.10284  0.93357  0.41697  1.0000
  N   N18       1.0  0.21736  0.88707  0.44206  1.0000
  H   H644      1.0  0.35488  0.57839  0.46664  1.0000
  H   H645      1.0  0.15530  0.53387  0.59254  1.0000
  C   C365      1.0  0.20092  0.90654  0.46494  1.0000
  H   H646      1.0  0.31348  0.83869  0.42903  1.0000
  H   H647      1.0  0.04538  0.84962  0.62082  1.0000
  C   C366      1.0  0.41547  0.69896  0.36013  1.0000
  C   C367      1.0  0.40463  0.66619  0.37499  1.0000
  C   C368      1.0  0.40079  0.67001  0.40298  1.0000
  C   C369      1.0  0.40733  0.70675  0.41643  1.0000
  C   C370      1.0  0.41766  0.73984  0.40150  1.0000
  C   C371      1.0  0.42192  0.73580  0.37354  1.0000
  H   H648      1.0  0.16430  0.56754  0.32789  1.0000
  H   H649      1.0  0.39264  0.64429  0.41424  1.0000
  H   H650      1.0  0.42291  0.76820  0.41156  1.0000
  H   H651      1.0  0.43041  0.76130  0.36225  1.0000
  H   H652      1.0  0.26391  0.64316  0.64597  1.0000
  H   H653      1.0  0.17801  0.53451  0.37027  1.0000
  C   C372      1.0  0.20041  0.52806  0.36315  1.0000
  C   C373      1.0  0.10789  0.89886  0.40123  1.0000
  H   H654      1.0  0.49984  0.64219  0.33769  1.0000
  C   C374      1.0  0.10872  0.94086  0.36032  1.0000
  C   C375      1.0  0.03434  0.68701  0.50928  1.0000
  C   C376      1.0  0.01874  0.72257  0.51536  1.0000
  H   H655      1.0  0.21276  0.49873  0.64653  1.0000
  H   H656      1.0  0.05745  0.68888  0.50633  1.0000
  S   S100      1.0  0.44169  0.76810  0.51000  1.0000
  S   S101      1.0  0.37242  0.75150  0.51669  1.0000
  Fe  Fe52      1.0  0.41024  0.76243  0.54410  1.0000
  S   S102      1.0  0.42092  0.71275  0.57483  1.0000
  S   S103      1.0  0.40310  0.83056  0.54677  1.0000
  Fe  Fe53      1.0  0.10524  0.88263  0.54692  1.0000
  S   S104      1.0  0.11276  0.81451  0.54952  1.0000
  S   S105      1.0  0.09707  0.93363  0.57764  1.0000
  Fe  Fe54      1.0  0.14474  0.82445  0.51538  1.0000
  S   S106      1.0  0.18953  0.79426  0.51034  1.0000
  C   C377      1.0  0.22623  0.81071  0.51467  1.0000
  C   C378      1.0  0.24880  0.78410  0.50717  1.0000
  C   C379      1.0  0.27815  0.79562  0.50979  1.0000
  H   H657      1.0  0.24357  0.75421  0.49925  1.0000
  H   H658      1.0  0.29508  0.77472  0.50381  1.0000
  H   H659      1.0  0.12462  0.57770  0.55075  1.0000
  C   C380      1.0  0.21521  0.50298  0.62451  1.0000
  C   C381      1.0  0.10494  0.90051  0.62861  1.0000
  C   C382      1.0  0.10061  0.93556  0.61311  1.0000
  H   H660      1.0  0.19850  0.51071  0.49793  1.0000
  C   C383      1.0  0.10835  0.49065  0.38114  1.0000
  H   H661      1.0  0.49975  0.59406  0.61902  1.0000
  H   H662      1.0  0.10665  0.87100  0.61893  1.0000
  H   H663      1.0  0.01358  0.92544  0.34822  1.0000
  H   H664      1.0  0.48689  0.91708  0.63060  1.0000
  C   C384      1.0  0.49144  0.67316  0.51641  1.0000
  H   H665      1.0  0.40796  0.51688  0.49186  1.0000
  C   C385      1.0  0.42114  0.68087  0.62577  1.0000
  C   C386      1.0  0.41708  0.71620  0.61013  1.0000
  C   C387      1.0  0.41101  0.75323  0.62294  1.0000
  H   H666      1.0  0.02714  0.95764  0.39081  1.0000
  H   H667      1.0  0.12031  0.63273  0.55032  1.0000
  H   H668      1.0  0.42555  0.65206  0.61593  1.0000
  H   H669      1.0  0.40775  0.78057  0.61111  1.0000
  H   H670      1.0  0.02366  0.59686  0.62953  1.0000
  H   H671      1.0  0.02724  0.57122  0.55530  1.0000
  H   H672      1.0  0.16771  0.96425  0.37541  1.0000
  C   C388      1.0  0.02003  0.64881  0.50710  1.0000
  H   H673      1.0  0.46646  0.55049  0.51223  1.0000
  H   H674      1.0  0.23345  0.94816  0.48241  1.0000
  H   H675      1.0  0.02666  0.90273  0.39381  1.0000
  H   H676      1.0  0.16118  0.90114  0.59213  1.0000
  H   H677      1.0  0.12361  0.55278  0.37869  1.0000
  C   C389      1.0  0.05541  0.54878  0.43213  1.0000
  C   C390      1.0  0.06868  0.54510  0.46018  1.0000
  H   H678      1.0  0.04452  0.96790  0.48223  1.0000
  C   C391      1.0  0.43085  0.51420  0.49822  1.0000
  H   H679      1.0  0.24957  0.86752  0.47090  1.0000
  C   C392      1.0  0.01052  0.66161  0.60233  1.0000
  H   H680      1.0  0.03330  0.57177  0.38770  1.0000
  H   H681      1.0  0.02373  0.64128  0.56276  1.0000
  C   C393      1.0  0.33722  0.72167  0.64458  1.0000
  C   C394      1.0  0.01295  0.93040  0.39171  1.0000
  H   H682      1.0  0.23412  0.49128  0.53214  1.0000
  N   N19       1.0  0.20089  0.52673  0.33281  1.0000
  H   H683      1.0  0.48471  0.85868  0.58888  1.0000
  H   H684      1.0  0.49083  0.60780  0.51858  1.0000
  H   H685      1.0  0.01413  0.72164  0.58327  1.0000
  C   C395      1.0  0.12461  0.49361  0.57333  1.0000
  C   C396      1.0  0.11168  0.60336  0.54248  1.0000
  H   H686      1.0  0.25878  0.91315  0.45354  1.0000
  C   C397      1.0  0.06039  0.79226  0.60531  1.0000
  H   H687      1.0  0.07324  0.55323  0.41749  1.0000
  C   C398      1.0  0.03332  0.64224  0.58327  1.0000
  H   H688      1.0  0.08175  0.57273  0.46465  1.0000
  H   H689      1.0  0.05146  0.54252  0.47562  1.0000
  H   H690      1.0  0.07213  0.56982  0.54043  1.0000
  H   H691      1.0  0.41871  0.49795  0.53920  1.0000
  H   H692      1.0  0.47015  0.88237  0.44425  1.0000
  H   H693      1.0  0.48598  0.56640  0.47011  1.0000
  C   C399      1.0  0.20578  0.84464  0.43648  1.0000
  H   H694      1.0  0.03303  0.90649  0.47002  1.0000
  N   N20       1.0  0.00362  0.93746  0.44301  1.0000
  H   H695      1.0  0.21207  0.83456  0.41592  1.0000
  H   H696      1.0  0.49674  0.85201  0.62264  1.0000
  H   H697      1.0  0.21407  0.55346  0.37081  1.0000
  N   N21       1.0  0.44392  0.58794  0.48321  1.0000
  C   C400      1.0  0.46435  0.57378  0.46152  1.0000
  C   C401      1.0  0.44395  0.55654  0.50539  1.0000
  C   C402      1.0  0.41424  0.59306  0.47113  1.0000
  C   C403      1.0  0.45319  0.62850  0.49487  1.0000
  N   N22       1.0  0.01634  0.51348  0.40166  1.0000
  C   C404      1.0  0.46829  0.60347  0.43757  1.0000
  C   C405      1.0  0.38970  0.60375  0.49115  1.0000
  C   C406      1.0  0.01731  0.90708  0.58303  1.0000
  C   C407      1.0  0.16362  0.79652  0.42831  1.0000
  H   H698      1.0  0.30851  0.88612  0.44692  1.0000
  H   H699      1.0  0.19766  0.88756  0.60112  1.0000
  C   C408      1.0  0.36073  0.60765  0.47658  1.0000
  H   H700      1.0  0.45670  0.54461  0.45255  1.0000
  H   H701      1.0  0.47465  0.65726  0.58675  1.0000
  C   C409      1.0  0.02767  0.56700  0.57749  1.0000
  H   H702      1.0  0.43252  0.56843  0.52345  1.0000
  H   H703      1.0  0.40791  0.56537  0.45953  1.0000
  H   H704      1.0  0.41438  0.61827  0.45617  1.0000
  H   H705      1.0  0.44863  0.65394  0.48061  1.0000
  H   H706      1.0  0.44006  0.63596  0.51294  1.0000
  H   H707      1.0  0.21805  0.52030  0.41655  1.0000
  H   H708      1.0  0.46945  0.78562  0.62187  1.0000
  H   H709      1.0  0.44812  0.60520  0.42552  1.0000
  H   H710      1.0  0.23789  0.51196  0.62031  1.0000
  H   H711      1.0  0.39395  0.63349  0.50115  1.0000
  H   H712      1.0  0.38732  0.57993  0.50680  1.0000
  C   C410      1.0  0.00095  0.94848  0.58181  1.0000
  C   C411      1.0  0.02818  0.54089  0.37992  1.0000
  H   H713      1.0  0.23046  0.48338  0.57482  1.0000
  H   H714      1.0  0.49662  0.79023  0.33183  1.0000
  H   H715      1.0  0.11109  0.56159  0.33037  1.0000
  H   H716      1.0  0.45438  0.86951  0.41229  1.0000
  H   H717      1.0  0.34831  0.76965  0.61634  1.0000
  H   H718      1.0  0.48170  0.72030  0.38658  1.0000
  C   C412      1.0  0.18671  0.92509  0.40586  1.0000
  H   H719      1.0  0.19618  0.61126  0.35461  1.0000
  C   C413      1.0  0.03793  0.50985  0.42437  1.0000
  H   H720      1.0  0.36172  0.63234  0.46128  1.0000
  C   C414      1.0  0.12229  0.51585  0.62051  1.0000
  H   H721      1.0  0.34356  0.61560  0.49125  1.0000
  H   H722      1.0  0.15977  0.86182  0.42980  1.0000
  H   H723      1.0  0.48428  0.80882  0.40833  1.0000
  H   H724      1.0  0.06789  0.65202  0.62862  1.0000
  H   H725      1.0  0.03272  0.90961  0.60003  1.0000
  H   H726      1.0  0.39965  0.63767  0.36499  1.0000
  H   H727      1.0  0.04238  0.57702  0.43192  1.0000
  H   H728      1.0  0.26084  0.82672  0.42854  1.0000
  H   H729      1.0  0.04675  0.77381  0.61906  1.0000
  C   C415      1.0  0.10703  0.53276  0.34026  1.0000
  C   C416      1.0  0.47787  0.78008  0.60132  1.0000
  C   C417      1.0  0.00843  0.54767  0.35513  1.0000
  C   C418      1.0  0.48529  0.63164  0.50362  1.0000
  H   H730      1.0  0.20022  0.67169  0.32623  1.0000
  C   C419      1.0  0.24851  0.88270  0.45090  1.0000
  N   N23       1.0  0.04499  0.60052  0.59080  1.0000
  C   C420      1.0  0.04547  0.59326  0.62073  1.0000
  H   H731      1.0  0.16191  0.95926  0.62342  1.0000
  C   C421      1.0  0.07574  0.59677  0.58085  1.0000
  H   H732      1.0  0.19226  0.94762  0.51381  1.0000
  H   H733      1.0  0.22955  0.94148  0.42016  1.0000
  H   H734      1.0  0.35430  0.70147  0.63631  1.0000
  C   C422      1.0  0.07985  0.59856  0.54994  1.0000
  H   H735      1.0  0.22566  0.60519  0.33119  1.0000
  H   H736      1.0  0.03128  0.90487  0.56485  1.0000
  H   H737      1.0  0.02911  0.60496  0.34344  1.0000
  H   H738      1.0  0.16718  0.83834  0.46137  1.0000
  H   H739      1.0  0.13533  0.49427  0.55406  1.0000
  H   H740      1.0  0.47749  0.67810  0.53427  1.0000
  H   H741      1.0  0.24652  0.54059  0.33612  1.0000
  H   H742      1.0  0.05466  0.48651  0.41941  1.0000
  H   H743      1.0  0.22316  0.92717  0.63739  1.0000
  C   C423      1.0  0.48298  0.94860  0.53061  1.0000
  H   H744      1.0  0.08942  0.62146  0.58951  1.0000
  H   H745      1.0  0.05113  0.66505  0.58180  1.0000
  H   H746      1.0  0.23245  0.58636  0.65751  1.0000
  C   C424      1.0  0.17806  0.93463  0.62640  1.0000
  H   H747      1.0  0.00853  0.90224  0.63719  1.0000
  H   H748      1.0  0.02409  0.79548  0.45039  1.0000
  S   S107      1.0  0.11767  0.48621  0.41580  1.0000
  H   H749      1.0  0.06788  0.62468  0.54119  1.0000
  H   H750      1.0  0.28541  0.59869  0.65342  1.0000
  C   C425      1.0  0.29926  0.85527  0.44331  1.0000
  C   C426      1.0  0.49574  0.72383  0.42837  1.0000
  C   C427      1.0  0.26871  0.85837  0.43174  1.0000
  S   S108      1.0  0.13819  0.54453  0.64724  1.0000
  H   H751      1.0  0.48099  0.74025  0.32981  1.0000
  C   C428      1.0  0.04704  0.83450  0.60101  1.0000
  H   H752      1.0  0.32050  0.73567  0.60459  1.0000
  C   C429      1.0  0.40968  0.75505  0.65116  1.0000
  C   C430      1.0  0.18221  0.91342  0.59929  1.0000
  H   H753      1.0  0.31238  0.77386  0.62990  1.0000
  H   H754      1.0  0.06229  0.85256  0.58853  1.0000
  H   H755      1.0  0.19030  0.93536  0.58404  1.0000
  H   H756      1.0  0.45252  0.57466  0.65663  1.0000
  H   H757      1.0  0.29911  0.83812  0.46253  1.0000
  H   H758      1.0  0.05154  0.56092  0.62506  1.0000
  H   H759      1.0  0.21575  0.82203  0.45053  1.0000
  H   H760      1.0  0.11488  0.87554  0.36112  1.0000
  C   C431      1.0  0.21680  0.91305  0.41702  1.0000
  H   H761      1.0  0.08306  0.51801  0.46140  1.0000
  H   H762      1.0  0.08549  0.56754  0.58789  1.0000
  H   H763      1.0  0.02699  0.49825  0.44262  1.0000
  H   H764      1.0  0.16898  0.91178  0.64048  1.0000
  H   H765      1.0  0.20049  0.52804  0.61824  1.0000
  H   H766      1.0  0.48056  0.74667  0.59858  1.0000
  C   C432      1.0  0.49635  0.62034  0.63290  1.0000
  H   H767      1.0  0.03827  0.53680  0.58108  1.0000
  H   H768      1.0  0.48732  0.79658  0.45999  1.0000
  C   C433      1.0  0.49120  0.83187  0.42334  1.0000
  C   C434      1.0  0.20179  0.60622  0.33318  1.0000
  H   H769      1.0  0.00414  0.84800  0.64289  1.0000
  H   H770      1.0  0.48621  0.53961  0.36338  1.0000
  C   C435      1.0  0.17279  0.83792  0.43971  1.0000
  H   H771      1.0  0.19255  0.49127  0.57327  1.0000
  H   H772      1.0  0.13993  0.79266  0.43058  1.0000
  H   H773      1.0  0.30283  0.68012  0.63532  1.0000
  C   C436      1.0  0.13596  0.51590  0.59525  1.0000
  C   C437      1.0  0.10707  0.90364  0.65679  1.0000
  H   H774      1.0  0.22786  0.89701  0.40024  1.0000
  C   C438      1.0  0.02362  0.90245  0.44969  1.0000
  H   H775      1.0  0.35522  0.55435  0.65288  1.0000
  H   H776      1.0  0.10939  0.86918  0.41067  1.0000
  H   H777      1.0  0.11395  0.60331  0.52027  1.0000
  H   H778      1.0  0.17610  0.89799  0.39681  1.0000
  C   C439      1.0  0.06664  0.62065  0.63696  1.0000
  H   H779      1.0  0.16891  0.79446  0.40660  1.0000
  H   H780      1.0  0.20174  0.88619  0.48286  1.0000
  H   H781      1.0  0.04923  0.52848  0.37267  1.0000
  C   C440      1.0  0.43174  0.48544  0.52237  1.0000
  C   C441      1.0  0.01047  0.85901  0.44952  1.0000
  H   H782      1.0  0.06266  0.77590  0.58584  1.0000
  H   H783      1.0  0.47387  0.63461  0.44448  1.0000
  C   C442      1.0  0.31064  0.69627  0.65362  1.0000
  H   H784      1.0  0.04783  0.82971  0.46797  1.0000
  C   C443      1.0  0.09658  0.49378  0.62340  1.0000
  H   H785      1.0  0.27045  0.87368  0.41196  1.0000
  H   H786      1.0  0.04257  0.90263  0.43601  1.0000
  H   H787      1.0  0.00524  0.80538  0.59528  1.0000
  C   C444      1.0  0.32895  0.75200  0.62253  1.0000
  C   C445      1.0  0.49846  0.65957  0.58909  1.0000
  C   C446      1.0  0.20700  0.95249  0.63704  1.0000
  C   C447      1.0  0.11397  0.52770  0.36771  1.0000
  H   H788      1.0  0.33013  0.62269  0.64563  1.0000
  H   H789      1.0  0.46416  0.94098  0.54244  1.0000
  H   H790      1.0  0.08872  0.60726  0.63615  1.0000
  C   C448      1.0  0.09872  0.97373  0.62609  1.0000
  H   H791      1.0  0.02325  0.82123  0.56563  1.0000
  H   H792      1.0  0.00318  0.51848  0.34496  1.0000
  H   H793      1.0  0.17758  0.90944  0.46024  1.0000
  H   H794      1.0  0.17249  0.93838  0.42147  1.0000
  H   H795      1.0  0.44810  0.83695  0.44083  1.0000
  C   C449      1.0  0.02323  0.57501  0.33444  1.0000
  C   C450      1.0  0.18945  0.95689  0.38352  1.0000
  H   H796      1.0  0.46836  0.68018  0.40746  1.0000
  C   C451      1.0  0.48753  0.69943  0.40329  1.0000
  H   H797      1.0  0.03243  0.62169  0.50241  1.0000
  H   H798      1.0  0.46177  0.79091  0.58633  1.0000
  H   H799      1.0  0.47669  0.74244  0.43414  1.0000
  H   H800      1.0  0.23324  0.50076  0.48289  1.0000
  H   H801      1.0  0.49194  0.60680  0.39997  1.0000
  H   H802      1.0  0.04782  0.82858  0.43163  1.0000
  C   C452      1.0  0.49163  0.92233  0.50987  1.0000
  C   C453      1.0  0.03408  0.82633  0.44985  1.0000
  H   H803      1.0  0.08216  0.79557  0.61446  1.0000
  C   C454      1.0  0.41946  0.68257  0.65400  1.0000
  C   C455      1.0  0.20651  0.49327  0.40836  1.0000
  H   H804      1.0  0.04305  0.56003  0.32658  1.0000
  C   C456      1.0  0.01750  0.83130  0.58634  1.0000
  H   H805      1.0  0.48958  0.55612  0.41381  1.0000
  C   C457      1.0  0.49237  0.58893  0.41889  1.0000
  C   C458      1.0  0.46434  0.85661  0.43073  1.0000
  H   H806      1.0  0.49659  0.68675  0.62819  1.0000
  H   H807      1.0  0.48732  0.69801  0.50177  1.0000
  H   H808      1.0  0.47253  0.62370  0.63431  1.0000
  H   H809      1.0  0.45434  0.48065  0.52921  1.0000
  H   H810      1.0  0.08569  0.49352  0.64259  1.0000
  H   H811      1.0  0.02072  0.67087  0.62157  1.0000
  C   C459      1.0  0.21469  0.48656  0.49347  1.0000
  H   H812      1.0  0.20289  0.94493  0.36678  1.0000
  H   H813      1.0  0.18308  0.49609  0.41288  1.0000
  H   H814      1.0  0.16092  0.49254  0.33440  1.0000
  C   C460      1.0  0.21136  0.48950  0.37806  1.0000
  C   C461      1.0  0.21133  0.94955  0.47384  1.0000
  C   C462      1.0  0.10052  0.97179  0.40418  1.0000
  H   H815      1.0  0.28796  0.49338  0.33157  1.0000
  H   H816      1.0  0.16918  0.97000  0.48824  1.0000
  H   H817      1.0  0.21114  0.97121  0.45672  1.0000
  H   H818      1.0  0.23494  0.48585  0.37496  1.0000
  C   C463      1.0  0.19178  0.96729  0.49564  1.0000
  H   H819      1.0  0.04128  0.97285  0.43144  1.0000
  H   H820      1.0  0.02703  0.49983  0.65752  1.0000
  H   H821      1.0  0.49628  0.47592  0.42857  1.0000
  C   C464      1.0  0.09435  0.50074  0.32582  1.0000
  H   H822      1.0  0.49996  0.62835  0.48616  1.0000
  H   H823      1.0  0.21451  0.97420  0.62135  1.0000
  H   H824      1.0  0.01365  0.48168  0.48548  1.0000
  Fe  Fe55      1.0  0.44602  0.59591  0.75616  1.0000
  S   S109      1.0  0.45289  0.66399  0.75894  1.0000
  C   C465      1.0  0.13381  0.95810  0.89906  1.0000
  Fe  Fe56      1.0  0.38004  0.60753  0.76222  1.0000
  S   S110      1.0  0.38336  0.67563  0.76603  1.0000
  S   S111      1.0  0.33689  0.57311  0.75862  1.0000
  Fe  Fe57      1.0  0.41473  0.67143  0.73183  1.0000
  S   S112      1.0  0.41265  0.72412  0.70218  1.0000
  Fe  Fe58      1.0  0.42139  0.66407  0.79328  1.0000
  S   S113      1.0  0.43564  0.71100  0.82491  1.0000
  S   S114      1.0  0.40960  0.60386  0.72618  1.0000
  S   S115      1.0  0.41636  0.59517  0.79226  1.0000
  Fe  Fe59      1.0  0.09657  0.61841  0.73041  1.0000
  S   S116      1.0  0.09028  0.55251  0.71779  1.0000
  S   S117      1.0  0.05519  0.65537  0.74028  1.0000
  Fe  Fe60      1.0  0.16329  0.60477  0.73637  1.0000
  S   S118      1.0  0.16007  0.53885  0.72438  1.0000
  S   S119      1.0  0.20600  0.63650  0.74782  1.0000
  Fe  Fe61      1.0  0.12963  0.56050  0.69172  1.0000
  H   H825      1.0  0.09138  0.78549  0.81262  1.0000
  Fe  Fe62      1.0  0.12101  0.53695  0.75162  1.0000
  C   C466      1.0  0.00920  0.94425  0.81879  1.0000
  S   S120      1.0  0.13461  0.62734  0.70260  1.0000
  S   S121      1.0  0.12568  0.60185  0.76529  1.0000
  H   H826      1.0  0.02010  0.83530  0.75659  1.0000
  C   C467      1.0  0.18679  0.91698  0.73191  1.0000
  H   H827      1.0  0.05876  0.71819  0.69757  1.0000
  H   H828      1.0  0.01093  0.54088  0.71290  1.0000
  H   H829      1.0  0.19039  0.63072  0.80783  1.0000
  S   S122      1.0  0.40940  0.72902  0.95036  1.0000
  C   C468      1.0  0.27270  0.52781  0.81872  1.0000
  H   H830      1.0  0.03424  0.56940  0.74564  1.0000
  C   C469      1.0  0.24481  0.60146  0.67388  1.0000
  S   S123      1.0  0.12909  0.91963  0.94801  1.0000
  C   C470      1.0  0.24888  0.50064  0.80574  1.0000
  H   H831      1.0  0.17760  0.88646  0.91190  1.0000
  C   C471      1.0  0.49596  0.92814  0.70339  1.0000
  C   C472      1.0  0.47814  0.65561  0.95239  1.0000
  C   C473      1.0  0.03986  0.72435  0.70967  1.0000
  H   H832      1.0  0.22354  0.56799  0.79970  1.0000
  H   H833      1.0  0.46478  0.57922  0.92606  1.0000
  H   H834      1.0  0.10649  0.54416  0.82217  1.0000
  C   C474      1.0  0.10734  0.51429  0.83143  1.0000
  H   H835      1.0  0.15409  0.62060  0.81902  1.0000
  C   C475      1.0  0.08014  0.93353  0.87968  1.0000
  C   C476      1.0  0.08939  0.92079  0.90543  1.0000
  C   C477      1.0  0.11629  0.93323  0.91538  1.0000
  C   C478      1.0  0.03102  0.52544  0.95384  1.0000
  H   H836      1.0  0.31157  0.74893  0.69538  1.0000
  H   H837      1.0  0.27100  0.52881  0.84088  1.0000
  H   H838      1.0  0.07564  0.90165  0.91765  1.0000
  C   C479      1.0  0.05774  0.62376  0.66644  1.0000
  C   C480      1.0  0.43769  0.57035  0.87895  1.0000
  C   C481      1.0  0.42609  0.71703  0.85929  1.0000
  C   C482      1.0  0.43578  0.75186  0.87331  1.0000
  C   C483      1.0  0.42998  0.75700  0.90096  1.0000
  C   C484      1.0  0.41476  0.72692  0.91501  1.0000
  C   C485      1.0  0.40500  0.69221  0.90094  1.0000
  C   C486      1.0  0.41027  0.68751  0.87321  1.0000
  H   H839      1.0  0.44804  0.77490  0.86274  1.0000
  H   H840      1.0  0.43780  0.78371  0.91150  1.0000
  H   H841      1.0  0.39326  0.66871  0.91160  1.0000
  H   H842      1.0  0.40261  0.66062  0.86274  1.0000
  C   C487      1.0  0.30076  0.59170  0.75526  1.0000
  C   C488      1.0  0.29336  0.63247  0.76030  1.0000
  C   C489      1.0  0.26435  0.64554  0.75782  1.0000
  C   C490      1.0  0.24226  0.61814  0.75038  1.0000
  C   C491      1.0  0.24966  0.57736  0.74536  1.0000
  C   C492      1.0  0.27870  0.56434  0.74769  1.0000
  H   H843      1.0  0.30991  0.65381  0.76647  1.0000
  H   H844      1.0  0.25894  0.67711  0.76191  1.0000
  H   H845      1.0  0.23302  0.55589  0.73954  1.0000
  H   H846      1.0  0.28412  0.53278  0.74360  1.0000
  H   H847      1.0  0.05659  0.81348  0.78012  1.0000
  H   H848      1.0  0.18356  0.61684  0.84249  1.0000
  H   H849      1.0  0.05577  0.59288  0.67542  1.0000
  H   H850      1.0  0.22374  0.94366  0.93972  1.0000
  H   H851      1.0  0.00318  0.77005  0.94834  1.0000
  H   H852      1.0  0.30525  0.87560  0.95146  1.0000
  H   H853      1.0  0.06567  0.88059  0.75263  1.0000
  H   H854      1.0  0.16963  0.94221  0.68332  1.0000
  N   N24       1.0  0.01788  0.88045  0.78868  1.0000
  H   H855      1.0  0.03676  0.64002  0.66843  1.0000
  H   H856      1.0  0.49695  0.66106  0.88602  1.0000
  H   H857      1.0  0.00666  0.49554  0.83744  1.0000
  S   S124      1.0  0.11321  0.48220  0.77956  1.0000
  H   H858      1.0  0.03900  0.95085  0.66749  1.0000
  H   H859      1.0  0.03436  0.94173  0.78255  1.0000
  C   C493      1.0  0.03346  0.69883  0.73143  1.0000
  C   C494      1.0  0.06857  0.57538  0.97156  1.0000
  H   H860      1.0  0.45971  0.93501  0.81512  1.0000
  H   H861      1.0  0.38416  0.58187  0.66946  1.0000
  Fe  Fe63      1.0  0.11918  0.88307  0.98649  1.0000
  C   C495      1.0  0.48307  0.82356  0.95879  1.0000
  H   H862      1.0  0.48691  0.60506  0.98066  1.0000
  H   H863      1.0  0.49590  0.67386  0.96147  1.0000
  C   C496      1.0  0.02812  0.55254  0.76404  1.0000
  N   N25       1.0  0.48742  0.63724  0.92586  1.0000
  H   H864      1.0  0.46805  0.79714  0.95971  1.0000
  C   C497      1.0  0.20275  0.94730  0.71395  1.0000
  C   C498      1.0  0.45737  0.52156  0.68115  1.0000
  H   H865      1.0  0.19140  0.88505  0.72562  1.0000
  C   C499      1.0  0.48914  0.48593  0.77383  1.0000
  S   S125      1.0  0.48785  0.56040  0.74590  1.0000
  H   H866      1.0  0.00631  0.56285  0.77027  1.0000
  H   H867      1.0  0.08446  0.59915  0.96571  1.0000
  H   H868      1.0  0.04510  0.49939  0.95995  1.0000
  H   H869      1.0  0.47627  0.65046  0.67711  1.0000
  H   H870      1.0  0.06267  0.88324  0.70275  1.0000
  H   H871      1.0  0.47213  0.94069  0.98443  1.0000
  C   C500      1.0  0.32938  0.68652  0.70018  1.0000
  C   C501      1.0  0.31337  0.72491  0.71096  1.0000
  H   H872      1.0  0.05919  0.92403  0.87237  1.0000
  H   H873      1.0  0.35220  0.69516  0.69607  1.0000
  H   H874      1.0  0.22169  0.56606  0.83534  1.0000
  C   C502      1.0  0.21265  0.91850  0.95055  1.0000
  H   H875      1.0  0.20047  0.91087  0.67855  1.0000
  H   H876      1.0  0.06346  0.88893  0.79711  1.0000
  C   C503      1.0  0.46701  0.80669  0.73101  1.0000
  H   H877      1.0  0.04329  0.49454  0.90452  1.0000
  H   H878      1.0  0.46141  0.50099  0.66379  1.0000
  C   C504      1.0  0.27144  0.62266  0.66230  1.0000
  N   N26       1.0  0.21639  0.87842  0.93585  1.0000
  C   C505      1.0  0.20111  0.84494  0.95112  1.0000
  C   C506      1.0  0.01374  0.50713  0.71245  1.0000
  H   H879      1.0  0.49010  0.81559  0.72889  1.0000
  C   C507      1.0  0.24807  0.86931  0.93120  1.0000
  C   C508      1.0  0.26395  0.84363  0.95295  1.0000
  C   C509      1.0  0.19845  0.80359  0.93591  1.0000
  C   C510      1.0  0.21243  0.55238  0.81671  1.0000
  N   N27       1.0  0.31601  0.66608  0.67596  1.0000
  H   H880      1.0  0.23143  0.50477  0.85772  1.0000
  C   C511      1.0  0.29665  0.84417  0.94872  1.0000
  C   C512      1.0  0.19366  0.76776  0.95501  1.0000
  H   H881      1.0  0.32049  0.57908  0.68711  1.0000
  H   H882      1.0  0.17876  0.85482  0.95646  1.0000
  H   H883      1.0  0.21160  0.83899  0.97077  1.0000
  H   H884      1.0  0.44191  0.62254  0.92206  1.0000
  C   C513      1.0  0.02362  0.51413  0.90490  1.0000
  H   H885      1.0  0.07425  0.64126  0.67784  1.0000
  H   H886      1.0  0.20408  0.85441  0.89685  1.0000
  H   H887      1.0  0.25117  0.85231  0.91200  1.0000
  C   C514      1.0  0.12470  0.97049  0.87322  1.0000
  H   H888      1.0  0.25685  0.81127  0.95211  1.0000
  H   H889      1.0  0.25963  0.85478  0.97346  1.0000
  H   H890      1.0  0.17970  0.80491  0.92194  1.0000
  H   H891      1.0  0.21804  0.79697  0.92386  1.0000
  H   H892      1.0  0.45493  0.83434  0.66388  1.0000
  H   H893      1.0  0.01054  0.81037  0.98869  1.0000
  H   H894      1.0  0.48476  0.87365  0.79876  1.0000
  N   N28       1.0  0.21840  0.50692  0.81593  1.0000
  H   H895      1.0  0.17339  0.56222  0.79287  1.0000
  H   H896      1.0  0.29134  0.71699  0.71795  1.0000
  C   C515      1.0  0.01912  0.86891  0.75933  1.0000
  C   C516      1.0  0.20138  0.88272  0.90898  1.0000
  S   S126      1.0  0.40386  0.84594  0.98517  1.0000
  H   H897      1.0  0.30227  0.83285  0.92834  1.0000
  H   H898      1.0  0.19047  0.73921  0.94331  1.0000
  H   H899      1.0  0.21275  0.76362  0.96830  1.0000
  H   H900      1.0  0.17423  0.77300  0.96757  1.0000
  C   C517      1.0  0.46663  0.81893  0.68052  1.0000
  H   H901      1.0  0.22623  0.94118  0.71639  1.0000
  N   N29       1.0  0.00737  0.48859  0.73961  1.0000
  H   H902      1.0  0.16980  0.47533  0.84453  1.0000
  H   H903      1.0  0.02455  0.87292  0.70427  1.0000
  H   H904      1.0  0.47242  0.85030  0.96839  1.0000
  H   H905      1.0  0.04003  0.80391  0.81243  1.0000
  C   C518      1.0  0.47937  0.96223  0.71179  1.0000
  C   C519      1.0  0.18049  0.56625  0.81403  1.0000
  H   H906      1.0  0.20449  0.94821  0.89928  1.0000
  H   H907      1.0  0.06932  0.54770  0.93250  1.0000
  H   H908      1.0  0.33070  0.66469  0.71726  1.0000
  C   C520      1.0  0.46864  0.62497  0.97452  1.0000
  H   H909      1.0  0.46614  0.77298  0.72787  1.0000
  H   H910      1.0  0.24814  0.91831  0.97978  1.0000
  H   H911      1.0  0.02684  0.93605  0.83279  1.0000
  S   S127      1.0  0.12217  0.81441  0.99092  1.0000
  C   C521      1.0  0.22425  0.92068  0.97961  1.0000
  H   H912      1.0  0.48126  0.59195  0.87638  1.0000
  H   H913      1.0  0.45962  0.97009  0.70134  1.0000
  H   H914      1.0  0.02699  0.77732  0.68659  1.0000
  H   H915      1.0  0.35202  0.75154  0.72908  1.0000
  C   C522      1.0  0.46074  0.60232  0.88535  1.0000
  H   H916      1.0  0.45425  0.63094  0.87505  1.0000
  C   C523      1.0  0.02908  0.50564  0.75935  1.0000
  H   H917      1.0  0.19393  0.92096  0.75306  1.0000
  H   H918      1.0  0.48906  0.83091  0.68122  1.0000
  Fe  Fe64      1.0  0.40958  0.77717  0.98387  1.0000
  H   H919      1.0  0.03158  0.54528  0.90034  1.0000
  H   H920      1.0  0.02659  0.49144  0.77943  1.0000
  H   H921      1.0  0.34895  0.60569  0.70434  1.0000
  C   C524      1.0  0.10461  0.51043  0.85959  1.0000
  H   H922      1.0  0.03677  0.50162  0.70699  1.0000
  N   N30       1.0  0.45607  0.81730  0.75878  1.0000
  C   C525      1.0  0.00427  0.50140  0.88083  1.0000
  C   C526      1.0  0.42514  0.80278  0.76055  1.0000
  H   H923      1.0  0.05621  0.72431  0.99073  1.0000
  H   H924      1.0  0.47071  0.94186  0.78079  1.0000
  H   H925      1.0  0.04215  0.92056  0.74076  1.0000
  H   H926      1.0  0.18083  0.51999  0.86346  1.0000
  C   C527      1.0  0.45099  0.82706  0.70703  1.0000
  C   C528      1.0  0.40901  0.81173  0.78715  1.0000
  C   C529      1.0  0.37903  0.79225  0.78722  1.0000
  H   H927      1.0  0.47036  0.75998  0.77609  1.0000
  H   H928      1.0  0.05303  0.58920  0.98596  1.0000
  H   H929      1.0  0.25141  0.57771  0.68857  1.0000
  H   H930      1.0  0.46695  0.79953  0.79959  1.0000
  H   H931      1.0  0.41166  0.81727  0.74476  1.0000
  H   H932      1.0  0.42410  0.76918  0.75669  1.0000
  C   C530      1.0  0.11074  0.47950  0.81535  1.0000
  H   H933      1.0  0.05029  0.83525  0.71590  1.0000
  C   C531      1.0  0.32948  0.74369  0.73476  1.0000
  H   H934      1.0  0.45060  0.60527  0.96761  1.0000
  H   H935      1.0  0.43593  0.56643  0.85683  1.0000
  C   C532      1.0  0.04935  0.56509  0.78608  1.0000
  C   C533      1.0  0.08501  0.81819  0.81383  1.0000
  C   C534      1.0  0.21175  0.91847  0.89093  1.0000
  C   C535      1.0  0.05275  0.55983  0.94658  1.0000
  H   H936      1.0  0.42887  0.81456  0.70476  1.0000
  H   H937      1.0  0.42074  0.79959  0.80484  1.0000
  H   H938      1.0  0.40575  0.84514  0.78948  1.0000
  H   H939      1.0  0.38091  0.75850  0.78635  1.0000
  H   H940      1.0  0.36761  0.80043  0.80608  1.0000
  H   H941      1.0  0.36601  0.80322  0.76991  1.0000
  C   C536      1.0  0.17705  0.61138  0.82131  1.0000
  H   H942      1.0  0.16313  0.92236  0.73102  1.0000
  H   H943      1.0  0.46987  0.49620  0.78411  1.0000
  H   H944      1.0  0.30539  0.50865  0.78971  1.0000
  H   H945      1.0  0.27218  0.67189  0.69067  1.0000
  H   H946      1.0  0.00800  0.92503  0.89861  1.0000
  C   C537      1.0  0.41400  0.71983  0.66680  1.0000
  C   C538      1.0  0.04457  0.88700  0.74296  1.0000
  C   C539      1.0  0.09764  0.95862  0.86344  1.0000
  H   H947      1.0  0.17516  0.91396  0.86332  1.0000
  H   H948      1.0  0.31833  0.77206  0.74131  1.0000
  C   C540      1.0  0.02093  0.50440  0.85442  1.0000
  C   C541      1.0  0.28751  0.64762  0.68423  1.0000
  H   H949      1.0  0.45988  0.67730  0.94915  1.0000
  H   H950      1.0  0.27107  0.55965  0.81111  1.0000
  H   H951      1.0  0.04223  0.58630  0.93687  1.0000
  H   H952      1.0  0.18935  0.92696  0.95113  1.0000
  H   H953      1.0  0.34657  0.73943  0.66145  1.0000
  C   C542      1.0  0.10524  0.94179  0.66975  1.0000
  H   H954      1.0  0.08485  0.82754  0.83530  1.0000
  H   H955      1.0  0.00050  0.96014  0.67113  1.0000
  H   H956      1.0  0.23036  0.62384  0.68400  1.0000
  H   H957      1.0  0.20564  0.94204  0.85053  1.0000
  C   C543      1.0  0.46217  0.87870  0.79208  1.0000
  C   C544      1.0  0.49857  0.56919  0.66851  1.0000
  H   H958      1.0  0.47118  0.68940  0.90409  1.0000
  H   H959      1.0  0.23565  0.91888  0.88924  1.0000
  C   C545      1.0  0.00867  0.70770  0.74683  1.0000
  H   H960      1.0  0.11027  0.87628  0.66862  1.0000
  C   C546      1.0  0.19915  0.91504  0.86260  1.0000
  H   H961      1.0  0.47973  0.71880  0.69432  1.0000
  H   H962      1.0  0.16562  0.54850  0.82676  1.0000
  H   H963      1.0  0.29028  0.62800  0.70228  1.0000
  C   C547      1.0  0.46331  0.60965  0.91610  1.0000
  H   H964      1.0  0.10166  0.53757  0.87172  1.0000
  H   H965      1.0  0.05142  0.49754  0.75283  1.0000
  C   C548      1.0  0.02174  0.75799  0.70350  1.0000
  H   H966      1.0  0.04291  0.87501  0.82532  1.0000
  H   H967      1.0  0.10136  0.83658  0.80288  1.0000
  H   H968      1.0  0.49299  0.63411  0.83630  1.0000
  C   C549      1.0  0.05512  0.82391  0.80125  1.0000
  C   C550      1.0  0.45606  0.92450  0.79417  1.0000
  C   C551      1.0  0.19369  0.94250  0.68410  1.0000
  C   C552      1.0  0.45808  0.86306  0.76280  1.0000
  C   C553      1.0  0.21675  0.48844  0.84370  1.0000
  H   H969      1.0  0.30728  0.82407  0.96375  1.0000
  C   C554      1.0  0.04548  0.86845  0.71476  1.0000
  C   C555      1.0  0.04522  0.86896  0.80347  1.0000
  H   H970      1.0  0.46721  0.78565  0.67621  1.0000
  H   H971      1.0  0.47659  0.87593  0.75126  1.0000
  H   H972      1.0  0.46992  0.51043  0.69872  1.0000
  H   H973      1.0  0.02730  0.66391  0.97654  1.0000
  H   H974      1.0  0.43332  0.93130  0.78855  1.0000
  C   C556      1.0  0.47400  0.79347  0.77872  1.0000
  C   C557      1.0  0.01464  0.92637  0.79027  1.0000
  H   H975      1.0  0.32981  0.72212  0.75194  1.0000
  H   H976      1.0  0.44946  0.86065  0.70971  1.0000
  S   S128      1.0  0.10822  0.94363  0.70524  1.0000
  H   H977      1.0  0.01916  0.53488  0.97232  1.0000
  C   C558      1.0  0.33669  0.63385  0.66587  1.0000
  C   C559      1.0  0.49179  0.67217  0.90647  1.0000
  H   H978      1.0  0.43861  0.87821  0.75413  1.0000
  H   H979      1.0  0.02851  0.53620  0.85115  1.0000
  H   H980      1.0  0.36622  0.54046  0.68643  1.0000
  H   H981      1.0  0.41631  0.58031  0.88670  1.0000
  H   H982      1.0  0.07168  0.55627  0.78045  1.0000
  H   H983      1.0  0.49842  0.75427  0.89068  1.0000
  H   H984      1.0  0.44349  0.54040  0.88798  1.0000
  C   C560      1.0  0.34094  0.59618  0.68433  1.0000
  H   H985      1.0  0.26030  0.89833  0.92851  1.0000
  H   H986      1.0  0.24986  0.95691  0.67347  1.0000
  H   H987      1.0  0.19774  0.49822  0.98507  1.0000
  H   H988      1.0  0.24987  0.50632  0.78368  1.0000
  H   H989      1.0  0.20727  0.88707  0.85243  1.0000
  H   H990      1.0  0.15444  0.96841  0.90664  1.0000
  C   C561      1.0  0.36301  0.56650  0.67243  1.0000
  C   C562      1.0  0.19816  0.48614  0.79639  1.0000
  H   H991      1.0  0.29284  0.71765  0.65903  1.0000
  H   H992      1.0  0.31942  0.53402  0.81902  1.0000
  N   N31       1.0  0.00985  0.51195  0.93235  1.0000
  H   H993      1.0  0.44803  0.86303  0.80664  1.0000
  H   H994      1.0  0.49013  0.62483  0.80082  1.0000
  H   H995      1.0  0.00331  0.68823  0.76364  1.0000
  H   H996      1.0  0.04378  0.55027  0.80539  1.0000
  H   H997      1.0  0.04867  0.59876  0.78889  1.0000
  H   H998      1.0  0.19948  0.50151  0.77643  1.0000
  C   C563      1.0  0.18684  0.48842  0.85755  1.0000
  H   H999      1.0  0.02260  0.95167  0.70030  1.0000
  C   C564      1.0  0.30287  0.51202  0.81177  1.0000
  H   H1000     1.0  0.17526  0.48957  0.80251  1.0000
  H   H1001     1.0  0.48868  0.91022  0.68644  1.0000
  H   H1002     1.0  0.08041  0.55002  0.98156  1.0000
  H   H1003     1.0  0.43405  0.52018  0.68629  1.0000
  C   C565      1.0  0.00459  0.50971  0.66208  1.0000
  H   H1004     1.0  0.30686  0.48199  0.82147  1.0000
  H   H1005     1.0  0.48728  0.83052  0.93732  1.0000
  H   H1006     1.0  0.49952  0.69979  0.72312  1.0000
  H   H1007     1.0  0.00366  0.54362  0.66273  1.0000
  H   H1008     1.0  0.42253  0.65520  0.66583  1.0000
  C   C566      1.0  0.46567  0.56553  0.67424  1.0000
  H   H1009     1.0  0.35854  0.64732  0.66291  1.0000
  C   C567      1.0  0.02213  0.96567  0.68004  1.0000
  H   H1010     1.0  0.45945  0.58504  0.69150  1.0000
  H   H1011     1.0  0.40520  0.78394  0.66089  1.0000
  H   H1012     1.0  0.49912  0.62726  0.70138  1.0000
  C   C568      1.0  0.49914  0.64155  0.68102  1.0000
  H   H1013     1.0  0.03991  0.48355  0.85463  1.0000
  N   N32       1.0  0.20569  0.97315  0.66422  1.0000
  Fe  Fe65      1.0  0.90572  0.38732  0.29450  1.0000
  S   S129      1.0  0.89951  0.32009  0.30293  1.0000
  H   H1014     1.0  0.61104  0.35345  0.01532  1.0000
  Fe  Fe66      1.0  0.89132  0.37797  0.23373  1.0000
  S   S130      1.0  0.88471  0.31040  0.23898  1.0000
  S   S131      1.0  0.87723  0.40272  0.19233  1.0000
  Fe  Fe67      1.0  0.85972  0.32645  0.27633  1.0000
  S   S132      1.0  0.81595  0.29466  0.28309  1.0000
  Fe  Fe68      1.0  0.92494  0.30962  0.26467  1.0000
  S   S133      1.0  0.96220  0.26543  0.25343  1.0000
  S   S134      1.0  0.86467  0.39397  0.27032  1.0000
  S   S135      1.0  0.93291  0.37688  0.25729  1.0000
  Fe  Fe69      1.0  0.57857  0.34955  0.27574  1.0000
  S   S136      1.0  0.56771  0.28297  0.27028  1.0000
  S   S137      1.0  0.54385  0.39413  0.29199  1.0000
  Fe  Fe70      1.0  0.64347  0.33209  0.26662  1.0000
  S   S138      1.0  0.63646  0.26494  0.26008  1.0000
  S   S139      1.0  0.68730  0.36476  0.26881  1.0000
  Fe  Fe71      1.0  0.59811  0.28315  0.23478  1.0000
  S   S140      1.0  0.58078  0.24255  0.20046  1.0000
  Fe  Fe72      1.0  0.60650  0.26867  0.29564  1.0000
  H   H1015     1.0  0.96081  0.21747  0.99907  1.0000
  S   S141      1.0  0.60681  0.35118  0.23874  1.0000
  S   S142      1.0  0.61574  0.33482  0.30376  1.0000
  Fe  Fe73      1.0  0.91466  0.03778  0.01152  1.0000
  S   S143      1.0  0.90899  0.10613  0.01501  1.0000
  C   C569      1.0  0.78215  0.06993  0.99469  1.0000
  H   H1016     1.0  0.54679  0.26097  0.09858  1.0000
  Fe  Fe74      1.0  0.61284  0.15667  0.04463  1.0000
  S   S144      1.0  0.61837  0.08766  0.04341  1.0000
  S   S145      1.0  0.61432  0.20605  0.07779  1.0000
  H   H1017     1.0  0.76146  0.25537  0.27233  1.0000
  C   C570      1.0  0.88601  0.46395  0.12124  1.0000
  H   H1018     1.0  0.73070  0.06706  0.06179  1.0000
  H   H1019     1.0  0.63225  0.16062  0.27992  1.0000
  H   H1020     1.0  0.99168  0.46971  0.09519  1.0000
  H   H1021     1.0  0.51453  0.18976  0.12266  1.0000
  H   H1022     1.0  0.50337  0.16023  0.29954  1.0000
  C   C571      1.0  0.91094  0.02123  0.09251  1.0000
  C   C572      1.0  0.52617  0.14059  0.07974  1.0000
  H   H1023     1.0  0.76175  0.98778  0.07854  1.0000
  H   H1024     1.0  0.71125  0.28139  0.26651  1.0000
  H   H1025     1.0  0.97678  0.11251  0.14363  1.0000
  C   C573      1.0  0.52812  0.40276  0.03944  1.0000
  H   H1026     1.0  0.53707  0.42750  0.23734  1.0000
  H   H1027     1.0  0.82176  0.03480  0.11578  1.0000
  C   C574      1.0  0.52093  0.43242  0.27768  1.0000
  H   H1028     1.0  0.96861  0.04952  0.09749  1.0000
  H   H1029     1.0  0.51401  0.23438  0.30589  1.0000
  H   H1030     1.0  0.87967  0.09728  0.24969  1.0000
  H   H1031     1.0  0.86054  0.04784  0.06559  1.0000
  C   C575      1.0  0.59319  0.23053  0.16739  1.0000
  C   C576      1.0  0.58261  0.19516  0.15453  1.0000
  C   C577      1.0  0.58971  0.18616  0.12754  1.0000
  C   C578      1.0  0.60708  0.21296  0.11278  1.0000
  C   C579      1.0  0.61794  0.24805  0.12575  1.0000
  C   C580      1.0  0.61139  0.25654  0.15292  1.0000
  H   H1032     1.0  0.56885  0.17447  0.16551  1.0000
  H   H1033     1.0  0.58140  0.15886  0.11805  1.0000
  H   H1034     1.0  0.63141  0.26903  0.11462  1.0000
  H   H1035     1.0  0.61965  0.28393  0.16237  1.0000
  C   C581      1.0  0.98547  0.22569  0.26568  1.0000
  H   H1036     1.0  0.93497  0.43839  0.18262  1.0000
  H   H1037     1.0  0.59921  0.15687  0.22657  1.0000
  H   H1038     1.0  0.52786  0.35514  0.21924  1.0000
  H   H1039     1.0  0.79300  0.34791  0.10256  1.0000
  C   C582      1.0  0.89257  0.43163  0.16545  1.0000
  H   H1040     1.0  0.81096  0.41676  0.99669  1.0000
  H   H1041     1.0  0.83415  0.06920  0.04398  1.0000
  H   H1042     1.0  0.53894  0.25041  0.13233  1.0000
  H   H1043     1.0  0.78640  0.98109  0.11592  1.0000
  H   H1044     1.0  0.87737  0.01814  0.21669  1.0000
  H   H1045     1.0  0.78534  0.06968  0.05771  1.0000
  C   C583      1.0  0.92119  0.44547  0.16571  1.0000
  H   H1046     1.0  0.96633  0.99500  0.31449  1.0000
  H   H1047     1.0  0.96062  0.45286  0.23104  1.0000
  C   C584      1.0  0.78034  0.31474  0.27900  1.0000
  C   C585      1.0  0.77439  0.35651  0.28138  1.0000
  C   C586      1.0  0.74575  0.37103  0.27876  1.0000
  C   C587      1.0  0.72269  0.34419  0.27342  1.0000
  C   C588      1.0  0.72862  0.30240  0.27104  1.0000
  C   C589      1.0  0.75719  0.28778  0.27410  1.0000
  H   H1048     1.0  0.79184  0.37762  0.28543  1.0000
  H   H1049     1.0  0.74149  0.40343  0.28064  1.0000
  H   H1050     1.0  0.55919  0.07258  0.29927  1.0000
  H   H1051     1.0  0.55024  0.99111  0.04467  1.0000
  C   C590      1.0  0.85991  0.12965  0.07333  1.0000
  H   H1052     1.0  0.54075  0.13037  0.06335  1.0000
  C   C591      1.0  0.90679  0.19257  0.26502  1.0000
  H   H1053     1.0  0.88204  0.11655  0.07387  1.0000
  H   H1054     1.0  0.98826  0.37520  0.06525  1.0000
  C   C592      1.0  0.92351  0.15856  0.25081  1.0000
  C   C593      1.0  0.50733  0.13898  0.18795  1.0000
  H   H1055     1.0  0.57324  0.39034  0.03440  1.0000
  H   H1056     1.0  0.65553  0.31421  0.02520  1.0000
  N   N33       1.0  0.94120  0.08392  0.25763  1.0000
  H   H1057     1.0  0.77595  0.39466  0.11337  1.0000
  C   C594      1.0  0.96989  0.09239  0.24455  1.0000
  C   C595      1.0  0.94398  0.05196  0.27941  1.0000
  C   C596      1.0  0.93040  0.12291  0.27038  1.0000
  S   S146      1.0  0.82566  0.12852  0.00124  1.0000
  H   H1058     1.0  0.81046  0.39783  0.16805  1.0000
  C   C597      1.0  0.97001  0.05719  0.29892  1.0000
  H   H1059     1.0  0.85301  0.43061  0.14256  1.0000
  H   H1060     1.0  0.98508  0.10616  0.25929  1.0000
  C   C598      1.0  0.86969  0.04906  0.22233  1.0000
  C   C599      1.0  0.52188  0.44278  0.25045  1.0000
  H   H1061     1.0  0.51524  0.10840  0.18158  1.0000
  H   H1062     1.0  0.92676  0.03694  0.23007  1.0000
  C   C600      1.0  0.75310  0.05671  0.99578  1.0000
  H   H1063     1.0  0.96757  0.11597  0.22861  1.0000
  H   H1064     1.0  0.72143  0.14361  0.01879  1.0000
  H   H1065     1.0  0.94534  0.02062  0.27074  1.0000
  H   H1066     1.0  0.92403  0.05123  0.29187  1.0000
  H   H1067     1.0  0.91090  0.11679  0.28283  1.0000
  H   H1068     1.0  0.94659  0.13503  0.28484  1.0000
  H   H1069     1.0  0.76107  0.00825  0.04515  1.0000
  H   H1070     1.0  0.94384  0.17187  0.24292  1.0000
  H   H1071     1.0  0.96381  0.46153  0.05762  1.0000
  H   H1072     1.0  0.58480  0.09881  0.25503  1.0000
  C   C601      1.0  0.61744  0.28973  0.00489  1.0000
  C   C602      1.0  0.81034  0.42903  0.21864  1.0000
  H   H1073     1.0  0.63217  0.28370  0.04640  1.0000
  H   H1074     1.0  0.99946  0.16477  0.31989  1.0000
  H   H1075     1.0  0.99478  0.08916  0.09660  1.0000
  H   H1076     1.0  0.73010  0.04358  0.09468  1.0000
  H   H1077     1.0  0.90678  0.46468  0.22471  1.0000
  H   H1078     1.0  0.96301  0.14892  0.10184  1.0000
  H   H1079     1.0  0.77412  0.41139  0.16195  1.0000
  H   H1080     1.0  0.65496  0.25941  0.02195  1.0000
  C   C603      1.0  0.53333  0.98031  0.03144  1.0000
  C   C604      1.0  0.99587  0.26053  0.99317  1.0000
  C   C605      1.0  0.81896  0.99310  0.05168  1.0000
  H   H1081     1.0  0.92206  0.08700  0.21782  1.0000
  H   H1082     1.0  0.81816  0.44334  0.19981  1.0000
  H   H1083     1.0  0.51802  0.19814  0.06095  1.0000
  H   H1084     1.0  0.60501  0.26069  0.00568  1.0000
  H   H1085     1.0  0.81626  0.11341  0.08269  1.0000
  C   C606      1.0  0.93201  0.46860  0.14395  1.0000
  C   C607      1.0  0.96379  0.09589  0.12839  1.0000
  H   H1086     1.0  0.97029  0.46866  0.29188  1.0000
  H   H1087     1.0  0.78284  0.06022  0.09271  1.0000
  C   C608      1.0  0.50991  0.14389  0.21838  1.0000
  H   H1088     1.0  0.98428  0.02767  0.24399  1.0000
  S   S147      1.0  0.91944  0.43753  0.32428  1.0000
  H   H1089     1.0  0.84693  0.04656  0.22916  1.0000
  C   C609      1.0  0.53833  0.08943  0.29862  1.0000
  H   H1090     1.0  0.90319  0.21834  0.25090  1.0000
  H   H1091     1.0  0.52631  0.00547  0.25461  1.0000
  C   C610      1.0  0.73085  0.08313  0.00430  1.0000
  C   C611      1.0  0.83776  0.09838  0.08301  1.0000
  H   H1092     1.0  0.55051  0.11071  0.21814  1.0000
  H   H1093     1.0  0.97316  0.04733  0.21202  1.0000
  C   C612      1.0  0.59716  0.32651  0.01077  1.0000
  C   C613      1.0  0.54855  0.35413  0.00430  1.0000
  H   H1094     1.0  0.81378  0.00621  0.03155  1.0000
  C   C614      1.0  0.50636  0.17990  0.28163  1.0000
  H   H1095     1.0  0.70462  0.24883  0.31035  1.0000
  H   H1096     1.0  0.50808  0.31129  0.25452  1.0000
  H   H1097     1.0  0.71799  0.17746  0.29932  1.0000
  C   C615      1.0  0.64146  0.28678  0.02593  1.0000
  H   H1098     1.0  0.54795  0.19795  0.08384  1.0000
  S   S148      1.0  0.69451  0.06469  0.00526  1.0000
  Fe  Fe75      1.0  0.58513  0.08829  0.00977  1.0000
  H   H1099     1.0  0.59601  0.47215  0.25913  1.0000
  C   C616      1.0  0.73814  0.12300  0.01190  1.0000
  C   C617      1.0  0.68951  0.22424  0.31578  1.0000
  H   H1100     1.0  0.58669  0.31861  0.03026  1.0000
  H   H1101     1.0  0.91033  0.14869  0.23342  1.0000
  H   H1102     1.0  0.51985  0.16310  0.17754  1.0000
  C   C618      1.0  0.82526  0.01073  0.10036  1.0000
  C   C619      1.0  0.51548  0.98335  0.24214  1.0000
  C   C620      1.0  0.98458  0.05508  0.23099  1.0000
  C   C621      1.0  0.87515  0.44103  0.14305  1.0000
  H   H1103     1.0  0.53546  0.07303  0.25667  1.0000
  H   H1104     1.0  0.88563  0.04704  0.26283  1.0000
  C   C622      1.0  0.88834  0.06654  0.24490  1.0000
  H   H1105     1.0  0.80180  0.44972  0.25954  1.0000
  H   H1106     1.0  0.00005  0.42647  0.21331  1.0000
  C   C623      1.0  0.50540  0.20254  0.10372  1.0000
  C   C624      1.0  0.53794  0.17674  0.27111  1.0000
  H   H1107     1.0  0.55315  0.16506  0.21881  1.0000
  H   H1108     1.0  0.81446  0.38740  0.11797  1.0000
  H   H1109     1.0  0.98134  0.42783  0.27110  1.0000
  C   C625      1.0  0.98315  0.06825  0.11048  1.0000
  H   H1110     1.0  0.93294  0.14561  0.12468  1.0000
  C   C626      1.0  0.98339  0.20969  0.29171  1.0000
  H   H1111     1.0  0.96994  0.99801  0.13254  1.0000
  H   H1112     1.0  0.97564  0.03329  0.15923  1.0000
  C   C627      1.0  0.99197  0.40704  0.05805  1.0000
  H   H1113     1.0  0.88541  0.18133  0.27190  1.0000
  C   C628      1.0  0.51525  0.06201  0.31109  1.0000
  H   H1114     1.0  0.85939  0.15698  0.08657  1.0000
  H   H1115     1.0  0.51251  0.03363  0.29910  1.0000
  C   C629      1.0  0.57853  0.12988  0.26224  1.0000
  H   H1116     1.0  0.52632  0.37956  0.05559  1.0000
  C   C630      1.0  0.52548  0.18727  0.08081  1.0000
  H   H1117     1.0  0.85489  0.13961  0.05254  1.0000
  H   H1118     1.0  0.97068  0.08836  0.30763  1.0000
  H   H1119     1.0  0.96747  0.22196  0.30539  1.0000
  H   H1120     1.0  0.55712  0.41994  0.00792  1.0000
  H   H1121     1.0  0.50202  0.17498  0.22348  1.0000
  H   H1122     1.0  0.53438  0.12789  0.09898  1.0000
  H   H1123     1.0  0.94482  0.41865  0.02117  1.0000
  N   N34       1.0  0.78028  0.37124  0.19607  1.0000
  C   C631      1.0  0.75029  0.35309  0.19741  1.0000
  C   C632      1.0  0.80233  0.34070  0.20641  1.0000
  C   C633      1.0  0.78060  0.40830  0.21422  1.0000
  C   C634      1.0  0.78808  0.38538  0.16819  1.0000
  C   C635      1.0  0.78753  0.35271  0.14575  1.0000
  C   C636      1.0  0.72484  0.38181  0.18998  1.0000
  C   C637      1.0  0.53079  0.31294  0.11984  1.0000
  C   C638      1.0  0.79601  0.29463  0.20119  1.0000
  C   C639      1.0  0.82240  0.26796  0.20682  1.0000
  C   C640      1.0  0.96228  0.42840  0.06139  1.0000
  C   C641      1.0  0.69629  0.35832  0.18922  1.0000
  H   H1124     1.0  0.50709  0.10424  0.26769  1.0000
  H   H1125     1.0  0.74611  0.34180  0.21817  1.0000
  H   H1126     1.0  0.74831  0.32580  0.18435  1.0000
  H   H1127     1.0  0.82420  0.34786  0.19833  1.0000
  H   H1128     1.0  0.80463  0.34319  0.22865  1.0000
  H   H1129     1.0  0.77187  0.40013  0.23425  1.0000
  H   H1130     1.0  0.54064  0.11717  0.31129  1.0000
  H   H1131     1.0  0.77248  0.16710  0.01683  1.0000
  H   H1132     1.0  0.76621  0.43271  0.20625  1.0000
  H   H1133     1.0  0.76641  0.33690  0.14467  1.0000
  H   H1134     1.0  0.80503  0.33009  0.14914  1.0000
  H   H1135     1.0  0.72236  0.40631  0.20526  1.0000
  H   H1136     1.0  0.72809  0.39590  0.16997  1.0000
  H   H1137     1.0  0.66738  0.23564  0.31150  1.0000
  C   C642      1.0  0.54153  0.13874  0.22783  1.0000
  H   H1138     1.0  0.77839  0.28417  0.21468  1.0000
  H   H1139     1.0  0.78919  0.28858  0.18029  1.0000
  H   H1140     1.0  0.82871  0.27033  0.22825  1.0000
  H   H1141     1.0  0.81718  0.23550  0.20250  1.0000
  H   H1142     1.0  0.84086  0.27724  0.19397  1.0000
  C   C643      1.0  0.98708  0.01442  0.14402  1.0000
  C   C644      1.0  0.73231  0.03765  0.07281  1.0000
  H   H1143     1.0  0.51134  0.26943  0.06577  1.0000
  H   H1144     1.0  0.67824  0.37971  0.18488  1.0000
  H   H1145     1.0  0.69673  0.33448  0.17332  1.0000
  H   H1146     1.0  0.69206  0.34359  0.20894  1.0000
  H   H1147     1.0  0.93775  0.37736  0.04456  1.0000
  H   H1148     1.0  0.89946  0.04495  0.13159  1.0000
  C   C645      1.0  0.90599  0.01813  0.12041  1.0000
  H   H1149     1.0  0.84340  0.09096  0.10410  1.0000
  H   H1150     1.0  0.55977  0.35964  0.13515  1.0000
  S   S149      1.0  0.57778  0.15673  0.01307  1.0000
  H   H1151     1.0  0.59288  0.19273  0.25355  1.0000
  N   N35       1.0  0.81695  0.02615  0.07283  1.0000
  C   C646      1.0  0.69530  0.18804  0.29715  1.0000
  C   C647      1.0  0.78700  0.04493  0.07308  1.0000
  C   C648      1.0  0.83804  0.05939  0.06512  1.0000
  C   C649      1.0  0.52711  0.00194  0.00788  1.0000
  C   C650      1.0  0.53083  0.10050  0.26910  1.0000
  N   N36       1.0  0.54658  0.13697  0.25781  1.0000
  Fe  Fe76      1.0  0.65161  0.09939  0.01076  1.0000
  H   H1152     1.0  0.95425  0.42384  0.08221  1.0000
  H   H1153     1.0  0.63738  0.12237  0.25401  1.0000
  C   C651      1.0  0.93951  0.41102  0.04229  1.0000
  C   C652      1.0  0.50352  0.22726  0.00561  1.0000
  H   H1154     1.0  0.55203  0.18335  0.28879  1.0000
  H   H1155     1.0  0.52430  0.23106  0.01647  1.0000
  H   H1156     1.0  0.93439  0.11240  0.09581  1.0000
  C   C653      1.0  0.79306  0.37202  0.11829  1.0000
  H   H1157     1.0  0.90864  0.05029  0.08247  1.0000
  H   H1158     1.0  0.58371  0.13062  0.28410  1.0000
  H   H1159     1.0  0.82277  0.46667  0.00707  1.0000
  H   H1160     1.0  0.87047  0.06908  0.20435  1.0000
  C   C654      1.0  0.59924  0.16086  0.24872  1.0000
  H   H1161     1.0  0.68043  0.16239  0.30181  1.0000
  C   C655      1.0  0.92055  0.06842  0.23647  1.0000
  H   H1162     1.0  0.64494  0.17526  0.24709  1.0000
  S   S150      1.0  0.64797  0.16731  0.01399  1.0000
  H   H1163     1.0  0.82666  0.40675  0.22556  1.0000
  H   H1164     1.0  0.91817  0.42491  0.04698  1.0000
  H   H1165     1.0  0.56237  0.31141  0.15233  1.0000
  C   C656      1.0  0.80846  0.46268  0.23988  1.0000
  C   C657      1.0  0.94759  0.12757  0.11156  1.0000
  H   H1166     1.0  0.69179  0.19748  0.27597  1.0000
  C   C658      1.0  0.78942  0.10986  0.00222  1.0000
  C   C659      1.0  0.76719  0.13618  0.01088  1.0000
  H   H1167     1.0  0.53908  0.33011  0.01748  1.0000
  C   C660      1.0  0.55950  0.32597  0.13234  1.0000
  C   C661      1.0  0.90973  0.98080  0.13404  1.0000
  C   C662      1.0  0.63035  0.15425  0.25809  1.0000
  H   H1168     1.0  0.54175  0.20266  0.25709  1.0000
  C   C663      1.0  0.53023  0.26639  0.11435  1.0000
  H   H1169     1.0  0.94733  0.07735  0.13898  1.0000
  H   H1170     1.0  0.71412  0.01786  0.06624  1.0000
  C   C664      1.0  0.55392  0.39324  0.02136  1.0000
  N   N37       1.0  0.50156  0.24833  0.10601  1.0000
  H   H1171     1.0  0.53107  0.43325  0.04888  1.0000
  S   S151      1.0  0.60767  0.21362  0.32382  1.0000
  H   H1172     1.0  0.52955  0.30207  0.20979  1.0000
  H   H1173     1.0  0.57782  0.31737  0.11909  1.0000
  C   C665      1.0  0.76104  0.01644  0.06683  1.0000
  H   H1174     1.0  0.99073  0.05174  0.28831  1.0000
  H   H1175     1.0  0.91913  0.20428  0.28255  1.0000
  C   C666      1.0  0.98797  0.45859  0.27827  1.0000
  H   H1176     1.0  0.84883  0.00415  0.10119  1.0000
  H   H1177     1.0  0.63749  0.45116  0.31436  1.0000
  H   H1178     1.0  0.52857  0.32980  0.10063  1.0000
  H   H1179     1.0  0.86559  0.99211  0.04297  1.0000
  H   H1180     1.0  0.98790  0.28166  0.00816  1.0000
  S   S152      1.0  0.90609  0.97988  0.16960  1.0000
  H   H1181     1.0  0.50029  0.24399  0.27235  1.0000
  H   H1182     1.0  0.99730  0.42259  0.11145  1.0000
  C   C667      1.0  0.50096  0.45294  0.29430  1.0000
  H   H1183     1.0  0.50424  0.12827  0.07575  1.0000
  H   H1184     1.0  0.50521  0.24335  0.16254  1.0000
  H   H1185     1.0  0.82354  0.98053  0.15241  1.0000
  S   S153      1.0  0.88728  0.97647  0.29480  1.0000
  S   S154      1.0  0.54582  0.04776  0.99847  1.0000
  C   C668      1.0  0.50308  0.47297  0.24006  1.0000
  S   S155      1.0  0.92865  0.98996  0.04300  1.0000
  H   H1186     1.0  0.50242  0.33465  0.19508  1.0000
  C   C669      1.0  0.96861  0.02676  0.32211  1.0000
  C   C670      1.0  0.91991  0.98705  0.07785  1.0000
  C   C671      1.0  0.51466  0.32803  0.21377  1.0000
  H   H1187     1.0  0.51360  0.32259  0.13392  1.0000
  H   H1188     1.0  0.87226  0.47095  0.10427  1.0000
  H   H1189     1.0  0.99649  0.40415  0.03616  1.0000
  H   H1190     1.0  0.50775  0.40335  0.02761  1.0000
  Fe  Fe77      1.0  0.90871  0.04565  0.45214  1.0000
  S   S156      1.0  0.89883  0.11317  0.45237  1.0000
  C   C672      1.0  0.56077  0.37041  0.36587  1.0000
  Fe  Fe78      1.0  0.93087  0.11872  0.48657  1.0000
  S   S157      1.0  0.97097  0.16026  0.49239  1.0000
  Fe  Fe79      1.0  0.86586  0.09708  0.48461  1.0000
  S   S158      1.0  0.82062  0.12669  0.48320  1.0000
  S   S159      1.0  0.87417  0.02948  0.48213  1.0000
  Fe  Fe80      1.0  0.60478  0.15090  0.48128  1.0000
  S   S160      1.0  0.60897  0.08219  0.47780  1.0000
  S   S161      1.0  0.59503  0.20254  0.45141  1.0000
  Fe  Fe81      1.0  0.58320  0.07871  0.51655  1.0000
  S   S162      1.0  0.54309  0.04109  0.53000  1.0000
  S   S163      1.0  0.57668  0.14731  0.51823  1.0000
  S   S164      1.0  0.64532  0.15834  0.50564  1.0000
  C   C673      1.0  0.65278  0.35084  0.36698  1.0000
  H   H1191     1.0  0.91223  0.04848  0.63538  1.0000
  C   C674      1.0  0.78508  0.10644  0.48775  1.0000
  C   C675      1.0  0.76106  0.13251  0.48445  1.0000
  C   C676      1.0  0.73253  0.11804  0.48790  1.0000
  H   H1192     1.0  0.76458  0.16416  0.47914  1.0000
  H   H1193     1.0  0.71436  0.13831  0.48497  1.0000
  C   C677      1.0  0.60410  0.21140  0.35931  1.0000
  C   C678      1.0  0.60819  0.17371  0.37235  1.0000
  C   C679      1.0  0.60570  0.17042  0.40050  1.0000
  C   C680      1.0  0.59893  0.20485  0.41593  1.0000
  C   C681      1.0  0.59501  0.24265  0.40289  1.0000
  C   C682      1.0  0.59772  0.24598  0.37475  1.0000
  H   H1194     1.0  0.61318  0.14677  0.36061  1.0000
  H   H1195     1.0  0.60870  0.14116  0.41023  1.0000
  H   H1196     1.0  0.58978  0.26947  0.41464  1.0000
  H   H1197     1.0  0.59478  0.27516  0.36499  1.0000
  H   H1198     1.0  0.78305  0.27447  0.36482  1.0000
  H   H1199     1.0  0.57287  0.04904  0.61453  1.0000
  H   H1200     1.0  0.54575  0.03081  0.59137  1.0000
  S   S165      1.0  0.90192  0.44596  0.58079  1.0000
  H   H1201     1.0  0.51660  0.25787  0.60688  1.0000
  C   C683      1.0  0.90520  0.40344  0.37383  1.0000
  H   H1202     1.0  0.83700  0.13312  0.42245  1.0000
  C   C684      1.0  0.72426  0.25902  0.37098  1.0000
  C   C685      1.0  0.50584  0.29438  0.51713  1.0000
  C   C686      1.0  0.60372  0.45058  0.43992  1.0000
  Fe  Fe82      1.0  0.90771  0.03992  0.51439  1.0000
  S   S166      1.0  0.89741  0.10702  0.51897  1.0000
  C   C687      1.0  0.59403  0.18480  0.65058  1.0000
  S   S167      1.0  0.94268  0.05191  0.48420  1.0000
  Fe  Fe83      1.0  0.61756  0.15048  0.54243  1.0000
  S   S168      1.0  0.62306  0.08213  0.54306  1.0000
  S   S169      1.0  0.62712  0.19877  0.57476  1.0000
  Fe  Fe84      1.0  0.64848  0.09019  0.50452  1.0000
  S   S170      1.0  0.69191  0.05693  0.49868  1.0000
  H   H1203     1.0  0.98636  0.44267  0.42184  1.0000
  H   H1204     1.0  0.96130  0.11996  0.40783  1.0000
  H   H1205     1.0  0.90073  0.37544  0.36302  1.0000
  H   H1206     1.0  0.68100  0.29382  0.33843  1.0000
  H   H1207     1.0  0.53225  0.41396  0.38549  1.0000
  C   C688      1.0  0.97265  0.23628  0.46608  1.0000
  H   H1208     1.0  0.54393  0.24731  0.63174  1.0000
  H   H1209     1.0  0.95083  0.23013  0.45940  1.0000
  C   C689      1.0  0.72753  0.07718  0.49470  1.0000
  C   C690      1.0  0.75153  0.05116  0.49810  1.0000
  C   C691      1.0  0.78009  0.06557  0.49462  1.0000
  H   H1210     1.0  0.74800  0.01962  0.50365  1.0000
  H   H1211     1.0  0.79822  0.04513  0.49745  1.0000
  C   C692      1.0  0.93635  0.28137  0.52344  1.0000
  C   C693      1.0  0.81789  0.44176  0.37035  1.0000
  C   C694      1.0  0.62670  0.24171  0.62234  1.0000
  C   C695      1.0  0.61742  0.20602  0.60907  1.0000
  C   C696      1.0  0.60114  0.17745  0.62340  1.0000
  H   H1212     1.0  0.53257  0.21542  0.51879  1.0000
  H   H1213     1.0  0.91365  0.05214  0.58552  1.0000
  H   H1214     1.0  0.63932  0.26406  0.61149  1.0000
  H   H1215     1.0  0.59415  0.14973  0.61355  1.0000
  C   C697      1.0  0.90740  0.44101  0.41652  1.0000
  H   H1216     1.0  0.95153  0.37415  0.59392  1.0000
  C   C698      1.0  0.59718  0.43420  0.41178  1.0000
  C   C699      1.0  0.98653  0.27311  0.45863  1.0000
  H   H1217     1.0  0.54776  0.30657  0.36620  1.0000
  C   C700      1.0  0.90365  0.40376  0.62889  1.0000
  N   N38       1.0  0.56715  0.45025  0.36860  1.0000
  C   C701      1.0  0.91312  0.02277  0.59545  1.0000
  C   C702      1.0  0.91456  0.43796  0.35979  1.0000
  H   H1218     1.0  0.89891  0.37727  0.61663  1.0000
  H   H1219     1.0  0.51186  0.29444  0.46507  1.0000
  H   H1220     1.0  0.67219  0.19254  0.34925  1.0000
  S   S171      1.0  0.90207  0.44083  0.45198  1.0000
  H   H1221     1.0  0.96829  0.07763  0.64244  1.0000
  C   C703      1.0  0.68190  0.22926  0.39270  1.0000
  H   H1222     1.0  0.52398  0.11195  0.57172  1.0000
  H   H1223     1.0  0.83674  0.03772  0.38091  1.0000
  H   H1224     1.0  0.97673  0.40214  0.63263  1.0000
  C   C704      1.0  0.69445  0.18766  0.40237  1.0000
  H   H1225     1.0  0.77344  0.02474  0.42115  1.0000
  H   H1226     1.0  0.73795  0.23246  0.37658  1.0000
  H   H1227     1.0  0.84815  0.06018  0.42668  1.0000
  C   C705      1.0  0.53918  0.35963  0.44615  1.0000
  C   C706      1.0  0.68340  0.17683  0.43043  1.0000
  H   H1228     1.0  0.95009  0.03402  0.33541  1.0000
  C   C707      1.0  0.98701  0.20760  0.48217  1.0000
  H   H1229     1.0  0.96779  0.44316  0.61005  1.0000
  H   H1230     1.0  0.97771  0.46384  0.47796  1.0000
  H   H1231     1.0  0.65801  0.22543  0.39154  1.0000
  H   H1232     1.0  0.68583  0.25145  0.40926  1.0000
  H   H1233     1.0  0.72553  0.27991  0.38859  1.0000
  C   C708      1.0  0.52914  0.23136  0.49932  1.0000
  C   C709      1.0  0.82212  0.45756  0.42873  1.0000
  C   C710      1.0  0.99709  0.33915  0.54055  1.0000
  H   H1234     1.0  0.66253  0.30704  0.39735  1.0000
  H   H1235     1.0  0.89475  0.37789  0.41258  1.0000
  H   H1236     1.0  0.71835  0.18827  0.40339  1.0000
  H   H1237     1.0  0.68788  0.16253  0.38866  1.0000
  C   C711      1.0  0.89683  0.02519  0.36975  1.0000
  H   H1238     1.0  0.55309  0.34284  0.43171  1.0000
  H   H1239     1.0  0.92941  0.26267  0.50595  1.0000
  C   C712      1.0  0.97419  0.38397  0.59069  1.0000
  H   H1240     1.0  0.58666  0.43310  0.33088  1.0000
  H   H1241     1.0  0.92042  0.27678  0.53982  1.0000
  H   H1242     1.0  0.96131  0.42737  0.56021  1.0000
  H   H1243     1.0  0.98870  0.35743  0.59372  1.0000
  H   H1244     1.0  0.63043  0.33935  0.36398  1.0000
  H   H1245     1.0  0.69067  0.19981  0.44542  1.0000
  H   H1246     1.0  0.65944  0.17531  0.43065  1.0000
  H   H1247     1.0  0.69193  0.14646  0.43651  1.0000
  N   N39       1.0  0.53173  0.27702  0.50270  1.0000
  C   C713      1.0  0.53330  0.29628  0.47517  1.0000
  H   H1248     1.0  0.54805  0.11544  0.61775  1.0000
  H   H1249     1.0  0.83841  0.41857  0.47634  1.0000
  C   C714      1.0  0.55846  0.28609  0.51901  1.0000
  C   C715      1.0  0.58745  0.27189  0.50646  1.0000
  C   C716      1.0  0.54252  0.34189  0.47437  1.0000
  H   H1250     1.0  0.73454  0.99440  0.45123  1.0000
  H   H1251     1.0  0.99032  0.43393  0.33136  1.0000
  H   H1252     1.0  0.67283  0.04475  0.58634  1.0000
  C   C717      1.0  0.61317  0.28729  0.52285  1.0000
  H   H1253     1.0  0.85112  0.42859  0.34045  1.0000
  N   N40       1.0  0.69342  0.24560  0.36635  1.0000
  C   C718      1.0  0.98295  0.29014  0.36081  1.0000
  H   H1254     1.0  0.52380  0.33982  0.34813  1.0000
  H   H1255     1.0  0.99384  0.47186  0.37487  1.0000
  C   C719      1.0  0.67422  0.28072  0.35795  1.0000
  H   H1256     1.0  0.74522  0.25628  0.33163  1.0000
  H   H1257     1.0  0.55980  0.31931  0.52372  1.0000
  H   H1258     1.0  0.55735  0.27057  0.53884  1.0000
  H   H1259     1.0  0.59008  0.28291  0.48558  1.0000
  H   H1260     1.0  0.58861  0.23803  0.50629  1.0000
  H   H1261     1.0  0.99027  0.45867  0.52627  1.0000
  H   H1262     1.0  0.56547  0.34544  0.48037  1.0000
  C   C720      1.0  0.69183  0.21162  0.34577  1.0000
  C   C721      1.0  0.82748  0.43447  0.34134  1.0000
  H   H1263     1.0  0.51662  0.28501  0.55967  1.0000
  H   H1264     1.0  0.51709  0.17804  0.57855  1.0000
  H   H1265     1.0  0.52390  0.33986  0.38458  1.0000
  H   H1266     1.0  0.69373  0.33032  0.38185  1.0000
  H   H1267     1.0  0.97105  0.26900  0.34727  1.0000
  H   H1268     1.0  0.63351  0.27525  0.51405  1.0000
  H   H1269     1.0  0.61399  0.32121  0.52262  1.0000
  H   H1270     1.0  0.61171  0.27648  0.54395  1.0000
  C   C722      1.0  0.54701  0.41369  0.36782  1.0000
  H   H1271     1.0  0.71064  0.19062  0.34809  1.0000
  C   C723      1.0  0.90600  0.44239  0.61652  1.0000
  N   N41       1.0  0.71854  0.15745  0.58306  1.0000
  C   C724      1.0  0.70773  0.17300  0.55628  1.0000
  C   C725      1.0  0.70611  0.11559  0.58896  1.0000
  C   C726      1.0  0.70753  0.18645  0.60444  1.0000
  C   C727      1.0  0.75110  0.15685  0.58450  1.0000
  C   C728      1.0  0.76686  0.13093  0.56297  1.0000
  C   C729      1.0  0.71921  0.21541  0.54731  1.0000
  H   H1272     1.0  0.80893  0.13317  0.58288  1.0000
  C   C730      1.0  0.70167  0.08611  0.56492  1.0000
  H   H1273     1.0  0.54556  0.39233  0.44633  1.0000
  H   H1274     1.0  0.67420  0.20023  0.65112  1.0000
  C   C731      1.0  0.70587  0.22835  0.52053  1.0000
  H   H1275     1.0  0.51912  0.16381  0.46580  1.0000
  H   H1276     1.0  0.68369  0.17434  0.55645  1.0000
  H   H1277     1.0  0.71307  0.15164  0.53972  1.0000
  C   C732      1.0  0.79931  0.13954  0.56287  1.0000
  H   H1278     1.0  0.68417  0.11857  0.59807  1.0000
  H   H1279     1.0  0.68374  0.19085  0.60213  1.0000
  H   H1280     1.0  0.71729  0.21724  0.60220  1.0000
  H   H1281     1.0  0.75975  0.18856  0.58381  1.0000
  H   H1282     1.0  0.76507  0.32285  0.37106  1.0000
  H   H1283     1.0  0.75878  0.13721  0.54247  1.0000
  H   H1284     1.0  0.76418  0.09795  0.56747  1.0000
  H   H1285     1.0  0.71374  0.23965  0.56199  1.0000
  H   H1286     1.0  0.74300  0.21450  0.54462  1.0000
  C   C733      1.0  0.81535  0.42799  0.47527  1.0000
  H   H1287     1.0  0.68403  0.09773  0.55189  1.0000
  H   H1288     1.0  0.72122  0.08304  0.55242  1.0000
  C   C734      1.0  0.55703  0.05849  0.59895  1.0000
  H   H1289     1.0  0.80232  0.40233  0.46711  1.0000
  H   H1290     1.0  0.79680  0.00360  0.44565  1.0000
  N   N42       1.0  0.81159  0.99497  0.40460  1.0000
  H   H1291     1.0  0.73685  0.17530  0.63859  1.0000
  H   H1292     1.0  0.68207  0.23147  0.52252  1.0000
  H   H1293     1.0  0.71481  0.25839  0.51438  1.0000
  H   H1294     1.0  0.71089  0.20571  0.50459  1.0000
  H   H1295     1.0  0.54917  0.23014  0.59776  1.0000
  H   H1296     1.0  0.95784  0.27015  0.53006  1.0000
  H   H1297     1.0  0.98874  0.02873  0.33421  1.0000
  C   C735      1.0  0.73999  0.27956  0.34711  1.0000
  H   H1298     1.0  0.98169  0.17826  0.38249  1.0000
  H   H1299     1.0  0.80777  0.43477  0.49596  1.0000
  C   C736      1.0  0.53549  0.08883  0.61092  1.0000
  C   C737      1.0  0.93768  0.32646  0.51532  1.0000
  H   H1300     1.0  0.52545  0.07385  0.62856  1.0000
  C   C738      1.0  0.99860  0.43489  0.51243  1.0000
  H   H1301     1.0  0.80355  0.17181  0.55721  1.0000
  H   H1302     1.0  0.75842  0.14453  0.60417  1.0000
  C   C739      1.0  0.83050  0.11179  0.40615  1.0000
  H   H1303     1.0  0.52923  0.36069  0.48807  1.0000
  C   C740      1.0  0.52146  0.46921  0.49243  1.0000
  H   H1304     1.0  0.57253  0.36681  0.34658  1.0000
  C   C741      1.0  0.82499  0.40748  0.61018  1.0000
  H   H1305     1.0  0.94191  0.33809  0.55817  1.0000
  C   C742      1.0  0.97784  0.40273  0.56228  1.0000
  H   H1306     1.0  0.54669  0.21989  0.48606  1.0000
  C   C743      1.0  0.83860  0.97729  0.41695  1.0000
  H   H1307     1.0  0.65208  0.37661  0.38150  1.0000
  H   H1308     1.0  0.54825  0.27890  0.46182  1.0000
  H   H1309     1.0  0.58871  0.40295  0.41439  1.0000
  H   H1310     1.0  0.95244  0.32925  0.49795  1.0000
  C   C744      1.0  0.76871  0.29824  0.35606  1.0000
  C   C745      1.0  0.50203  0.17000  0.48094  1.0000
  H   H1311     1.0  0.68924  0.02347  0.55667  1.0000
  C   C746      1.0  0.82710  0.06877  0.41762  1.0000
  C   C747      1.0  0.97887  0.39657  0.51244  1.0000
  H   H1312     1.0  0.50141  0.07274  0.58349  1.0000
  H   H1313     1.0  0.84747  0.11225  0.39040  1.0000
  H   H1314     1.0  0.96478  0.16462  0.42872  1.0000
  C   C748      1.0  0.99960  0.45426  0.48462  1.0000
  C   C749      1.0  0.61977  0.24894  0.64956  1.0000
  C   C750      1.0  0.71338  0.17389  0.63407  1.0000
  H   H1315     1.0  0.51628  0.35781  0.43951  1.0000
  C   C751      1.0  0.78762  0.99783  0.42526  1.0000
  H   H1316     1.0  0.62006  0.43085  0.44989  1.0000
  H   H1317     1.0  0.53443  0.17421  0.62919  1.0000
  H   H1318     1.0  0.71057  0.02965  0.58669  1.0000
  C   C752      1.0  0.67212  0.31692  0.37801  1.0000
  H   H1319     1.0  0.56906  0.07285  0.58214  1.0000
  H   H1320     1.0  0.57606  0.36423  0.38237  1.0000
  H   H1321     1.0  0.80974  0.12272  0.39755  1.0000
  C   C753      1.0  0.69306  0.04343  0.57439  1.0000
  H   H1322     1.0  0.78203  0.98527  0.37158  1.0000
  H   H1323     1.0  0.81613  0.40735  0.33300  1.0000
  C   C754      1.0  0.94563  0.35527  0.53927  1.0000
  H   H1324     1.0  0.91591  0.33518  0.50772  1.0000
  H   H1325     1.0  0.65192  0.26928  0.35426  1.0000
  H   H1326     1.0  0.96710  0.31127  0.37021  1.0000
  H   H1327     1.0  0.79422  0.44712  0.37039  1.0000
  H   H1328     1.0  0.84569  0.40814  0.59895  1.0000
  C   C755      1.0  0.53755  0.33726  0.36633  1.0000
  H   H1329     1.0  0.84459  0.99448  0.43536  1.0000
  H   H1330     1.0  0.98245  0.24959  0.39454  1.0000
  H   H1331     1.0  0.66136  0.36241  0.34758  1.0000
  H   H1332     1.0  0.52176  0.05348  0.33182  1.0000
  H   H1333     1.0  0.92912  0.38021  0.53974  1.0000
  C   C756      1.0  0.88962  0.01887  0.34249  1.0000
  H   H1334     1.0  0.81072  0.07034  0.43383  1.0000
  H   H1335     1.0  0.84390  0.37351  0.64246  1.0000
  H   H1336     1.0  0.81004  0.11953  0.54781  1.0000
  C   C757      1.0  0.69800  0.20273  0.65356  1.0000
  C   C758      1.0  0.81843  0.03784  0.39530  1.0000
  H   H1337     1.0  0.79961  0.05081  0.38417  1.0000
  H   H1338     1.0  0.99571  0.31937  0.52237  1.0000
  C   C759      1.0  0.91242  0.02057  0.62377  1.0000
  C   C760      1.0  0.90185  0.40494  0.40199  1.0000
  H   H1339     1.0  0.89116  0.05354  0.37962  1.0000
  H   H1340     1.0  0.71964  0.09946  0.60414  1.0000
  H   H1341     1.0  0.81179  0.38180  0.60231  1.0000
  C   C761      1.0  0.50315  0.43761  0.50165  1.0000
  H   H1342     1.0  0.70560  0.14257  0.63847  1.0000
  C   C762      1.0  0.53273  0.23497  0.61371  1.0000
  C   C763      1.0  0.98128  0.41534  0.61253  1.0000
  H   H1343     1.0  0.82849  0.99631  0.34754  1.0000
  C   C764      1.0  0.50222  0.17600  0.59607  1.0000
  C   C765      1.0  0.83106  0.40192  0.64015  1.0000
  H   H1344     1.0  0.95742  0.40745  0.50502  1.0000
  C   C766      1.0  0.51231  0.10146  0.59002  1.0000
  H   H1345     1.0  0.84383  0.44284  0.42970  1.0000
  H   H1346     1.0  0.60588  0.41563  0.35936  1.0000
  C   C767      1.0  0.52349  0.99551  0.52119  1.0000
  C   C768      1.0  0.51786  0.19474  0.62082  1.0000
  H   H1347     1.0  0.70465  0.23492  0.65012  1.0000
  H   H1348     1.0  0.84439  0.42817  0.64692  1.0000
  C   C769      1.0  0.90735  0.39893  0.65694  1.0000
  N   N43       1.0  0.97557  0.37364  0.53874  1.0000
  H   H1349     1.0  0.98718  0.37594  0.49636  1.0000
  C   C770      1.0  0.91338  0.98696  0.58008  1.0000
  H   H1350     1.0  0.50193  0.20138  0.63693  1.0000
  H   H1351     1.0  0.65429  0.44136  0.34660  1.0000
  C   C771      1.0  0.80253  0.39950  0.65632  1.0000
  H   H1352     1.0  0.82263  0.41320  0.38158  1.0000
  H   H1353     1.0  0.97514  0.29490  0.44616  1.0000
  C   C772      1.0  0.91162  0.98266  0.63712  1.0000
  H   H1354     1.0  0.99154  0.31847  0.55749  1.0000
  H   H1355     1.0  0.72709  0.30443  0.33793  1.0000
  C   C773      1.0  0.97705  0.14095  0.41749  1.0000
  C   C774      1.0  0.64260  0.46444  0.33438  1.0000
  H   H1356     1.0  0.81356  0.43682  0.60648  1.0000
  H   H1357     1.0  0.85733  0.46891  0.38507  1.0000
  H   H1358     1.0  0.50844  0.32779  0.52031  1.0000
  H   H1359     1.0  0.80707  0.43376  0.42114  1.0000
  H   H1360     1.0  0.78946  0.37368  0.64828  1.0000
  C   C775      1.0  0.99609  0.16076  0.39608  1.0000
  H   H1361     1.0  0.87828  0.04254  0.33158  1.0000
  H   H1362     1.0  0.61797  0.43304  0.40080  1.0000
  H   H1363     1.0  0.77989  0.31174  0.33844  1.0000
  H   H1364     1.0  0.99835  0.30856  0.34875  1.0000
  S   S172      1.0  0.91566  0.98768  0.54437  1.0000
  H   H1365     1.0  0.55513  0.46168  0.41000  1.0000
  C   C776      1.0  0.81199  0.46607  0.45778  1.0000
  H   H1366     1.0  0.50527  0.42690  0.52211  1.0000
  H   H1367     1.0  0.53259  0.41554  0.34990  1.0000
  C   C777      1.0  0.91149  0.99484  0.38409  1.0000
  H   H1368     1.0  0.58388  0.45072  0.45246  1.0000
  S   S173      1.0  0.92059  0.00041  0.41866  1.0000
  H   H1369     1.0  0.82225  0.46132  0.32859  1.0000
  H   H1370     1.0  0.50684  0.15230  0.49943  1.0000
  H   H1371     1.0  0.50636  0.47113  0.36770  1.0000
  C   C778      1.0  0.59348  0.44212  0.35157  1.0000
  H   H1372     1.0  0.99521  0.37139  0.40895  1.0000
  H   H1373     1.0  0.52981  0.98851  0.63267  1.0000
  C   C779      1.0  0.57482  0.46156  0.39720  1.0000
  H   H1374     1.0  0.99031  0.12304  0.43192  1.0000
  H   H1375     1.0  0.85725  0.98138  0.40328  1.0000
  C   C780      1.0  0.89698  0.98226  0.32921  1.0000
  H   H1376     1.0  0.99892  0.41880  0.56242  1.0000
  H   H1377     1.0  0.97997  0.39955  0.38126  1.0000
  H   H1378     1.0  0.78992  0.42737  0.65101  1.0000
  C   C781      1.0  0.99891  0.26626  0.38266  1.0000
  C   C782      1.0  0.99939  0.39622  0.39425  1.0000
  C   C783      1.0  0.50033  0.21572  0.48711  1.0000
  H   H1379     1.0  0.78870  0.47418  0.45783  1.0000
  C   C784      1.0  0.92038  0.47403  0.37434  1.0000
  H   H1380     1.0  0.55081  0.97697  0.48848  1.0000
  C   C785      1.0  0.50773  0.97529  0.63249  1.0000
  Fe  Fe85      1.0  0.90401  0.38620  0.80428  1.0000
  S   S174      1.0  0.89270  0.31939  0.80702  1.0000
  S   S175      1.0  0.90937  0.43619  0.83656  1.0000
  Fe  Fe86      1.0  0.91125  0.38174  0.74207  1.0000
  S   S176      1.0  0.90146  0.31411  0.74110  1.0000
  S   S177      1.0  0.92099  0.42833  0.70840  1.0000
  Fe  Fe87      1.0  0.86529  0.32983  0.77000  1.0000
  S   S178      1.0  0.82183  0.29840  0.76196  1.0000
  Fe  Fe88      1.0  0.92963  0.30815  0.77812  1.0000
  S   S179      1.0  0.96223  0.25913  0.79254  1.0000
  S   S180      1.0  0.87396  0.39733  0.76923  1.0000
  S   S181      1.0  0.94206  0.37486  0.77715  1.0000
  Fe  Fe89      1.0  0.58174  0.34523  0.76709  1.0000
  S   S182      1.0  0.57166  0.27811  0.76376  1.0000
  S   S183      1.0  0.54209  0.38549  0.77752  1.0000
  Fe  Fe90      1.0  0.64716  0.32632  0.76460  1.0000
  S   S184      1.0  0.64062  0.25815  0.76145  1.0000
  S   S185      1.0  0.69045  0.36049  0.76813  1.0000
  Fe  Fe91      1.0  0.60560  0.27377  0.73150  1.0000
  S   S186      1.0  0.59296  0.22842  0.69798  1.0000
  Fe  Fe92      1.0  0.60697  0.26675  0.79372  1.0000
  S   S187      1.0  0.59625  0.21711  0.82463  1.0000
  S   S188      1.0  0.61367  0.34208  0.73268  1.0000
  S   S189      1.0  0.61557  0.33383  0.79902  1.0000
  Fe  Fe93      1.0  0.89862  0.03803  0.95090  1.0000
  S   S190      1.0  0.89122  0.10605  0.95059  1.0000
  H   H1381     1.0  0.51056  0.16829  0.76573  1.0000
  H   H1382     1.0  0.76783  0.25941  0.74992  1.0000
  H   H1383     1.0  0.82755  0.35935  0.71637  1.0000
  H   H1384     1.0  0.71656  0.28200  0.75232  1.0000
  H   H1385     1.0  0.90563  0.36897  0.66594  1.0000
  C   C786      1.0  0.91403  0.43268  0.67310  1.0000
  H   H1386     1.0  0.81525  0.45299  0.85954  1.0000
  S   S191      1.0  0.61877  0.09561  0.97719  1.0000
  S   S192      1.0  0.61395  0.21497  0.95179  1.0000
  H   H1387     1.0  0.74442  0.39882  0.78177  1.0000
  C   C787      1.0  0.77660  0.38730  0.69842  1.0000
  H   H1388     1.0  0.93477  0.02645  0.88495  1.0000
  N   N44       1.0  0.98019  0.30061  0.89043  1.0000
  H   H1389     1.0  0.79571  0.37611  0.77960  1.0000
  C   C788      1.0  0.76282  0.28992  0.75691  1.0000
  C   C789      1.0  0.73367  0.30260  0.75832  1.0000
  H   H1390     1.0  0.88028  0.21832  0.75721  1.0000
  C   C790      1.0  0.60941  0.35717  0.95094  1.0000
  H   H1391     1.0  0.97490  0.09864  0.74475  1.0000
  H   H1392     1.0  0.54211  0.10756  0.94591  1.0000
  C   C791      1.0  0.52678  0.43347  0.76739  1.0000
  H   H1393     1.0  0.79997  0.30678  0.69386  1.0000
  C   C792      1.0  0.94493  0.31842  0.92907  1.0000
  C   C793      1.0  0.98784  0.35047  0.85071  1.0000
  C   C794      1.0  0.50946  0.23352  0.69598  1.0000
  C   C795      1.0  0.60230  0.21676  0.85987  1.0000
  C   C796      1.0  0.59495  0.18161  0.87463  1.0000
  C   C797      1.0  0.59890  0.18010  0.90271  1.0000
  C   C798      1.0  0.60999  0.21400  0.91635  1.0000
  C   C799      1.0  0.61747  0.24908  0.90159  1.0000
  C   C800      1.0  0.61384  0.25040  0.87349  1.0000
  H   H1394     1.0  0.58614  0.15535  0.86425  1.0000
  H   H1395     1.0  0.59296  0.15297  0.91381  1.0000
  H   H1396     1.0  0.62625  0.27537  0.91192  1.0000
  H   H1397     1.0  0.61986  0.27746  0.86237  1.0000
  H   H1398     1.0  0.91605  0.20832  0.74444  1.0000
  H   H1399     1.0  0.58137  0.16255  0.66144  1.0000
  H   H1400     1.0  0.65798  0.04475  0.94060  1.0000
  H   H1401     1.0  0.91655  0.12938  0.81905  1.0000
  C   C801      1.0  0.98443  0.22049  0.77749  1.0000
  C   C802      1.0  0.90786  0.44011  0.87228  1.0000
  C   C803      1.0  0.92374  0.00361  0.87313  1.0000
  H   H1402     1.0  0.98463  0.06672  0.92906  1.0000
  C   C804      1.0  0.99236  0.45656  0.96625  1.0000
  C   C805      1.0  0.50470  0.30000  0.81740  1.0000
  H   H1403     1.0  0.52656  0.29585  0.80850  1.0000
  C   C806      1.0  0.95724  0.27759  0.87504  1.0000
  H   H1404     1.0  0.62696  0.27663  0.65940  1.0000
  C   C807      1.0  0.61732  0.39267  0.93241  1.0000
  C   C808      1.0  0.69564  0.24107  0.97137  1.0000
  C   C809      1.0  0.78549  0.31621  0.76452  1.0000
  C   C810      1.0  0.77861  0.35554  0.77358  1.0000
  C   C811      1.0  0.74946  0.36830  0.77483  1.0000
  C   C812      1.0  0.72676  0.34197  0.76724  1.0000
  H   H1405     1.0  0.60149  0.44906  0.79131  1.0000
  H   H1406     1.0  0.56849  0.09805  0.69633  1.0000
  H   H1407     1.0  0.90974  0.21084  0.78029  1.0000
  N   N45       1.0  0.70171  0.14970  0.92052  1.0000
  C   C813      1.0  0.69390  0.11535  0.93933  1.0000
  C   C814      1.0  0.69313  0.18983  0.93325  1.0000
  C   C815      1.0  0.68348  0.14452  0.89551  1.0000
  C   C816      1.0  0.73335  0.14985  0.91286  1.0000
  C   C817      1.0  0.75511  0.13333  0.93411  1.0000
  C   C818      1.0  0.69906  0.07125  0.92848  1.0000
  C   C819      1.0  0.68532  0.17950  0.87451  1.0000
  C   C820      1.0  0.70830  0.20158  0.95988  1.0000
  H   H1408     1.0  0.53528  0.24272  0.83698  1.0000
  C   C821      1.0  0.78628  0.14290  0.92629  1.0000
  C   C822      1.0  0.67093  0.04876  0.92202  1.0000
  C   C823      1.0  0.67214  0.16664  0.84762  1.0000
  H   H1409     1.0  0.67102  0.11846  0.94597  1.0000
  H   H1410     1.0  0.70616  0.11755  0.95833  1.0000
  H   H1411     1.0  0.69749  0.21573  0.91942  1.0000
  H   H1412     1.0  0.66943  0.19005  0.93691  1.0000
  H   H1413     1.0  0.66020  0.14132  0.90097  1.0000
  H   H1414     1.0  0.68935  0.11581  0.88486  1.0000
  H   H1415     1.0  0.73706  0.13125  0.89442  1.0000
  H   H1416     1.0  0.74019  0.18133  0.90724  1.0000
  H   H1417     1.0  0.75333  0.09963  0.93586  1.0000
  H   H1418     1.0  0.75133  0.14627  0.95429  1.0000
  H   H1419     1.0  0.71330  0.07068  0.91060  1.0000
  H   H1420     1.0  0.71048  0.05315  0.94416  1.0000
  H   H1421     1.0  0.70801  0.18884  0.87089  1.0000
  H   H1422     1.0  0.67295  0.20652  0.88163  1.0000
  N   N46       1.0  0.80579  0.39632  0.68640  1.0000
  H   H1423     1.0  0.73161  0.20719  0.95634  1.0000
  H   H1424     1.0  0.84075  0.44879  0.91662  1.0000
  H   H1425     1.0  0.95132  0.01064  0.83866  1.0000
  C   C824      1.0  0.93971  0.31192  0.95904  1.0000
  H   H1426     1.0  0.79150  0.12944  0.90638  1.0000
  H   H1427     1.0  0.78985  0.17645  0.92570  1.0000
  H   H1428     1.0  0.80125  0.12962  0.94143  1.0000
  H   H1429     1.0  0.99480  0.39948  0.82230  1.0000
  C   C825      1.0  0.80683  0.46334  0.96593  1.0000
  H   H1430     1.0  0.96737  0.45726  0.77982  1.0000
  H   H1431     1.0  0.68514  0.14191  0.83826  1.0000
  H   H1432     1.0  0.64961  0.15581  0.85036  1.0000
  H   H1433     1.0  0.67170  0.19319  0.83372  1.0000
  S   S193      1.0  0.87304  0.02832  0.98894  1.0000
  H   H1434     1.0  0.92399  0.18150  0.87466  1.0000
  C   C826      1.0  0.52415  0.32450  0.86009  1.0000
  H   H1435     1.0  0.54392  0.33266  0.94094  1.0000
  H   H1436     1.0  0.86680  0.06835  0.70191  1.0000
  C   C827      1.0  0.99329  0.08161  0.88725  1.0000
  C   C828      1.0  0.53924  0.45826  0.74764  1.0000
  H   H1437     1.0  0.97010  0.21516  0.88676  1.0000
  C   C829      1.0  0.90178  0.41127  0.91702  1.0000
  H   H1438     1.0  0.93297  0.08109  0.82756  1.0000
  H   H1439     1.0  0.89903  0.04320  0.79843  1.0000
  H   H1440     1.0  0.90888  0.22985  0.86447  1.0000
  H   H1441     1.0  0.92657  0.30458  0.91805  1.0000
  C   C830      1.0  0.96873  0.06688  0.74993  1.0000
  H   H1442     1.0  0.59485  0.39605  0.98291  1.0000
  H   H1443     1.0  0.62770  0.29190  0.98491  1.0000
  H   H1444     1.0  0.80545  0.43919  0.95036  1.0000
  C   C831      1.0  0.72584  0.41174  0.70953  1.0000
  C   C832      1.0  0.60329  0.22056  0.66387  1.0000
  H   H1445     1.0  0.94600  0.03433  0.78130  1.0000
  C   C833      1.0  0.51546  0.20681  0.72053  1.0000
  S   S194      1.0  0.88716  0.99318  0.91714  1.0000
  C   C834      1.0  0.51621  0.17388  0.85956  1.0000
  H   H1446     1.0  0.93909  0.20818  0.84627  1.0000
  C   C835      1.0  0.81543  0.44322  0.72754  1.0000
  C   C836      1.0  0.99137  0.39577  0.84419  1.0000
  C   C837      1.0  0.52053  0.16158  0.71237  1.0000
  C   C838      1.0  0.95027  0.23401  0.88539  1.0000
  H   H1447     1.0  0.97021  0.33836  0.83778  1.0000
  H   H1448     1.0  0.53598  0.16236  0.69525  1.0000
  C   C839      1.0  0.97433  0.30016  0.92024  1.0000
  C   C840      1.0  0.84414  0.28963  0.68763  1.0000
  H   H1449     1.0  0.55672  0.26647  0.92173  1.0000
  H   H1450     1.0  0.76810  0.35774  0.69073  1.0000
  H   H1451     1.0  0.97614  0.26857  0.92839  1.0000
  C   C841      1.0  0.99647  0.04355  0.75619  1.0000
  H   H1452     1.0  0.67224  0.23726  0.97556  1.0000
  H   H1453     1.0  0.84122  0.43880  0.69147  1.0000
  H   H1454     1.0  0.52958  0.16830  0.84140  1.0000
  H   H1455     1.0  0.94750  0.13454  0.66752  1.0000
  H   H1456     1.0  0.95856  0.35829  0.88337  1.0000
  H   H1457     1.0  0.83681  0.04296  0.71785  1.0000
  H   H1458     1.0  0.50529  0.28444  0.76222  1.0000
  C   C842      1.0  0.91257  0.09617  0.82135  1.0000
  H   H1459     1.0  0.62580  0.41890  0.94423  1.0000
  C   C843      1.0  0.82644  0.36253  0.69415  1.0000
  H   H1460     1.0  0.69858  0.26678  0.95708  1.0000
  C   C844      1.0  0.98552  0.41095  0.96813  1.0000
  H   H1461     1.0  0.84893  0.37037  0.68809  1.0000
  H   H1462     1.0  0.58342  0.28565  0.96385  1.0000
  C   C845      1.0  0.51704  0.10940  0.78238  1.0000
  C   C846      1.0  0.55010  0.03822  0.68990  1.0000
  C   C847      1.0  0.98485  0.21308  0.74978  1.0000
  N   N47       1.0  0.50559  0.29192  0.84724  1.0000
  H   H1463     1.0  0.90069  0.10184  0.86343  1.0000
  H   H1464     1.0  0.97167  0.41317  0.84987  1.0000
  C   C848      1.0  0.53079  0.09047  0.72321  1.0000
  H   H1465     1.0  0.53945  0.06813  0.73788  1.0000
  H   H1466     1.0  0.70823  0.43277  0.70331  1.0000
  C   C849      1.0  0.96817  0.11189  0.88588  1.0000
  H   H1467     1.0  0.97578  0.00414  0.91340  1.0000
  C   C850      1.0  0.54036  0.30553  0.95380  1.0000
  H   H1468     1.0  0.94011  0.23524  0.90556  1.0000
  H   H1469     1.0  0.51543  0.35554  0.85587  1.0000
  H   H1470     1.0  0.60207  0.33175  0.93789  1.0000
  N   N48       1.0  0.53164  0.13346  0.73422  1.0000
  H   H1471     1.0  0.87110  0.10909  0.84034  1.0000
  S   S195      1.0  0.94070  0.04265  0.97327  1.0000
  C   C851      1.0  0.56167  0.14693  0.74222  1.0000
  C   C852      1.0  0.58226  0.11390  0.75390  1.0000
  H   H1472     1.0  0.55855  0.44797  0.73746  1.0000
  Fe  Fe94      1.0  0.61321  0.16318  0.98255  1.0000
  C   C853      1.0  0.60988  0.13338  0.76488  1.0000
  S   S196      1.0  0.90530  0.45352  0.96478  1.0000
  C   C854      1.0  0.94890  0.10416  0.67737  1.0000
  H   H1473     1.0  0.70565  0.17774  0.97542  1.0000
  H   H1474     1.0  0.57331  0.15961  0.72461  1.0000
  H   H1475     1.0  0.56046  0.17268  0.75686  1.0000
  H   H1476     1.0  0.58878  0.09194  0.73804  1.0000
  H   H1477     1.0  0.57226  0.09608  0.77023  1.0000
  H   H1478     1.0  0.53456  0.21943  0.73112  1.0000
  C   C855      1.0  0.97262  0.07838  0.66432  1.0000
  H   H1479     1.0  0.62106  0.15106  0.74893  1.0000
  H   H1480     1.0  0.53611  0.12126  0.79347  1.0000
  H   H1481     1.0  0.84893  0.28656  0.70937  1.0000
  H   H1482     1.0  0.62475  0.10923  0.77228  1.0000
  H   H1483     1.0  0.60478  0.15418  0.78187  1.0000
  C   C856      1.0  0.90287  0.40634  0.88884  1.0000
  H   H1484     1.0  0.95891  0.05223  0.73202  1.0000
  C   C857      1.0  0.75271  0.41939  0.69249  1.0000
  C   C858      1.0  0.81789  0.43620  0.69680  1.0000
  H   H1485     1.0  0.65789  0.06561  0.90695  1.0000
  H   H1486     1.0  0.89755  0.38504  0.92961  1.0000
  H   H1487     1.0  0.57502  0.33963  0.88973  1.0000
  C   C859      1.0  0.50161  0.44767  0.78035  1.0000
  H   H1488     1.0  0.99504  0.45798  0.68694  1.0000
  H   H1489     1.0  0.52128  0.99263  0.76406  1.0000
  H   H1490     1.0  0.86072  0.08943  0.74980  1.0000
  H   H1491     1.0  0.97056  0.04670  0.67206  1.0000
  H   H1492     1.0  0.59815  0.40282  0.92071  1.0000
  H   H1493     1.0  0.94480  0.35182  0.92552  1.0000
  H   H1494     1.0  0.97465  0.14182  0.89450  1.0000
  H   H1495     1.0  0.92774  0.08850  0.67514  1.0000
  H   H1496     1.0  0.53624  0.23964  0.94700  1.0000
  C   C860      1.0  0.55611  0.32587  0.85064  1.0000
  H   H1497     1.0  0.74608  0.41748  0.67107  1.0000
  S   S197      1.0  0.91146  0.98196  0.67293  1.0000
  H   H1498     1.0  0.82271  0.41615  0.73895  1.0000
  H   H1499     1.0  0.96162  0.11657  0.86465  1.0000
  C   C861      1.0  0.57439  0.35272  0.86916  1.0000
  H   H1500     1.0  0.52863  0.02306  0.68925  1.0000
  H   H1501     1.0  0.76012  0.45098  0.69654  1.0000
  H   H1502     1.0  0.59685  0.35423  0.86140  1.0000
  H   H1503     1.0  0.97127  0.23110  0.73665  1.0000
  H   H1504     1.0  0.96668  0.40341  0.95522  1.0000
  C   C862      1.0  0.51942  0.25073  0.85297  1.0000
  S   S198      1.0  0.97092  0.15025  0.96035  1.0000
  H   H1505     1.0  0.99111  0.31788  0.93122  1.0000
  H   H1506     1.0  0.77838  0.38278  0.72049  1.0000
  C   C863      1.0  0.89096  0.09098  0.84431  1.0000
  H   H1507     1.0  0.99681  0.46940  0.88272  1.0000
  H   H1508     1.0  0.99005  0.42837  0.73027  1.0000
  H   H1509     1.0  0.52382  0.32099  0.88237  1.0000
  H   H1510     1.0  0.52835  0.41940  0.94290  1.0000
  H   H1511     1.0  0.84325  0.41924  0.87120  1.0000
  H   H1512     1.0  0.53054  0.17549  0.87745  1.0000
  C   C864      1.0  0.82370  0.43653  0.87741  1.0000
  H   H1513     1.0  0.56615  0.29518  0.85009  1.0000
  H   H1514     1.0  0.55731  0.33897  0.83010  1.0000
  C   C865      1.0  0.98030  0.34430  0.88080  1.0000
  H   H1515     1.0  0.99496  0.36332  0.89341  1.0000
  H   H1516     1.0  0.86387  0.03721  0.76025  1.0000
  H   H1517     1.0  0.56073  0.03426  0.67009  1.0000
  H   H1518     1.0  0.79268  0.44942  0.73328  1.0000
  C   C866      1.0  0.58575  0.37009  0.97116  1.0000
  N   N49       1.0  0.91836  0.08465  0.76991  1.0000
  C   C867      1.0  0.90089  0.07684  0.79501  1.0000
  C   C868      1.0  0.90485  0.06289  0.74610  1.0000
  C   C869      1.0  0.94801  0.06657  0.77445  1.0000
  C   C870      1.0  0.92206  0.12969  0.76428  1.0000
  C   C871      1.0  0.89403  0.15511  0.76128  1.0000
  H   H1519     1.0  0.99181  0.01056  0.75904  1.0000
  C   C872      1.0  0.87135  0.05999  0.74523  1.0000
  C   C873      1.0  0.86070  0.04595  0.71765  1.0000
  C   C874      1.0  0.90056  0.20088  0.76073  1.0000
  H   H1520     1.0  0.53425  0.09758  0.67945  1.0000
  H   H1521     1.0  0.93779  0.27880  0.96355  1.0000
  H   H1522     1.0  0.87832  0.08761  0.79275  1.0000
  H   H1523     1.0  0.91219  0.07704  0.72697  1.0000
  H   H1524     1.0  0.91233  0.03042  0.74516  1.0000
  H   H1525     1.0  0.89960  0.37652  0.87994  1.0000
  H   H1526     1.0  0.87007  0.01574  0.71247  1.0000
  H   H1527     1.0  0.93595  0.14426  0.77986  1.0000
  H   H1528     1.0  0.93417  0.13428  0.74525  1.0000
  H   H1529     1.0  0.87882  0.14992  0.77807  1.0000
  H   H1530     1.0  0.88329  0.14741  0.74199  1.0000
  H   H1531     1.0  0.78704  0.47030  0.91388  1.0000
  C   C875      1.0  0.52028  0.44047  0.95784  1.0000
  H   H1532     1.0  0.98572  0.05242  0.87839  1.0000
  H   H1533     1.0  0.51790  0.27127  0.92274  1.0000
  C   C876      1.0  0.53769  0.26839  0.93524  1.0000
  H   H1534     1.0  0.91929  0.32724  0.96506  1.0000
  H   H1535     1.0  0.98847  0.00066  0.80630  1.0000
  H   H1536     1.0  0.71810  0.37979  0.70715  1.0000
  H   H1537     1.0  0.95960  0.08307  0.79078  1.0000
  H   H1538     1.0  0.51935  0.30931  0.96426  1.0000
  C   C877      1.0  0.99004  0.19638  0.96853  1.0000
  H   H1539     1.0  0.73063  0.41752  0.73105  1.0000
  H   H1540     1.0  0.95329  0.10863  0.69906  1.0000
  H   H1541     1.0  0.56550  0.38425  0.86995  1.0000
  C   C878      1.0  0.90579  0.44980  0.92907  1.0000
  H   H1542     1.0  0.81443  0.31960  0.66139  1.0000
  Fe  Fe95      1.0  0.93238  0.11092  0.97513  1.0000
  H   H1543     1.0  0.67598  0.01797  0.91386  1.0000
  H   H1544     1.0  0.63429  0.38270  0.91807  1.0000
  H   H1545     1.0  0.59017  0.98201  0.98518  1.0000
  H   H1546     1.0  0.50796  0.08096  0.71987  1.0000
  C   C879      1.0  0.92927  0.21215  0.86648  1.0000
  H   H1547     1.0  0.80747  0.46284  0.68679  1.0000
  H   H1548     1.0  0.94929  0.10014  0.89727  1.0000
  H   H1549     1.0  0.52064  0.07700  0.77690  1.0000
  H   H1550     1.0  0.80727  0.41435  0.88453  1.0000
  H   H1551     1.0  0.56771  0.38378  0.95956  1.0000
  C   C880      1.0  0.54678  0.08375  0.69617  1.0000
  H   H1552     1.0  0.93667  0.29526  0.87432  1.0000
  H   H1553     1.0  0.96373  0.27425  0.85360  1.0000
  C   C881      1.0  0.51103  0.13663  0.75761  1.0000
  H   H1554     1.0  0.88490  0.05835  0.84675  1.0000
  C   C882      1.0  0.81907  0.31931  0.68320  1.0000
  H   H1555     1.0  0.56362  0.02302  0.70543  1.0000
  H   H1556     1.0  0.95764  0.32517  0.97108  1.0000
  H   H1557     1.0  0.62934  0.34809  0.96172  1.0000
  H   H1558     1.0  0.86383  0.30037  0.67704  1.0000
  C   C883      1.0  0.56505  0.29964  0.97464  1.0000
  H   H1559     1.0  0.70350  0.19435  0.67457  1.0000
  C   C884      1.0  0.89987  0.98340  0.88399  1.0000
  H   H1560     1.0  0.53240  0.25186  0.87186  1.0000
  H   H1561     1.0  0.50415  0.10574  0.98000  1.0000
  H   H1562     1.0  0.50264  0.15814  0.94094  1.0000
  H   H1563     1.0  0.52049  0.06940  0.92893  1.0000
  H   H1564     1.0  0.85682  0.47443  0.73204  1.0000
  C   C885      1.0  0.83156  0.46666  0.89974  1.0000
  C   C886      1.0  0.52466  0.10272  0.93087  1.0000
  H   H1565     1.0  0.52823  0.23316  0.68210  1.0000
  H   H1566     1.0  0.99930  0.36183  0.75157  1.0000
  H   H1567     1.0  0.78464  0.47119  0.97253  1.0000
  C   C887      1.0  0.91649  0.47128  0.66073  1.0000
  H   H1568     1.0  0.56682  0.46470  0.80408  1.0000
  H   H1569     1.0  0.83826  0.25899  0.67974  1.0000
  H   H1570     1.0  0.79888  0.04931  0.98783  1.0000
  C   C888      1.0  0.50487  0.98710  0.99107  1.0000
  H   H1571     1.0  0.50577  0.26557  0.70252  1.0000
  H   H1572     1.0  0.84495  0.43627  0.98472  1.0000
  H   H1573     1.0  0.50113  0.14782  0.86218  1.0000
  H   H1574     1.0  0.53224  0.11450  0.91121  1.0000
  N   N50       1.0  0.57460  0.33732  0.98976  1.0000
  H   H1575     1.0  0.50491  0.24349  0.98614  1.0000
  H   H1576     1.0  0.97252  0.47359  0.97179  1.0000
  H   H1577     1.0  0.98457  0.45750  0.92387  1.0000
  C   C889      1.0  0.82244  0.44476  0.99006  1.0000
  H   H1578     1.0  0.53121  0.36254  0.98990  1.0000
  H   H1579     1.0  0.55780  0.27578  0.98906  1.0000
  C   C890      1.0  0.93304  0.99451  0.84680  1.0000
  H   H1580     1.0  0.70673  0.24880  0.99050  1.0000
  H   H1581     1.0  0.98010  0.40279  0.98910  1.0000
  C   C891      1.0  0.98039  0.22400  0.98807  1.0000
  H   H1582     1.0  0.74779  0.02580  0.98983  1.0000
  C   C892      1.0  0.58978  0.47388  0.80199  1.0000
  C   C893      1.0  0.99497  0.98409  0.91513  1.0000
  Fe  Fe96      1.0  0.86825  0.09638  0.99015  1.0000
  H   H1583     1.0  0.51647  0.16881  0.99064  1.0000
  Fe  Fe97      1.0  0.89316  0.92702  0.26232  1.0000
  S   S199      1.0  0.88829  0.85851  0.26346  1.0000
  H   H1584     1.0  0.68213  0.55109  0.09108  1.0000
  Fe  Fe98      1.0  0.90158  0.92769  0.20049  1.0000
  S   S200      1.0  0.89784  0.85886  0.19747  1.0000
  C   C894      1.0  0.78983  0.59436  0.01041  1.0000
  Fe  Fe99      1.0  0.86016  0.86537  0.22651  1.0000
  S   S201      1.0  0.81837  0.82851  0.21956  1.0000
  Fe  Fe100     1.0  0.92622  0.85606  0.23462  1.0000
  S   S202      1.0  0.96521  0.81473  0.24626  1.0000
  S   S203      1.0  0.86257  0.93367  0.22724  1.0000
  S   S204      1.0  0.93238  0.92488  0.23568  1.0000
  Fe  Fe101     1.0  0.57609  0.83591  0.22408  1.0000
  S   S205      1.0  0.57211  0.76723  0.22564  1.0000
  S   S206      1.0  0.53216  0.86711  0.21430  1.0000
  Fe  Fe102     1.0  0.64212  0.82857  0.23247  1.0000
  S   S207      1.0  0.64139  0.75984  0.23445  1.0000
  S   S208      1.0  0.68322  0.86757  0.23731  1.0000
  Fe  Fe103     1.0  0.61110  0.76389  0.19890  1.0000
  S   S209      1.0  0.61130  0.71341  0.16658  1.0000
  Fe  Fe104     1.0  0.60230  0.76761  0.26115  1.0000
  S   S210      1.0  0.58860  0.72092  0.29361  1.0000
  S   S211      1.0  0.61388  0.83237  0.19523  1.0000
  S   S212      1.0  0.60421  0.83664  0.26132  1.0000
  Fe  Fe105     1.0  0.91236  0.52996  0.05385  1.0000
  S   S213      1.0  0.90541  0.59738  0.04599  1.0000
  H   H1585     1.0  0.54426  0.87036  0.02145  1.0000
  C   C895      1.0  0.57749  0.84995  0.06260  1.0000
  Fe  Fe106     1.0  0.61530  0.66078  0.00942  1.0000
  S   S214      1.0  0.61710  0.59399  0.01965  1.0000
  S   S215      1.0  0.61077  0.71556  0.03794  1.0000
  H   H1586     1.0  0.76696  0.78030  0.21226  1.0000
  H   H1587     1.0  0.64936  0.57005  0.07541  1.0000
  H   H1588     1.0  0.77406  0.65486  0.00152  1.0000
  H   H1589     1.0  0.93164  0.88590  0.04119  1.0000
  H   H1590     1.0  0.54181  0.90171  0.29650  1.0000
  C   C896      1.0  0.98777  0.69217  0.03081  1.0000
  H   H1591     1.0  0.66791  0.74668  0.01482  1.0000
  H   H1592     1.0  0.59363  0.80891  0.03239  1.0000
  C   C897      1.0  0.92335  0.94967  0.09148  1.0000
  C   C898      1.0  0.67252  0.56270  0.07211  1.0000
  H   H1593     1.0  0.71451  0.79396  0.21886  1.0000
  H   H1594     1.0  0.55455  0.76817  0.10304  1.0000
  H   H1595     1.0  0.89641  0.80879  0.06281  1.0000
  H   H1596     1.0  0.94887  0.79672  0.05524  1.0000
  C   C899      1.0  0.69828  0.70642  0.09759  1.0000
  H   H1597     1.0  0.95645  0.92040  0.00920  1.0000
  H   H1598     1.0  0.67393  0.53818  0.05671  1.0000
  H   H1599     1.0  0.71434  0.74374  0.14681  1.0000
  N   N51       1.0  0.96388  0.85603  0.01614  1.0000
  S   S216      1.0  0.87451  0.50986  0.02837  1.0000
  C   C900      1.0  0.61188  0.71497  0.13080  1.0000
  C   C901      1.0  0.60767  0.67840  0.11638  1.0000
  C   C902      1.0  0.60756  0.67793  0.08803  1.0000
  C   C903      1.0  0.61169  0.71415  0.07367  1.0000
  C   C904      1.0  0.61614  0.75067  0.08803  1.0000
  C   C905      1.0  0.61641  0.75111  0.11639  1.0000
  H   H1600     1.0  0.60429  0.65020  0.12726  1.0000
  H   H1601     1.0  0.60400  0.64958  0.07731  1.0000
  H   H1602     1.0  0.61973  0.77877  0.07716  1.0000
  H   H1603     1.0  0.62029  0.77937  0.12711  1.0000
  H   H1604     1.0  0.51595  0.74920  0.15136  1.0000
  C   C906      1.0  0.73918  0.61102  0.00020  1.0000
  C   C907      1.0  0.99203  0.56580  0.24531  1.0000
  C   C908      1.0  0.53793  0.75249  0.14290  1.0000
  H   H1605     1.0  0.67600  0.75032  0.14077  1.0000
  H   H1606     1.0  0.53975  0.81984  0.14316  1.0000
  H   H1607     1.0  0.69258  0.62313  0.10262  1.0000
  H   H1608     1.0  0.57411  0.79471  0.14721  1.0000
  H   H1609     1.0  0.86908  0.92200  0.02710  1.0000
  H   H1610     1.0  0.99587  0.93393  0.18946  1.0000
  H   H1611     1.0  0.92121  0.91752  0.12948  1.0000
  H   H1612     1.0  0.56860  0.88138  0.06451  1.0000
  H   H1613     1.0  0.96628  0.50304  0.21924  1.0000
  C   C909      1.0  0.91811  0.94641  0.11931  1.0000
  H   H1614     1.0  0.66314  0.64384  0.08467  1.0000
  C   C910      1.0  0.78094  0.84013  0.22490  1.0000
  C   C911      1.0  0.77148  0.87830  0.23417  1.0000
  C   C912      1.0  0.74163  0.88600  0.23783  1.0000
  C   C913      1.0  0.72070  0.85577  0.23238  1.0000
  C   C914      1.0  0.73017  0.81760  0.22314  1.0000
  C   C915      1.0  0.76001  0.80994  0.21940  1.0000
  H   H1615     1.0  0.78715  0.90190  0.23849  1.0000
  H   H1616     1.0  0.73469  0.91563  0.24497  1.0000
  C   C916      1.0  0.58439  0.84024  0.03325  1.0000
  Fe  Fe107     1.0  0.86925  0.57656  0.01823  1.0000
  H   H1617     1.0  0.96964  0.56810  0.23748  1.0000
  C   C917      1.0  0.93527  0.49735  0.25206  1.0000
  H   H1618     1.0  0.55592  0.51184  0.24102  1.0000
  C   C918      1.0  0.52374  0.62446  0.30195  1.0000
  S   S217      1.0  0.94376  0.52358  0.01942  1.0000
  H   H1619     1.0  0.71616  0.72920  0.09760  1.0000
  H   H1620     1.0  0.54384  0.69843  0.06612  1.0000
  Fe  Fe108     1.0  0.90555  0.50877  0.99328  1.0000
  H   H1621     1.0  0.55096  0.57376  0.21622  1.0000
  H   H1622     1.0  0.54870  0.79595  0.17432  1.0000
  H   H1623     1.0  0.50635  0.90901  0.28229  1.0000
  C   C919      1.0  0.91453  0.47808  0.12158  1.0000
  H   H1624     1.0  0.55092  0.72763  0.15215  1.0000
  C   C920      1.0  0.98553  0.75748  0.20840  1.0000
  H   H1625     1.0  0.53134  0.59790  0.17251  1.0000
  H   H1626     1.0  0.51626  0.81823  0.10027  1.0000
  H   H1627     1.0  0.93641  0.52859  0.26059  1.0000
  H   H1628     1.0  0.84109  0.94830  0.00879  1.0000
  C   C921      1.0  0.73128  0.56996  0.00295  1.0000
  H   H1629     1.0  0.67228  0.67630  0.12867  1.0000
  H   H1630     1.0  0.99764  0.74394  0.05624  1.0000
  H   H1631     1.0  0.91368  0.51717  0.21523  1.0000
  C   C922      1.0  0.51588  0.91585  0.22113  1.0000
  C   C923      1.0  0.51952  0.62181  0.21193  1.0000
  H   H1632     1.0  0.54918  0.73514  0.02338  1.0000
  H   H1633     1.0  0.88980  0.50570  0.24282  1.0000
  C   C924      1.0  0.51864  0.84530  0.28872  1.0000
  H   H1634     1.0  0.74703  0.50948  0.01198  1.0000
  C   C925      1.0  0.94147  0.82804  0.06031  1.0000
  H   H1635     1.0  0.97935  0.53663  0.28258  1.0000
  H   H1636     1.0  0.70007  0.77607  0.00847  1.0000
  H   H1637     1.0  0.68827  0.71699  0.16709  1.0000
  H   H1638     1.0  0.50573  0.80613  0.99460  1.0000
  C   C926      1.0  0.52951  0.94580  0.23670  1.0000
  H   H1639     1.0  0.96865  0.79025  0.01500  1.0000
  C   C927      1.0  0.53078  0.71391  0.02625  1.0000
  C   C928      1.0  0.68647  0.63591  0.08281  1.0000
  H   H1640     1.0  0.93024  0.92298  0.08060  1.0000
  N   N52       1.0  0.99082  0.48780  0.25502  1.0000
  H   H1641     1.0  0.99890  0.48643  0.03198  1.0000
  H   H1642     1.0  0.54299  0.81672  0.02146  1.0000
  H   H1643     1.0  0.58812  0.61320  0.21759  1.0000
  H   H1644     1.0  0.96874  0.93805  0.16363  1.0000
  H   H1645     1.0  0.51403  0.78960  0.24463  1.0000
  N   N53       1.0  0.70358  0.67392  0.07641  1.0000
  C   C929      1.0  0.69265  0.69010  0.04983  1.0000
  C   C930      1.0  0.73543  0.66514  0.07328  1.0000
  C   C931      1.0  0.75066  0.64320  0.09687  1.0000
  C   C932      1.0  0.68884  0.60041  0.06230  1.0000
  C   C933      1.0  0.70434  0.73261  0.04116  1.0000
  C   C934      1.0  0.78136  0.63057  0.08904  1.0000
  H   H1646     1.0  0.53057  0.84174  0.26961  1.0000
  H   H1647     1.0  0.00006  0.92686  0.03528  1.0000
  H   H1648     1.0  0.66865  0.69211  0.05009  1.0000
  H   H1649     1.0  0.69808  0.66873  0.03320  1.0000
  H   H1650     1.0  0.73938  0.64697  0.05472  1.0000
  H   H1651     1.0  0.74765  0.69398  0.07020  1.0000
  H   H1652     1.0  0.73917  0.61506  0.10300  1.0000
  H   H1653     1.0  0.75250  0.66423  0.11427  1.0000
  H   H1654     1.0  0.67919  0.60928  0.04276  1.0000
  H   H1655     1.0  0.71166  0.59133  0.05905  1.0000
  H   H1656     1.0  0.72818  0.73212  0.03908  1.0000
  H   H1657     1.0  0.69840  0.75668  0.05587  1.0000
  H   H1658     1.0  0.78092  0.60823  0.07219  1.0000
  H   H1659     1.0  0.79425  0.65760  0.08286  1.0000
  H   H1660     1.0  0.79229  0.61597  0.10644  1.0000
  H   H1661     1.0  0.54729  0.71642  0.10776  1.0000
  H   H1662     1.0  0.52662  0.76418  0.28758  1.0000
  C   C935      1.0  0.61243  0.66133  0.23525  1.0000
  C   C936      1.0  0.55685  0.84285  0.01546  1.0000
  C   C937      1.0  0.69351  0.69194  0.12697  1.0000
  C   C938      1.0  0.82305  0.95653  0.13659  1.0000
  H   H1663     1.0  0.51329  0.75065  0.20039  1.0000
  H   H1664     1.0  0.50399  0.48048  0.21892  1.0000
  H   H1665     1.0  0.53446  0.64810  0.20979  1.0000
  H   H1666     1.0  0.57548  0.92087  0.00983  1.0000
  H   H1667     1.0  0.53424  0.59895  0.31286  1.0000
  H   H1668     1.0  0.50985  0.64281  0.26299  1.0000
  S   S218      1.0  0.97522  0.62649  0.99624  1.0000
  H   H1669     1.0  0.60126  0.86208  0.02683  1.0000
  C   C939      1.0  0.51917  0.89042  0.29665  1.0000
  H   H1670     1.0  0.71041  0.67039  0.13374  1.0000
  H   H1671     1.0  0.59754  0.84814  0.07483  1.0000
  H   H1672     1.0  0.50082  0.63219  0.17270  1.0000
  C   C940      1.0  0.58683  0.49704  0.27170  1.0000
  H   H1673     1.0  0.93008  0.47586  0.26857  1.0000
  H   H1674     1.0  0.55670  0.66125  0.24866  1.0000
  H   H1675     1.0  0.58799  0.54149  0.24015  1.0000
  C   C941      1.0  0.93806  0.85465  0.03470  1.0000
  H   H1676     1.0  0.90466  0.85508  0.08128  1.0000
  H   H1677     1.0  0.97350  0.90889  0.05845  1.0000
  H   H1678     1.0  0.72299  0.63342  0.99481  1.0000
  S   S219      1.0  0.82618  0.61147  0.01452  1.0000
  H   H1679     1.0  0.67828  0.72405  0.09273  1.0000
  Fe  Fe109     1.0  0.93528  0.58995  0.01057  1.0000
  H   H1680     1.0  0.51233  0.66559  0.09981  1.0000
  H   H1681     1.0  0.62060  0.67153  0.25513  1.0000
  C   C942      1.0  0.50366  0.75794  0.29294  1.0000
  H   H1682     1.0  0.69853  0.72339  0.99809  1.0000
  C   C943      1.0  0.80897  0.97273  0.11087  1.0000
  H   H1683     1.0  0.56171  0.82782  0.07076  1.0000
  C   C944      1.0  0.55083  0.79322  0.15223  1.0000
  H   H1684     1.0  0.63129  0.65452  0.22222  1.0000
  N   N54       1.0  0.50931  0.75278  0.09804  1.0000
  H   H1685     1.0  0.99664  0.63162  0.24296  1.0000
  H   H1686     1.0  0.97090  0.77146  0.19414  1.0000
  S   S220      1.0  0.92950  0.50760  0.09483  1.0000
  H   H1687     1.0  0.59991  0.68635  0.22575  1.0000
  H   H1688     1.0  0.57474  0.63855  0.27596  1.0000
  C   C945      1.0  0.99578  0.66929  0.00821  1.0000
  C   C946      1.0  0.76822  0.62306  0.00392  1.0000
  S   S221      1.0  0.69502  0.55283  0.99812  1.0000
  C   C947      1.0  0.90992  0.49619  0.23241  1.0000
  H   H1689     1.0  0.96871  0.68357  0.04201  1.0000
  C   C948      1.0  0.98621  0.77178  0.23492  1.0000
  H   H1690     1.0  0.84551  0.94613  0.13260  1.0000
  C   C949      1.0  0.57167  0.52840  0.25378  1.0000
  C   C950      1.0  0.84849  0.97080  0.04951  1.0000
  H   H1691     1.0  0.82917  0.93592  0.31873  1.0000
  H   H1692     1.0  0.98509  0.61353  0.27532  1.0000
  H   H1693     1.0  0.55080  0.93986  0.24483  1.0000
  H   H1694     1.0  0.57056  0.57072  0.28738  1.0000
  H   H1695     1.0  0.99574  0.83403  0.04455  1.0000
  H   H1696     1.0  0.52886  0.77509  0.06156  1.0000
  H   H1697     1.0  0.95739  0.84190  0.07430  1.0000
  C   C951      1.0  0.75285  0.54129  0.00963  1.0000
  C   C952      1.0  0.96390  0.48483  0.23800  1.0000
  H   H1698     1.0  0.83168  0.91248  0.03509  1.0000
  C   C953      1.0  0.51762  0.94454  0.03794  1.0000
  C   C954      1.0  0.84737  0.93629  0.02883  1.0000
  H   H1699     1.0  0.50662  0.68646  0.05794  1.0000
  H   H1700     1.0  0.85500  0.95713  0.06898  1.0000
  C   C955      1.0  0.78189  0.55336  0.01343  1.0000
  H   H1701     1.0  0.60738  0.59999  0.24816  1.0000
  C   C956      1.0  0.69307  0.72806  0.14648  1.0000
  H   H1702     1.0  0.79809  0.53103  0.01885  1.0000
  C   C957      1.0  0.99407  0.90087  0.04852  1.0000
  H   H1703     1.0  0.60474  0.51170  0.28304  1.0000
  H   H1704     1.0  0.53777  0.54422  0.28073  1.0000
  H   H1705     1.0  0.53058  0.82839  0.30452  1.0000
  C   C958      1.0  0.53815  0.74713  0.11180  1.0000
  H   H1706     1.0  0.53698  0.68361  0.01797  1.0000
  C   C959      1.0  0.69188  0.74532  0.01397  1.0000
  N   N55       1.0  0.54412  0.59848  0.25634  1.0000
  C   C960      1.0  0.53347  0.58694  0.22866  1.0000
  C   C961      1.0  0.55575  0.56121  0.27084  1.0000
  C   C962      1.0  0.51835  0.61411  0.27194  1.0000
  C   C963      1.0  0.56653  0.63193  0.25541  1.0000
  C   C964      1.0  0.59371  0.62330  0.23817  1.0000
  C   C965      1.0  0.91286  0.82442  0.07543  1.0000
  H   H1707     1.0  0.81053  0.93011  0.14435  1.0000
  H   H1708     1.0  0.52280  0.92817  0.05619  1.0000
  C   C966      1.0  0.52397  0.70970  0.05615  1.0000
  C   C967      1.0  0.51351  0.75088  0.06799  1.0000
  H   H1709     1.0  0.91610  0.80614  0.09398  1.0000
  H   H1710     1.0  0.53772  0.65183  0.30350  1.0000
  H   H1711     1.0  0.51723  0.56204  0.23031  1.0000
  H   H1712     1.0  0.80892  0.94735  0.09614  1.0000
  C   C968      1.0  0.99952  0.60696  0.25805  1.0000
  H   H1713     1.0  0.51169  0.72540  0.01500  1.0000
  C   C969      1.0  0.99169  0.86115  0.03157  1.0000
  H   H1714     1.0  0.98400  0.94401  0.27663  1.0000
  C   C970      1.0  0.99487  0.53046  0.26599  1.0000
  C   C971      1.0  0.98337  0.95575  0.17699  1.0000
  H   H1715     1.0  0.57137  0.48326  0.28610  1.0000
  H   H1716     1.0  0.79280  0.48661  0.23367  1.0000
  H   H1717     1.0  0.91875  0.84296  0.02380  1.0000
  H   H1718     1.0  0.97014  0.97500  0.19064  1.0000
  H   H1719     1.0  0.51036  0.68069  0.13418  1.0000
  H   H1720     1.0  0.80259  0.96892  0.05492  1.0000
  H   H1721     1.0  0.83003  0.47709  0.24239  1.0000
  H   H1722     1.0  0.95404  0.47940  0.14449  1.0000
  H   H1723     1.0  0.51019  0.89460  0.31714  1.0000
  C   C972      1.0  0.51166  0.60705  0.18375  1.0000
  C   C973      1.0  0.96505  0.81613  0.00093  1.0000
  C   C974      1.0  0.96032  0.89190  0.99743  1.0000
  H   H1724     1.0  0.50033  0.59149  0.27088  1.0000
  H   H1725     1.0  0.50029  0.72554  0.28703  1.0000
  H   H1726     1.0  0.60538  0.50294  0.33630  1.0000
  S   S222      1.0  0.89591  0.55845  0.48014  1.0000
  C   C975      1.0  0.96230  0.82737  0.55648  1.0000
  Fe  Fe110     1.0  0.92874  0.56390  0.51374  1.0000
  S   S223      1.0  0.97358  0.59548  0.51005  1.0000
  Fe  Fe111     1.0  0.86205  0.55375  0.51280  1.0000
  S   S224      1.0  0.81957  0.58972  0.50680  1.0000
  C   C976      1.0  0.50796  0.53362  0.35485  1.0000
  Fe  Fe112     1.0  0.60667  0.64607  0.45069  1.0000
  S   S225      1.0  0.61655  0.57943  0.44380  1.0000
  S   S226      1.0  0.60689  0.69994  0.42074  1.0000
  Fe  Fe113     1.0  0.57764  0.56562  0.46986  1.0000
  S   S227      1.0  0.54248  0.52220  0.45274  1.0000
  S   S228      1.0  0.56666  0.63242  0.47464  1.0000
  S   S229      1.0  0.63491  0.65027  0.48790  1.0000
  H   H1727     1.0  0.51440  0.67450  0.52286  1.0000
  C   C977      1.0  0.58962  0.67709  0.34110  1.0000
  C   C978      1.0  0.78224  0.57674  0.50179  1.0000
  C   C979      1.0  0.76195  0.60829  0.49758  1.0000
  C   C980      1.0  0.73230  0.59976  0.49324  1.0000
  H   H1728     1.0  0.76922  0.63970  0.49768  1.0000
  H   H1729     1.0  0.71717  0.62449  0.49001  1.0000
  H   H1730     1.0  0.92339  0.95373  0.48391  1.0000
  H   H1731     1.0  0.54556  0.76156  0.33432  1.0000
  C   C981      1.0  0.61268  0.73986  0.37214  1.0000
  C   C982      1.0  0.60452  0.70323  0.38491  1.0000
  C   C983      1.0  0.59326  0.67162  0.36909  1.0000
  H   H1732     1.0  0.61494  0.77402  0.33489  1.0000
  H   H1733     1.0  0.50353  0.54599  0.65285  1.0000
  H   H1734     1.0  0.62174  0.76437  0.38403  1.0000
  H   H1735     1.0  0.58690  0.64326  0.37849  1.0000
  H   H1736     1.0  0.52139  0.56141  0.35774  1.0000
  H   H1737     1.0  0.62112  0.49092  0.36849  1.0000
  H   H1738     1.0  0.58686  0.80740  0.64379  1.0000
  H   H1739     1.0  0.68097  0.74070  0.63264  1.0000
  H   H1740     1.0  0.50573  0.67953  0.39691  1.0000
  H   H1741     1.0  0.56747  0.78327  0.39558  1.0000
  H   H1742     1.0  0.58303  0.49356  0.39823  1.0000
  H   H1743     1.0  0.93365  0.79897  0.52742  1.0000
  C   C984      1.0  0.55362  0.76159  0.51799  1.0000
  C   C985      1.0  0.69671  0.73097  0.59274  1.0000
  C   C986      1.0  0.50680  0.80159  0.59739  1.0000
  Fe  Fe114     1.0  0.89894  0.49494  0.54727  1.0000
  S   S230      1.0  0.89471  0.56394  0.54661  1.0000
  H   H1744     1.0  0.53062  0.66287  0.61973  1.0000
  S   S231      1.0  0.93421  0.49531  0.51629  1.0000
  Fe  Fe115     1.0  0.59537  0.63201  0.51147  1.0000
  S   S232      1.0  0.60395  0.56408  0.50809  1.0000
  S   S233      1.0  0.57591  0.66630  0.54775  1.0000
  Fe  Fe116     1.0  0.64248  0.58254  0.48246  1.0000
  S   S234      1.0  0.68532  0.54626  0.48636  1.0000
  H   H1745     1.0  0.50406  0.92776  0.58490  1.0000
  C   C987      1.0  0.81293  0.93798  0.33512  1.0000
  H   H1746     1.0  0.55781  0.83570  0.44632  1.0000
  N   N56       1.0  0.99878  0.86926  0.58526  1.0000
  H   H1747     1.0  0.81292  0.81374  0.63914  1.0000
  C   C988      1.0  0.97434  0.68085  0.51689  1.0000
  H   H1748     1.0  0.99747  0.85449  0.46800  1.0000
  H   H1749     1.0  0.95125  0.67897  0.51999  1.0000
  C   C989      1.0  0.72239  0.55932  0.49276  1.0000
  C   C990      1.0  0.74271  0.52774  0.49692  1.0000
  C   C991      1.0  0.77229  0.53632  0.50164  1.0000
  Fe  Fe117     1.0  0.90000  0.49046  0.48454  1.0000
  H   H1750     1.0  0.78736  0.51169  0.50523  1.0000
  C   C992      1.0  0.61207  0.70448  0.63090  1.0000
  C   C993      1.0  0.58498  0.71804  0.62208  1.0000
  C   C994      1.0  0.57476  0.70704  0.59630  1.0000
  C   C995      1.0  0.59107  0.68163  0.57919  1.0000
  C   C996      1.0  0.61820  0.66824  0.58797  1.0000
  C   C997      1.0  0.62857  0.67960  0.61363  1.0000
  H   H1751     1.0  0.57176  0.73655  0.63520  1.0000
  H   H1752     1.0  0.55386  0.71787  0.58968  1.0000
  H   H1753     1.0  0.63104  0.64866  0.57514  1.0000
  H   H1754     1.0  0.64945  0.66858  0.62024  1.0000
  H   H1755     1.0  0.92080  0.50369  0.41335  1.0000
  H   H1756     1.0  0.94226  0.91474  0.50266  1.0000
  C   C998      1.0  0.99095  0.93351  0.41516  1.0000
  C   C999      1.0  0.52660  0.74156  0.33796  1.0000
  H   H1757     1.0  0.99443  0.87011  0.54196  1.0000
  C   C1000     1.0  0.91158  0.94684  0.62173  1.0000
  C   C1001     1.0  0.98047  0.86694  0.56011  1.0000
  H   H1758     1.0  0.91433  0.50610  0.62369  1.0000
  H   H1759     1.0  0.53742  0.48241  0.50575  1.0000
  H   H1760     1.0  0.91063  0.91746  0.63162  1.0000
  H   H1761     1.0  0.65708  0.49111  0.33145  1.0000
  C   C1002     1.0  0.84444  0.52452  0.42048  1.0000
  C   C1003     1.0  0.91175  0.95200  0.34354  1.0000
  C   C1004     1.0  0.61500  0.47815  0.34863  1.0000
  N   N57       1.0  0.82302  0.49363  0.40986  1.0000
  H   H1762     1.0  0.80930  0.90672  0.34312  1.0000
  C   C1005     1.0  0.85228  0.55949  0.40073  1.0000
  C   C1006     1.0  0.99714  0.69998  0.59002  1.0000
  C   C1007     1.0  0.50490  0.81186  0.44850  1.0000
  C   C1008     1.0  0.72713  0.75976  0.63102  1.0000
  C   C1009     1.0  0.86732  0.59487  0.41506  1.0000
  C   C1010     1.0  0.69630  0.75567  0.61881  1.0000
  H   H1763     1.0  0.86502  0.50907  0.42611  1.0000
  H   H1764     1.0  0.83692  0.53859  0.43951  1.0000
  H   H1765     1.0  0.99276  0.64021  0.60706  1.0000
  C   C1011     1.0  0.80181  0.97094  0.38027  1.0000
  H   H1766     1.0  0.75988  0.96414  0.47062  1.0000
  H   H1767     1.0  0.53961  0.93904  0.59616  1.0000
  H   H1768     1.0  0.50546  0.52752  0.33302  1.0000
  H   H1769     1.0  0.98395  0.95520  0.36122  1.0000
  H   H1770     1.0  0.82269  0.92828  0.44281  1.0000
  C   C1012     1.0  0.95516  0.58428  0.42968  1.0000
  H   H1771     1.0  0.86738  0.54788  0.38513  1.0000
  H   H1772     1.0  0.83279  0.57154  0.39044  1.0000
  H   H1773     1.0  0.95497  0.61442  0.44000  1.0000
  H   H1774     1.0  0.88281  0.91836  0.41750  1.0000
  H   H1775     1.0  0.66172  0.85520  0.64263  1.0000
  H   H1776     1.0  0.99286  0.49726  0.58057  1.0000
  H   H1777     1.0  0.74507  0.56202  0.40205  1.0000
  C   C1013     1.0  0.56015  0.89984  0.55523  1.0000
  H   H1778     1.0  0.74544  0.58097  0.43602  1.0000
  H   H1779     1.0  0.88807  0.58443  0.42387  1.0000
  H   H1780     1.0  0.87199  0.61963  0.40046  1.0000
  H   H1781     1.0  0.85336  0.60754  0.43121  1.0000
  H   H1782     1.0  0.58369  0.87196  0.40957  1.0000
  C   C1014     1.0  0.98629  0.57109  0.42443  1.0000
  H   H1783     1.0  0.67460  0.72986  0.58404  1.0000
  H   H1784     1.0  0.97661  0.96018  0.41103  1.0000
  C   C1015     1.0  0.97870  0.87107  0.60907  1.0000
  H   H1785     1.0  0.98327  0.59020  0.57788  1.0000
  H   H1786     1.0  0.54603  0.85424  0.63389  1.0000
  C   C1016     1.0  0.91891  0.95830  0.37081  1.0000
  H   H1787     1.0  0.99690  0.85336  0.43159  1.0000
  C   C1017     1.0  0.55133  0.48610  0.35626  1.0000
  H   H1788     1.0  0.79082  0.52439  0.38522  1.0000
  C   C1018     1.0  0.57402  0.88424  0.52934  1.0000
  H   H1789     1.0  0.54765  0.48051  0.33440  1.0000
  H   H1790     1.0  0.95864  0.52355  0.57869  1.0000
  H   H1791     1.0  0.56759  0.89172  0.61824  1.0000
  H   H1792     1.0  0.94020  0.92514  0.44130  1.0000
  C   C1019     1.0  0.52089  0.91843  0.59976  1.0000
  H   H1793     1.0  0.55720  0.87700  0.51415  1.0000
  C   C1020     1.0  0.53572  0.76045  0.46976  1.0000
  H   H1794     1.0  0.53454  0.74442  0.52537  1.0000
  H   H1795     1.0  0.55256  0.73643  0.46652  1.0000
  H   H1796     1.0  0.77661  0.48666  0.40678  1.0000
  H   H1797     1.0  0.86587  0.88507  0.44162  1.0000
  H   H1798     1.0  0.56482  0.80614  0.48843  1.0000
  H   H1799     1.0  0.71138  0.74524  0.57781  1.0000
  H   H1800     1.0  0.98833  0.93553  0.48407  1.0000
  H   H1801     1.0  0.52187  0.78899  0.61264  1.0000
  H   H1802     1.0  0.99737  0.57085  0.44424  1.0000
  C   C1021     1.0  0.50690  0.65964  0.61880  1.0000
  H   H1803     1.0  0.61405  0.79836  0.61859  1.0000
  C   C1022     1.0  0.55692  0.80551  0.43597  1.0000
  H   H1804     1.0  0.82456  0.49090  0.46737  1.0000
  H   H1805     1.0  0.95910  0.91487  0.65429  1.0000
  C   C1023     1.0  0.99549  0.56343  0.58558  1.0000
  C   C1024     1.0  0.91275  0.94903  0.59342  1.0000
  H   H1806     1.0  0.98342  0.90002  0.36384  1.0000
  C   C1025     1.0  0.53708  0.86958  0.56597  1.0000
  H   H1807     1.0  0.94431  0.56176  0.44290  1.0000
  H   H1808     1.0  0.99624  0.59437  0.41122  1.0000
  C   C1026     1.0  0.57621  0.83104  0.60413  1.0000
  C   C1027     1.0  0.52266  0.75074  0.42287  1.0000
  H   H1809     1.0  0.97607  0.74609  0.52314  1.0000
  H   H1810     1.0  0.68203  0.90213  0.64109  1.0000
  C   C1028     1.0  0.98998  0.64522  0.51129  1.0000
  H   H1811     1.0  0.77785  0.93155  0.42876  1.0000
  H   H1812     1.0  0.58072  0.65248  0.32927  1.0000
  C   C1029     1.0  0.56243  0.81277  0.40558  1.0000
  C   C1030     1.0  0.50342  0.84830  0.60133  1.0000
  H   H1813     1.0  0.91280  0.92113  0.58174  1.0000
  H   H1814     1.0  0.58874  0.84219  0.58667  1.0000
  H   H1815     1.0  0.68737  0.78631  0.61401  1.0000
  C   C1031     1.0  0.86727  0.91714  0.43448  1.0000
  H   H1816     1.0  0.96232  0.89560  0.60624  1.0000
  C   C1032     1.0  0.67967  0.87269  0.65192  1.0000
  H   H1817     1.0  0.53136  0.71035  0.33056  1.0000
  H   H1818     1.0  0.61246  0.48216  0.43890  1.0000
  H   H1819     1.0  0.83042  0.91181  0.40878  1.0000
  H   H1820     1.0  0.94595  0.82444  0.57261  1.0000
  H   H1821     1.0  0.51925  0.76509  0.40301  1.0000
  H   H1822     1.0  0.52795  0.80870  0.49991  1.0000
  N   N58       1.0  0.52970  0.78265  0.44376  1.0000
  H   H1823     1.0  0.52322  0.91347  0.47862  1.0000
  C   C1033     1.0  0.54557  0.78767  0.49367  1.0000
  C   C1034     1.0  0.95198  0.91568  0.45969  1.0000
  H   H1824     1.0  0.51453  0.79361  0.57700  1.0000
  C   C1035     1.0  0.50918  0.92907  0.62817  1.0000
  C   C1036     1.0  0.76644  0.96118  0.42732  1.0000
  H   H1825     1.0  0.96472  0.89265  0.55934  1.0000
  C   C1037     1.0  0.91233  0.47620  0.63274  1.0000
  H   H1826     1.0  0.73943  0.77905  0.61659  1.0000
  C   C1038     1.0  0.58820  0.84114  0.40118  1.0000
  H   H1827     1.0  0.73772  0.72921  0.62996  1.0000
  H   H1828     1.0  0.54980  0.92972  0.55084  1.0000
  H   H1829     1.0  0.54358  0.82621  0.39524  1.0000
  C   C1039     1.0  0.83745  0.93193  0.42546  1.0000
  C   C1040     1.0  0.55535  0.58010  0.63840  1.0000
  H   H1830     1.0  0.51615  0.74408  0.47680  1.0000
  C   C1041     1.0  0.55438  0.86401  0.61389  1.0000
  H   H1831     1.0  0.98352  0.52640  0.55095  1.0000
  H   H1832     1.0  0.59584  0.61377  0.63530  1.0000
  H   H1833     1.0  0.54150  0.72980  0.42012  1.0000
  H   H1834     1.0  0.57105  0.73966  0.51268  1.0000
  H   H1835     1.0  0.54859  0.58866  0.61775  1.0000
  H   H1836     1.0  0.56165  0.78131  0.53451  1.0000
  C   C1042     1.0  0.91664  0.47567  0.40250  1.0000
  H   H1837     1.0  0.93007  0.93448  0.38172  1.0000
  H   H1838     1.0  0.56455  0.51441  0.35767  1.0000
  H   H1839     1.0  0.95655  0.88273  0.45784  1.0000
  H   H1840     1.0  0.55138  0.63977  0.65558  1.0000
  C   C1043     1.0  0.97973  0.94173  0.46355  1.0000
  H   H1841     1.0  0.94299  0.58698  0.41053  1.0000
  H   H1842     1.0  0.92752  0.50098  0.36369  1.0000
  C   C1044     1.0  0.93134  0.92167  0.48332  1.0000
  H   H1843     1.0  0.50575  0.68835  0.57948  1.0000
  H   H1844     1.0  0.52299  0.73988  0.35986  1.0000
  H   H1845     1.0  0.73544  0.49635  0.49671  1.0000
  C   C1045     1.0  0.94602  0.82783  0.52975  1.0000
  H   H1846     1.0  0.97090  0.52619  0.39562  1.0000
  H   H1847     1.0  0.91245  0.90106  0.48115  1.0000
  C   C1046     1.0  0.79311  0.51138  0.40579  1.0000
  C   C1047     1.0  0.51621  0.93323  0.49476  1.0000
  H   H1848     1.0  0.60972  0.84882  0.63258  1.0000
  H   H1849     1.0  0.87554  0.93650  0.45115  1.0000
  C   C1048     1.0  0.70784  0.84853  0.65017  1.0000
  H   H1850     1.0  0.84482  0.95339  0.36453  1.0000
  C   C1049     1.0  0.60903  0.74535  0.34416  1.0000
  H   H1851     1.0  0.83397  0.50328  0.36798  1.0000
  H   H1852     1.0  0.99018  0.49889  0.64569  1.0000
  C   C1050     1.0  0.58832  0.58217  0.63937  1.0000
  C   C1051     1.0  0.53199  0.96940  0.50031  1.0000
  H   H1853     1.0  0.51740  0.87359  0.55325  1.0000
  H   H1854     1.0  0.59244  0.84419  0.37932  1.0000
  C   C1052     1.0  0.83429  0.47831  0.38314  1.0000
  H   H1855     1.0  0.73118  0.93956  0.45227  1.0000
  C   C1053     1.0  0.78359  0.54612  0.42524  1.0000
  H   H1856     1.0  0.54450  0.83815  0.56150  1.0000
  H   H1857     1.0  0.79525  0.93951  0.38582  1.0000
  H   H1858     1.0  0.98334  0.69151  0.57266  1.0000
  H   H1859     1.0  0.97922  0.50708  0.42775  1.0000
  H   H1860     1.0  0.50032  0.70171  0.44473  1.0000
  C   C1054     1.0  0.59801  0.82086  0.62617  1.0000
  H   H1861     1.0  0.98701  0.95054  0.56372  1.0000
  H   H1862     1.0  0.56547  0.80236  0.59796  1.0000
  H   H1863     1.0  0.96137  0.83036  0.51268  1.0000
  H   H1864     1.0  0.51374  0.59338  0.42863  1.0000
  H   H1865     1.0  0.78450  0.74976  0.64390  1.0000
  H   H1866     1.0  0.79503  0.57495  0.42035  1.0000
  H   H1867     1.0  0.57751  0.90545  0.57016  1.0000
  H   H1868     1.0  0.70386  0.69910  0.59667  1.0000
  C   C1055     1.0  0.51934  0.48324  0.46596  1.0000
  H   H1869     1.0  0.60790  0.82843  0.41087  1.0000
  S   S235      1.0  0.86467  0.48542  0.51546  1.0000
  H   H1870     1.0  0.91754  0.92370  0.33364  1.0000
  H   H1871     1.0  0.96590  0.84245  0.61061  1.0000
  N   N59       1.0  0.52952  0.87434  0.59529  1.0000
  H   H1872     1.0  0.50902  0.63375  0.57839  1.0000
  C   C1056     1.0  0.97021  0.88545  0.65836  1.0000
  H   H1873     1.0  0.57648  0.78848  0.44296  1.0000
  C   C1057     1.0  0.75119  0.55454  0.42305  1.0000
  H   H1874     1.0  0.93051  0.85374  0.52918  1.0000
  H   H1875     1.0  0.97613  0.79968  0.55667  1.0000
  H   H1876     1.0  0.52444  0.50540  0.39053  1.0000
  H   H1877     1.0  0.71304  0.84352  0.62867  1.0000
  C   C1058     1.0  0.98859  0.71906  0.51879  1.0000
  H   H1878     1.0  0.78841  0.53909  0.44646  1.0000
  C   C1059     1.0  0.98738  0.52790  0.41187  1.0000
  C   C1060     1.0  0.59712  0.71414  0.32843  1.0000
  H   H1879     1.0  0.51188  0.83750  0.46169  1.0000
  H   H1880     1.0  0.58704  0.85637  0.53335  1.0000
  H   H1881     1.0  0.59759  0.56171  0.62378  1.0000
  H   H1882     1.0  0.75231  0.96024  0.40925  1.0000
  H   H1883     1.0  0.98799  0.56289  0.36111  1.0000
  H   H1884     1.0  0.99259  0.56109  0.60758  1.0000
  C   C1061     1.0  0.98187  0.52525  0.57318  1.0000
  C   C1062     1.0  0.52174  0.49704  0.36907  1.0000
  H   H1885     1.0  0.52301  0.91591  0.64422  1.0000
  C   C1063     1.0  0.99296  0.87662  0.63693  1.0000
  H   H1886     1.0  0.73860  0.52768  0.43002  1.0000
  C   C1064     1.0  0.99741  0.92756  0.36464  1.0000
  H   H1887     1.0  0.79245  0.94988  0.32647  1.0000
  H   H1888     1.0  0.97169  0.97390  0.46381  1.0000
  H   H1889     1.0  0.76063  0.82212  0.64636  1.0000
  H   H1890     1.0  0.58846  0.90815  0.52098  1.0000
  H   H1891     1.0  0.50661  0.85347  0.41407  1.0000
  C   C1065     1.0  0.74686  0.96522  0.45187  1.0000
  H   H1892     1.0  0.54917  0.54789  0.64216  1.0000
  H   H1893     1.0  0.97674  0.90640  0.41349  1.0000
  H   H1894     1.0  0.98736  0.95299  0.59992  1.0000
  H   H1895     1.0  0.98334  0.71560  0.60512  1.0000
  C   C1066     1.0  0.82415  0.96640  0.35717  1.0000
  C   C1067     1.0  0.81279  0.79700  0.65853  1.0000
  Fe  Fe118     1.0  0.91372  0.91552  0.76330  1.0000
  S   S236      1.0  0.90657  0.84734  0.76014  1.0000
  H   H1896     1.0  0.72672  0.60248  0.91176  1.0000
  Fe  Fe119     1.0  0.90636  0.92768  0.70185  1.0000
  S   S237      1.0  0.89812  0.86066  0.69474  1.0000
  C   C1068     1.0  0.98969  0.94691  0.89719  1.0000
  Fe  Fe120     1.0  0.86961  0.86408  0.73179  1.0000
  S   S238      1.0  0.82667  0.82784  0.73445  1.0000
  Fe  Fe121     1.0  0.93524  0.84823  0.72341  1.0000
  S   S239      1.0  0.97527  0.81044  0.71025  1.0000
  S   S240      1.0  0.87570  0.93215  0.73712  1.0000
  S   S241      1.0  0.94454  0.91535  0.72837  1.0000
  Fe  Fe122     1.0  0.58161  0.83643  0.71961  1.0000
  S   S242      1.0  0.57505  0.76803  0.72166  1.0000
  S   S243      1.0  0.54145  0.87309  0.70525  1.0000
  Fe  Fe123     1.0  0.64753  0.82618  0.73143  1.0000
  S   S244      1.0  0.64401  0.75766  0.73446  1.0000
  S   S245      1.0  0.68958  0.86440  0.73210  1.0000
  Fe  Fe124     1.0  0.61567  0.76168  0.69742  1.0000
  C   C1069     1.0  0.99060  0.74139  0.74070  1.0000
  Fe  Fe125     1.0  0.60356  0.76937  0.75861  1.0000
  S   S246      1.0  0.58532  0.73089  0.79346  1.0000
  S   S247      1.0  0.62115  0.82957  0.69326  1.0000
  S   S248      1.0  0.60813  0.83824  0.75777  1.0000
  C   C1070     1.0  0.91040  0.48366  0.91253  1.0000
  H   H1897     1.0  0.98139  0.50579  0.79109  1.0000
  H   H1898     1.0  0.53670  0.75705  0.89729  1.0000
  H   H1899     1.0  0.77684  0.77725  0.74391  1.0000
  H   H1900     1.0  0.52170  0.69638  0.66509  1.0000
  H   H1901     1.0  0.72376  0.79003  0.74358  1.0000
  H   H1902     1.0  0.53700  0.68792  0.91589  1.0000
  Fe  Fe126     1.0  0.65394  0.59041  0.98982  1.0000
  Fe  Fe127     1.0  0.62226  0.64384  0.94836  1.0000
  S   S249      1.0  0.62435  0.57550  0.95485  1.0000
  S   S250      1.0  0.63353  0.67657  0.90886  1.0000
  H   H1903     1.0  0.73948  0.91557  0.72382  1.0000
  C   C1071     1.0  0.50468  0.63614  0.81694  1.0000
  H   H1904     1.0  0.59734  0.81624  0.93989  1.0000
  C   C1072     1.0  0.95471  0.60189  0.92427  1.0000
  H   H1905     1.0  0.79254  0.90298  0.72458  1.0000
  C   C1073     1.0  0.76878  0.80753  0.73943  1.0000
  C   C1074     1.0  0.73858  0.81464  0.73915  1.0000
  H   H1906     1.0  0.53600  0.85684  0.95018  1.0000
  C   C1075     1.0  0.98186  0.81882  0.79173  1.0000
  H   H1907     1.0  0.65203  0.65024  0.81760  1.0000
  C   C1076     1.0  0.93041  0.92838  0.96195  1.0000
  C   C1077     1.0  0.52163  0.91685  0.71682  1.0000
  C   C1078     1.0  0.53054  0.94054  0.73874  1.0000
  H   H1908     1.0  0.55010  0.60034  0.67965  1.0000
  H   H1909     1.0  0.55017  0.93251  0.74934  1.0000
  H   H1910     1.0  0.75726  0.54389  0.90081  1.0000
  C   C1079     1.0  0.59834  0.71988  0.82646  1.0000
  C   C1080     1.0  0.58010  0.69911  0.84452  1.0000
  C   C1081     1.0  0.59021  0.68597  0.86990  1.0000
  C   C1082     1.0  0.61877  0.69378  0.87767  1.0000
  C   C1083     1.0  0.63675  0.71542  0.85986  1.0000
  C   C1084     1.0  0.62667  0.72836  0.83445  1.0000
  H   H1911     1.0  0.55812  0.69260  0.83857  1.0000
  H   H1912     1.0  0.57610  0.66941  0.88326  1.0000
  H   H1913     1.0  0.65887  0.72170  0.86559  1.0000
  H   H1914     1.0  0.64106  0.74409  0.82084  1.0000
  C   C1085     1.0  0.51119  0.81312  0.97342  1.0000
  H   H1915     1.0  0.57060  0.56665  0.89448  1.0000
  C   C1086     1.0  0.52534  0.50485  0.98226  1.0000
  H   H1916     1.0  0.98073  0.88768  0.67833  1.0000
  C   C1087     1.0  0.72868  0.74290  0.67978  1.0000
  C   C1088     1.0  0.98466  0.77391  0.96227  1.0000
  H   H1917     1.0  0.58258  0.87859  0.95472  1.0000
  C   C1089     1.0  0.88547  0.95412  0.86812  1.0000
  C   C1090     1.0  0.51482  0.61333  0.93069  1.0000
  H   H1918     1.0  0.96541  0.52240  0.92092  1.0000
  H   H1919     1.0  0.78751  0.75333  0.68003  1.0000
  N   N60       1.0  0.56176  0.84255  0.98551  1.0000
  H   H1920     1.0  0.72399  0.56532  0.93835  1.0000
  H   H1921     1.0  0.91535  0.50515  0.87175  1.0000
  H   H1922     1.0  0.59078  0.60941  0.82984  1.0000
  C   C1091     1.0  0.78868  0.83922  0.73428  1.0000
  C   C1092     1.0  0.77773  0.87821  0.72863  1.0000
  C   C1093     1.0  0.74752  0.88525  0.72820  1.0000
  C   C1094     1.0  0.72764  0.85359  0.73341  1.0000
  C   C1095     1.0  0.57507  0.80216  0.97775  1.0000
  H   H1923     1.0  0.98507  0.52161  0.87925  1.0000
  H   H1924     1.0  0.92154  0.49772  0.67290  1.0000
  C   C1096     1.0  0.98459  0.58228  0.92644  1.0000
  C   C1097     1.0  0.83047  0.55441  0.92114  1.0000
  H   H1925     1.0  0.62922  0.56220  0.81948  1.0000
  H   H1926     1.0  0.96116  0.48366  0.73380  1.0000
  H   H1927     1.0  0.60467  0.86917  0.98287  1.0000
  C   C1098     1.0  0.83360  0.59278  0.93924  1.0000
  C   C1099     1.0  0.52997  0.59520  0.90566  1.0000
  H   H1928     1.0  0.58644  0.50758  0.76499  1.0000
  H   H1929     1.0  0.91303  0.51359  0.92143  1.0000
  H   H1930     1.0  0.60074  0.64394  0.80451  1.0000
  C   C1100     1.0  0.85640  0.62197  0.92814  1.0000
  C   C1101     1.0  0.56065  0.58124  0.91236  1.0000
  H   H1931     1.0  0.57177  0.57772  0.74771  1.0000
  H   H1932     1.0  0.96448  0.77613  0.95024  1.0000
  H   H1933     1.0  0.78372  0.56050  0.95686  1.0000
  H   H1934     1.0  0.82448  0.56491  0.90061  1.0000
  H   H1935     1.0  0.86694  0.93830  0.87627  1.0000
  H   H1936     1.0  0.95700  0.63478  0.91926  1.0000
  C   C1102     1.0  0.54961  0.61453  0.79144  1.0000
  H   H1937     1.0  0.51404  0.74095  0.70332  1.0000
  C   C1103     1.0  0.62972  0.59273  0.80982  1.0000
  C   C1104     1.0  0.53300  0.84908  0.97176  1.0000
  C   C1105     1.0  0.51864  0.73611  0.89219  1.0000
  H   H1938     1.0  0.84016  0.58409  0.95982  1.0000
  H   H1939     1.0  0.81301  0.61005  0.94058  1.0000
  Fe  Fe128     1.0  0.58737  0.58438  0.98402  1.0000
  C   C1106     1.0  0.91166  0.47875  0.88435  1.0000
  C   C1107     1.0  0.58199  0.87631  0.97703  1.0000
  H   H1940     1.0  0.61536  0.52269  0.78635  1.0000
  C   C1108     1.0  0.59313  0.63666  0.74948  1.0000
  H   H1941     1.0  0.68156  0.73928  0.68586  1.0000
  H   H1942     1.0  0.64145  0.62262  0.84753  1.0000
  H   H1943     1.0  0.93463  0.53887  0.77682  1.0000
  C   C1109     1.0  0.52209  0.79050  0.80365  1.0000
  H   H1944     1.0  0.55601  0.48283  0.95323  1.0000
  C   C1110     1.0  0.60551  0.63475  0.72107  1.0000
  H   H1945     1.0  0.87771  0.60651  0.92659  1.0000
  H   H1946     1.0  0.84988  0.63336  0.90801  1.0000
  H   H1947     1.0  0.85869  0.64854  0.94189  1.0000
  H   H1948     1.0  0.93051  0.50054  0.80232  1.0000
  H   H1949     1.0  0.67437  0.87944  0.67323  1.0000
  S   S251      1.0  0.58372  0.65217  0.97539  1.0000
  H   H1950     1.0  0.59077  0.61785  0.70745  1.0000
  C   C1111     1.0  0.50175  0.51086  0.75427  1.0000
  H   H1951     1.0  0.52328  0.72201  0.87235  1.0000
  H   H1952     1.0  0.97156  0.74728  0.75265  1.0000
  H   H1953     1.0  0.59317  0.74867  0.91920  1.0000
  H   H1954     1.0  0.53070  0.63226  0.94196  1.0000
  H   H1955     1.0  0.63937  0.59031  0.78953  1.0000
  C   C1112     1.0  0.70586  0.80739  0.66557  1.0000
  H   H1956     1.0  0.51307  0.80917  0.82028  1.0000
  H   H1957     1.0  0.61820  0.94395  0.98341  1.0000
  C   C1113     1.0  0.50715  0.80060  0.77708  1.0000
  C   C1114     1.0  0.78114  0.54050  0.93895  1.0000
  H   H1958     1.0  0.67160  0.60524  0.82775  1.0000
  C   C1115     1.0  0.89469  0.94517  0.84173  1.0000
  H   H1959     1.0  0.99459  0.86002  0.82400  1.0000
  H   H1960     1.0  0.53823  0.67413  0.69418  1.0000
  H   H1961     1.0  0.85256  0.54125  0.91896  1.0000
  H   H1962     1.0  0.98066  0.89799  0.98622  1.0000
  H   H1963     1.0  0.60821  0.66626  0.71317  1.0000
  C   C1116     1.0  0.59889  0.61086  0.80888  1.0000
  H   H1964     1.0  0.57264  0.65424  0.74835  1.0000
  C   C1117     1.0  0.64983  0.61943  0.82673  1.0000
  H   H1965     1.0  0.53696  0.51551  0.72611  1.0000
  H   H1966     1.0  0.75883  0.81557  0.68171  1.0000
  H   H1967     1.0  0.88330  0.92260  0.82985  1.0000
  H   H1968     1.0  0.59485  0.95305  0.95473  1.0000
  H   H1969     1.0  0.99995  0.79690  0.79019  1.0000
  C   C1118     1.0  0.97678  0.49984  0.74703  1.0000
  H   H1970     1.0  0.97179  0.50135  0.69180  1.0000
  C   C1119     1.0  0.53216  0.61021  0.81797  1.0000
  C   C1120     1.0  0.57992  0.79576  0.94718  1.0000
  H   H1971     1.0  0.53492  0.60517  0.77474  1.0000
  H   H1972     1.0  0.97220  0.88133  0.79866  1.0000
  H   H1973     1.0  0.54547  0.79755  0.80202  1.0000
  H   H1974     1.0  0.96837  0.79437  0.83045  1.0000
  H   H1975     1.0  0.55350  0.64788  0.78875  1.0000
  H   H1976     1.0  0.68404  0.79445  0.66215  1.0000
  H   H1977     1.0  0.94320  0.59962  0.94373  1.0000
  H   H1978     1.0  0.96958  0.93116  0.90354  1.0000
  C   C1121     1.0  0.53593  0.47663  0.96352  1.0000
  C   C1122     1.0  0.70132  0.68916  0.70610  1.0000
  H   H1979     1.0  0.82407  0.52364  0.97243  1.0000
  S   S252      1.0  0.93167  0.95477  0.79791  1.0000
  H   H1980     1.0  0.51074  0.71941  0.93294  1.0000
  H   H1981     1.0  0.70450  0.70615  0.72522  1.0000
  C   C1123     1.0  0.99701  0.76695  0.71898  1.0000
  C   C1124     1.0  0.52689  0.49668  0.74126  1.0000
  H   H1982     1.0  0.74571  0.61081  0.94285  1.0000
  H   H1983     1.0  0.60914  0.74383  0.95207  1.0000
  C   C1125     1.0  0.91863  0.96522  0.83090  1.0000
  H   H1984     1.0  0.69637  0.70012  0.66408  1.0000
  C   C1126     1.0  0.51576  0.70335  0.91389  1.0000
  C   C1127     1.0  0.96728  0.49054  0.77615  1.0000
  H   H1985     1.0  0.52540  0.57811  0.82140  1.0000
  H   H1986     1.0  0.51055  0.58687  0.94412  1.0000
  H   H1987     1.0  0.57177  0.54447  0.82012  1.0000
  H   H1988     1.0  0.56013  0.80205  0.93535  1.0000
  H   H1989     1.0  0.77918  0.58818  0.90732  1.0000
  H   H1990     1.0  0.94026  0.86438  0.96157  1.0000
  C   C1128     1.0  0.98230  0.53649  0.93384  1.0000
  H   H1991     1.0  0.60824  0.57590  0.75804  1.0000
  H   H1992     1.0  0.92279  0.95234  0.97610  1.0000
  H   H1993     1.0  0.81431  0.81937  0.67529  1.0000
  C   C1129     1.0  0.70015  0.71873  0.68238  1.0000
  S   S253      1.0  0.89868  0.57435  0.98205  1.0000
  H   H1994     1.0  0.95053  0.93880  0.95203  1.0000
  C   C1130     1.0  0.98890  0.81247  0.97917  1.0000
  H   H1995     1.0  0.53170  0.61741  0.88901  1.0000
  S   S254      1.0  0.62600  0.71606  0.66350  1.0000
  C   C1131     1.0  0.99159  0.86155  0.80183  1.0000
  H   H1996     1.0  0.51657  0.78059  0.76127  1.0000
  H   H1997     1.0  0.97282  0.53292  0.74321  1.0000
  C   C1132     1.0  0.76511  0.56490  0.91674  1.0000
  H   H1998     1.0  0.73408  0.75541  0.69997  1.0000
  H   H1999     1.0  0.51994  0.78508  0.96390  1.0000
  H   H2000     1.0  0.51008  0.55893  0.68705  1.0000
  H   H2001     1.0  0.57420  0.60782  0.91824  1.0000
  C   C1133     1.0  0.51716  0.68126  0.68445  1.0000
  C   C1134     1.0  0.73879  0.58712  0.92820  1.0000
  C   C1135     1.0  0.82293  0.50173  0.95535  1.0000
  H   H2002     1.0  0.82635  0.50807  0.72613  1.0000
  H   H2003     1.0  0.62701  0.61964  0.72114  1.0000
  N   N61       1.0  0.57775  0.59107  0.78979  1.0000
  H   H2004     1.0  0.60878  0.65399  0.76193  1.0000
  N   N62       1.0  0.72936  0.77683  0.65923  1.0000
  C   C1136     1.0  0.58789  0.59313  0.76098  1.0000
  C   C1137     1.0  0.58901  0.75193  0.94106  1.0000
  H   H2005     1.0  0.70614  0.81486  0.68734  1.0000
  H   H2006     1.0  0.56041  0.55867  0.92903  1.0000
  H   H2007     1.0  0.97201  0.82180  0.77145  1.0000
  H   H2008     1.0  0.71914  0.66676  0.70349  1.0000
  H   H2009     1.0  0.56208  0.77632  0.98571  1.0000
  H   H2010     1.0  0.54995  0.53775  0.79106  1.0000
  H   H2011     1.0  0.55258  0.92886  0.98103  1.0000
  H   H2012     1.0  0.74550  0.71956  0.67534  1.0000
  H   H2013     1.0  0.91469  0.88007  0.98673  1.0000
  H   H2014     1.0  0.51798  0.56781  0.89870  1.0000
  N   N63       1.0  0.80979  0.52209  0.93099  1.0000
  H   H2015     1.0  0.98688  0.95656  0.87599  1.0000
  C   C1138     1.0  0.57196  0.54724  0.79780  1.0000
  H   H2016     1.0  0.94168  0.58684  0.90833  1.0000
  C   C1139     1.0  0.95907  0.80032  0.81025  1.0000
  C   C1140     1.0  0.93646  0.50563  0.78102  1.0000
  H   H2017     1.0  0.57159  0.73033  0.94667  1.0000
  H   H2018     1.0  0.91357  0.92401  0.94630  1.0000
  H   H2019     1.0  0.52184  0.87621  0.98041  1.0000
  H   H2020     1.0  0.54493  0.62041  0.83556  1.0000
  H   H2021     1.0  0.68057  0.67222  0.70738  1.0000
  C   C1141     1.0  0.57452  0.91964  0.98759  1.0000
  H   H2022     1.0  0.50989  0.66880  0.81317  1.0000
  H   H2023     1.0  0.79700  0.50790  0.89027  1.0000
  C   C1142     1.0  0.59237  0.51380  0.78624  1.0000
  H   H2024     1.0  0.51955  0.75753  0.80845  1.0000
  C   C1143     1.0  0.93530  0.88818  0.97679  1.0000
  S   S255      1.0  0.65377  0.65771  0.98185  1.0000
  H   H2025     1.0  0.84583  0.49299  0.95148  1.0000
  H   H2026     1.0  0.98891  0.83886  0.96527  1.0000
  C   C1144     1.0  0.75804  0.79856  0.66229  1.0000
  C   C1145     1.0  0.80476  0.49182  0.90860  1.0000
  H   H2027     1.0  0.94025  0.82122  0.81225  1.0000
  H   H2028     1.0  0.95137  0.77090  0.80170  1.0000
  H   H2029     1.0  0.83213  0.77690  0.65933  1.0000
  C   C1146     1.0  0.59581  0.95142  0.97700  1.0000
  H   H2030     1.0  0.51246  0.83261  0.77171  1.0000
  H   H2031     1.0  0.76584  0.51631  0.94545  1.0000
  H   H2032     1.0  0.59933  0.47744  0.82233  1.0000
  H   H2033     1.0  0.98343  0.74646  0.97531  1.0000
  H   H2034     1.0  0.92094  0.48863  0.76811  1.0000
  S   S256      1.0  0.54370  0.55153  0.99024  1.0000
  H   H2035     1.0  0.98858  0.93290  0.82730  1.0000
  H   H2036     1.0  0.83125  0.48427  0.75850  1.0000
  C   C1147     1.0  0.50158  0.71200  0.70242  1.0000
  H   H2037     1.0  0.97319  0.53561  0.95451  1.0000
  H   H2038     1.0  0.99554  0.58702  0.90694  1.0000
  H   H2039     1.0  0.84864  0.48708  0.89180  1.0000
  H   H2040     1.0  0.59664  0.79847  0.98740  1.0000
  C   C1148     1.0  0.99456  0.49176  0.68882  1.0000
  C   C1149     1.0  0.78542  0.77121  0.66116  1.0000
  H   H2041     1.0  0.72511  0.86783  0.65914  1.0000
  C   C1150     1.0  0.83359  0.47980  0.73649  1.0000
  H   H2042     1.0  0.99871  0.87824  0.74916  1.0000
  H   H2043     1.0  0.99646  0.59892  0.94242  1.0000
  H   H2044     1.0  0.99638  0.97312  0.93618  1.0000
  H   H2045     1.0  0.99644  0.93667  0.77717  1.0000
  H   H2046     1.0  0.59648  0.57234  0.65934  1.0000
  N   N64       1.0  0.50918  0.61102  0.66012  1.0000
  C   C1151     1.0  0.51409  0.97481  0.74701  1.0000
  C   C1152     1.0  0.54179  0.60930  0.65948  1.0000
  H   H2047     1.0  0.94383  0.80950  0.99130  1.0000
  H   H2048     1.0  0.95400  0.86046  0.65914  1.0000
