data_image0
_chemical_formula_structural       FeS2FeS2FeSFeS3FeS2FeS2FeCFeS3FeS2FeS2FeSFeS3C2H3C6H4C2HCHCH2CH2CH3CHCH3C2H3C6H6NC9HC2H19C2H3C2HCH4CHCH3NHCHCHCHC2H3C2H8CH6CH3C2H3CH2CH5CH3CH5CH2C2HCH2CNH6CHC3HCH3CHC2H3C2HCHC2H6C2H2CHCH7NH2C3H7CHCH4C3H11C3HFeSHFeS2FeSFeS3FeS2FeS2FeSFeHS2FeS2FeS2Fe2S3H2C3H4SC4H4C7H9CHCH2C6H5CH3SHNH5CH2NCH4C2H2CHCH4CH2CH11CHCH2C2H2CH7C2H5CH3C3HC4H2C5HCHCH4CH3CHCNHCH4CHCHNC6HCH2CH7C2HCH2C2H4CH2CH4CH2CH2NC12H16CH11CH3C4HC2H4C3H2CHC2HCH9C2H2NH5CHCFeSHFeS2FeSFeS3FeS2FeS2FeSFeS3CFeS2HSH3CH3C2H3CH5C7H2CHC6H4C6H4C6H6NH7C2HCH5C3H2CH3CNC9HC2H17C2H5NH4CH4CH2CHC7HCH2SHNSHC2H3CH3C3H6CHC3H6CHSH4CH3CH2CHCHCSH2CHCH2CH3CH3CH4CHFeCH2CHCH4C2NH3CH4C3H6CHCH3CH4CH2CH3C2H5C4HCH3NFeHCSH9CHFeH2C2HCH3CHC2H2C2H5SH2FeS2FeS2Fe2S3FeH2FeHSHCFeSHSFeS2FeS2FeSFeS3HC6H4C3H7C2H2C7H5C2H2C6H5NCHCH3C3NC2HC3H2CHCH3CHCHCH9CHCH5SHCH2NHC2H5C2H3CH4CSH11CH3CH2CH3C2H2CH6CH3CH3SH5CH2CFeHNC12H6CHCH6CHC2SC2H7C2HCH6CFeS2FeS2FeSFeS3FeS2FeS2FeSFeS3FeS2FeS2CFeSFeSH4CH2C9H3C3HCHC2H2C3HC6H4CH3CH3C2HCHCHNC4H2NHCH6CH4SH4C4HC3H9C3HCHCHCH2CH3NH2C2HCHCHCH3C4H2CH2CH3CHCH8NH2C3HC2H5CH2C3HCNC4HC4H12CH8C2H4CH7CHCH5CH3CH4CH3CH2CH3CH2C2H2CHCHCH3CH2CH7CH8CH8FeS2FeS2FeSFeS3FeSCFeS2FeSFeS3H2FeS2FeS2FeSFeS3HC5H3C2HC6H4C3HCH8CH2C7H7CH4NH2C5H4NC3HCH2CH5C2H5C2H2CHC2HC2H5CH4CH3CH3C2H6CHCHC3H2CH3CH2C2H3CH3CHC2HCH3NCNCHC9H25C3H9C4NHCHCH7C2H2CNC2HNC4HC2HCH8NH3CH7C3H2CHCH2CHCH3C2H4C2HCH9CH4C3HC3H2C2H4C2NCH4CH3CHCH2CSH2CH7CH4CH2SHCNHCHC3HC2H3SH5CH5C2H9CHC3H2FeS2FeS2FeSFeS3FeS2FeS2FeSFeS3FeHSFeHSHFeHS2C3H3SH3C5HCH2C6H4C6H6CHCHCH3FeCH4CH2CH2C2H3CHC2H2CH2CH2C3H2CHCH2CSCH2CHC2H2CH3C2H4CH2CH7CHC2H2CH6NHC2HCH4NH3CH2CHNH2C2HC2H3C2HC2HCHC2H2SCH2C2H6CHNH3CH8CH2CHC2H5CHCHCHCH6CH2FeS2FeS2FeSFeS2FeS2FeS2FeSFeS3FeSHFeS2FeSFeHS2H4CHSHCHC6H7CHC6H4C3SH4CHCHCH2C6H5CH3N2CH2C6H3CH3C2H2SCHC2H6CH8C2H3C2HC3H9CH2CH4CH2CH2CH9CH3CH2C5HC2HNHCHC3HC2H7CH7CH6CHCH2CH2CH2CH3SHC3H2C2H2NCH3CH2CH7C2H3SCH2C2H6C4HCH3CH3CH5CH7CHC2H2CNC3HC2HCH4CH4C2NCHCNHC2H2C2H2C2H2CH3CHCH2CH8CHC2H8NH3CHC2HCH8CHCHCHCH3C2H2CH3C2HCHC2H6CHC2H3CHCHCNH6CHCH4CH3CH4C2HFeS2FeS2FeHFeS3FeS2FeS2FeSFeS3FeS2FeS2FeSFeHS2C2H2CH2CHCH3CH4C6H5C9H4CH5CH4C2H2C2H2C2H10CH3CHCH2CH6C2HCH6C3H2CHCH2CH2CH4CH2CH3C2H2CHCH2CSH2C2HNCH5NH6CHCHCH2C2HCH4CNCH7C3H2C3H2NC3HC6HCH6CH4CH9CHCH4C2S2C2H4CH2CHC2H3C2HCH2CH7CH3CH3CH5NCHC2HFeS2FeS2FeSFeS3FeS2FeS2FeSCS2FeS2FeS2FeSFeS3HC2HC3H2C6HCH2C6H4C6H5C3H6C3H3C3H6NHCHCH5C2HC2HC2H3CH3C4H2C2HC2HCH2CH8C3H4NH4C3H2CH4C2H2CH6C2H5SH2C4H4CH2CH7NC2H2CHCH2CHNHC3H3C2HFeH2CNCH7CH2CH2CH2CH4C2HCH2CH4CH4CH5CH3CHCH3CH2CH7CH9NC8HC3H12NHCH5CNH4CH6CHCH6CH2FeS2FeS2FeSFeS3FeS2FeS2FeSFeS3FeS2FeS2FeSFeHS2C2HC2H2CH3C7H11CHC2H2C2HCH2C6H6C4H2CHC3H4NHC8HCH2CH8C2H3C5H2CH2CH2CH3C2HCH4CH2CH5CH9CH2C2HCH3CH5C2HCH7CNHCH4NCHSCH4CH2CH3CH7CH4CH6CH3NH7C2H2C2H3CH3C2HCH3CHC3H3NC2HC3HCHC2H4SH5CH5C2H4FeS2FeS2FeCFeS3FeS2FeS2FeSFeHS2FeS2FeS2FeSFeS3C3HC5H3C3HC6H8C7H5CHCH3C2H2NC4H2C3HCH16CH5CH4CHCHC2H2CHCH4CH6C3H3C3H5CHCHCH2CHC2SH2CH10CH2C2HCHNC2NC3H2CHCH5CH3NCH8CNCH2CH2CHCH8SCHNHCH6CHCH10CH5CH2C2H3C2HCHC3H3C2H2CH5C2HCH3CHCHC2H3CH6CH3CHCH2CH2FeS2FeS2FeSFeS3FeS2FeS2FeSFeS3FeSHCSHFeSFeHS2C2H5CH2CHNCH2C2H3CHCH2C6H4C3HC2HCHC6H4C6H2CHCH3CHC2H11CH3CHCH4C4H2CH3CH3SH5CHC2HCHCHC2HC2H3CH13CHC2H3CHC2H2CHCH2NHCH3C3H3C2HCH4C4HC2H2C2HCNH3C2HCHCH3CFeHNH6CH9CHSC3H2NH3C2H2CH2C2H2CHC3H4NH6NCH5C5HC2H2CH6CH5CHC3H5C3H16C3FeS2FeS2FeHFeS3FeS2FeS2FeHFeSNSFeSHFeSCFeSFeS3C3HC2H4CH2C2HC7H4CHC6H5CNH2C6H4CH2C2H3CH2CHCSH4NC7H2C3H17SC2H9C2H3CHC2H3CHNH2CHCHCH3C2H3CH2CH11CHCHCHCHCHCHCH4CH2CHCH3CH3CHNCHCH2CH3C4H2CH4CH7CH4CSHSH4CH2CH3CH3CHCH2CH4CFeS2FeS2FeSFeS3FeS2FeS2FeSFeS3CFeS2FeS2FeHFeS3H6C6H7C2HCHCH4C7HCH2C6H4C5H6CH2C2H3C4H2CH3C2HCH9CNCH3CHCH4CH3CH2CHSHC2HC2H8CHCH4C3H3C2H7C2HNC4HC4H18C2H2C2H3NH2CH6CH8CH11C3H5CH2CH2CH2C3H4CH2C4HC2HC5H2C3HCH3C2NHCH5NH4CH3CHC3H2C2H2C2HCH8NHCH12C2NH2SC2H2C2SHFeSFeS2FeSFeS3FeS2FeS2FeSFeS3FeS2FeS2FeH2CS2CNH3C2H3CH2C2HC6H4CHC2H2CH3CHC6H6C2H7CH3C2H4CH2C2HSC4H2FeHCH5CH2SH3C2HC2HC2H3CH5CHCH4C2H3CH2CH2NC12H28C2H2C3HC5H5C3H2C4H3CH3C3H2C2NHCH3CH6CHC2H7NH3NH3CH5CH6CH2SH2
_chemical_formula_sum              "Fe192 S384 C1728 H3072 N96"
_cell_length_a       51.9289
_cell_length_b       51.8279
_cell_length_c       51.7586
_cell_angle_alpha    83.244
_cell_angle_beta     83.2116
_cell_angle_gamma    82.9376

_space_group_name_H-M_alt    "P 1"
_space_group_IT_number       1

loop_
  _space_group_symop_operation_xyz
  'x, y, z'

loop_
  _atom_site_type_symbol
  _atom_site_label
  _atom_site_symmetry_multiplicity
  _atom_site_fract_x
  _atom_site_fract_y
  _atom_site_fract_z
  _atom_site_occupancy
  Fe  Fe1       1.0  0.20431  0.18846  0.34360  1.0000
  S   S1        1.0  0.19928  0.22749  0.35927  1.0000
  S   S2        1.0  0.24343  0.17054  0.32451  1.0000
  Fe  Fe2       1.0  0.14506  0.18287  0.35393  1.0000
  S   S3        1.0  0.13591  0.22104  0.37053  1.0000
  S   S4        1.0  0.11302  0.15738  0.35091  1.0000
  Fe  Fe3       1.0  0.16394  0.23623  0.33758  1.0000
  S   S5        1.0  0.15337  0.27632  0.31730  1.0000
  Fe  Fe4       1.0  0.17184  0.20932  0.39106  1.0000
  S   S6        1.0  0.17155  0.22313  0.43059  1.0000
  S   S7        1.0  0.17065  0.19875  0.31886  1.0000
  S   S8        1.0  0.17928  0.16921  0.37734  1.0000
  Fe  Fe5       1.0  0.07731  0.42947  0.41335  1.0000
  S   S9        1.0  0.04832  0.40054  0.42326  1.0000
  S   S10       1.0  0.09261  0.44937  0.44470  1.0000
  Fe  Fe6       1.0  0.08027  0.42405  0.35323  1.0000
  S   S11       1.0  0.05143  0.39428  0.35978  1.0000
  S   S12       1.0  0.10126  0.43780  0.31325  1.0000
  Fe  Fe7       1.0  0.02933  0.42061  0.38846  1.0000
  C   C1        1.0  0.03842  0.15242  0.33821  1.0000
  Fe  Fe8       1.0  0.07332  0.37751  0.39388  1.0000
  S   S13       1.0  0.08497  0.33524  0.40591  1.0000
  S   S14       1.0  0.05660  0.45168  0.38010  1.0000
  S   S15       1.0  0.10390  0.40505  0.38576  1.0000
  Fe  Fe9       1.0  0.12169  0.41958  0.16152  1.0000
  S   S16       1.0  0.15921  0.43367  0.16792  1.0000
  S   S17       1.0  0.08979  0.41551  0.19602  1.0000
  Fe  Fe10      1.0  0.14234  0.40835  0.10396  1.0000
  S   S18       1.0  0.18156  0.42077  0.10790  1.0000
  S   S19       1.0  0.13899  0.39087  0.06580  1.0000
  Fe  Fe11      1.0  0.17835  0.39916  0.14799  1.0000
  S   S20       1.0  0.20972  0.37370  0.16838  1.0000
  Fe  Fe12      1.0  0.15842  0.45394  0.12725  1.0000
  S   S21       1.0  0.17289  0.49338  0.11692  1.0000
  S   S22       1.0  0.14100  0.38367  0.14326  1.0000
  S   S23       1.0  0.11901  0.44281  0.12172  1.0000
  C   C2        1.0  0.23981  0.38656  0.16243  1.0000
  C   C3        1.0  0.22595  0.40366  0.03474  1.0000
  H   H1        1.0  0.09469  0.15179  0.50958  1.0000
  H   H2        1.0  0.11970  0.39053  0.45532  1.0000
  H   H3        1.0  0.17122  0.34080  0.42497  1.0000
  C   C4        1.0  0.09692  0.43183  0.28086  1.0000
  C   C5        1.0  0.11301  0.44294  0.25970  1.0000
  C   C6        1.0  0.11092  0.43826  0.23374  1.0000
  C   C7        1.0  0.09262  0.42241  0.22848  1.0000
  C   C8        1.0  0.07616  0.41166  0.24959  1.0000
  C   C9        1.0  0.07842  0.41616  0.27563  1.0000
  H   H4        1.0  0.12727  0.45523  0.26344  1.0000
  H   H5        1.0  0.12344  0.44701  0.21777  1.0000
  H   H6        1.0  0.06175  0.39958  0.24578  1.0000
  H   H7        1.0  0.06583  0.40762  0.29164  1.0000
  C   C10       1.0  0.09570  0.44201  0.47882  1.0000
  C   C11       1.0  0.07938  0.42672  0.49639  1.0000
  H   H8        1.0  0.03883  0.15845  0.45326  1.0000
  C   C12       1.0  0.02511  0.17694  0.34247  1.0000
  H   H9        1.0  0.03236  0.34309  0.38657  1.0000
  C   C13       1.0  0.11505  0.45340  0.48869  1.0000
  H   H10       1.0  0.06405  0.41818  0.48911  1.0000
  H   H11       1.0  0.02409  0.15006  0.40870  1.0000
  C   C14       1.0  0.25115  0.15530  0.50348  1.0000
  H   H12       1.0  0.12765  0.46535  0.47551  1.0000
  H   H13       1.0  0.05575  0.15920  0.27588  1.0000
  C   C15       1.0  0.14010  0.38401  0.44782  1.0000
  H   H14       1.0  0.10811  0.50193  0.14697  1.0000
  H   H15       1.0  0.16930  0.28135  0.43138  1.0000
  H   H16       1.0  0.10879  0.19698  0.29059  1.0000
  C   C16       1.0  0.24183  0.19042  0.45267  1.0000
  H   H17       1.0  0.08716  0.25778  0.35677  1.0000
  C   C17       1.0  0.07881  0.16535  0.34992  1.0000
  H   H18       1.0  0.22503  0.18084  0.46304  1.0000
  H   H19       1.0  0.07491  0.12773  0.33803  1.0000
  H   H20       1.0  0.12282  0.16721  0.51403  1.0000
  C   C18       1.0  0.17171  0.19979  0.45788  1.0000
  C   C19       1.0  0.17431  0.17297  0.45541  1.0000
  H   H21       1.0  0.21413  0.36751  0.02655  1.0000
  H   H22       1.0  0.17452  0.16622  0.43641  1.0000
  H   H23       1.0  0.12110  0.49423  0.10091  1.0000
  C   C20       1.0  0.13607  0.29461  0.34152  1.0000
  C   C21       1.0  0.13819  0.28597  0.36787  1.0000
  C   C22       1.0  0.12215  0.29834  0.38746  1.0000
  C   C23       1.0  0.10492  0.32035  0.38088  1.0000
  C   C24       1.0  0.10361  0.32993  0.35454  1.0000
  C   C25       1.0  0.11893  0.31678  0.33481  1.0000
  H   H24       1.0  0.15219  0.26964  0.37330  1.0000
  H   H25       1.0  0.12332  0.29089  0.40776  1.0000
  H   H26       1.0  0.09034  0.34701  0.34934  1.0000
  H   H27       1.0  0.11705  0.32337  0.31445  1.0000
  H   H28       1.0  0.12710  0.24353  0.23449  1.0000
  H   H29       1.0  0.08268  0.16697  0.25202  1.0000
  N   N1        1.0  0.16968  0.37649  0.25736  1.0000
  C   C26       1.0  0.14374  0.36940  0.25164  1.0000
  C   C27       1.0  0.16655  0.38658  0.28395  1.0000
  C   C28       1.0  0.17702  0.39875  0.23727  1.0000
  C   C29       1.0  0.19118  0.35402  0.25580  1.0000
  C   C30       1.0  0.18320  0.32592  0.26350  1.0000
  C   C31       1.0  0.14249  0.36331  0.22317  1.0000
  C   C32       1.0  0.20174  0.41129  0.24109  1.0000
  C   C33       1.0  0.15617  0.36807  0.30751  1.0000
  C   C34       1.0  0.15440  0.38052  0.33310  1.0000
  H   H30       1.0  0.21793  0.47349  0.03138  1.0000
  C   C35       1.0  0.11914  0.34862  0.22119  1.0000
  C   C36       1.0  0.20827  0.43174  0.21820  1.0000
  H   H31       1.0  0.12822  0.38567  0.25558  1.0000
  H   H32       1.0  0.13732  0.35268  0.26516  1.0000
  H   H33       1.0  0.18555  0.39133  0.28891  1.0000
  H   H34       1.0  0.15320  0.40520  0.28368  1.0000
  H   H35       1.0  0.16062  0.41470  0.23651  1.0000
  H   H36       1.0  0.18045  0.39217  0.21731  1.0000
  H   H37       1.0  0.20115  0.35388  0.23548  1.0000
  H   H38       1.0  0.20680  0.35691  0.26785  1.0000
  H   H39       1.0  0.17501  0.31924  0.24690  1.0000
  H   H40       1.0  0.16820  0.32456  0.28045  1.0000
  H   H41       1.0  0.14033  0.38188  0.21008  1.0000
  H   H42       1.0  0.16051  0.35155  0.21559  1.0000
  H   H43       1.0  0.21880  0.39624  0.24256  1.0000
  H   H44       1.0  0.19862  0.42162  0.25900  1.0000
  H   H45       1.0  0.13630  0.36362  0.30517  1.0000
  H   H46       1.0  0.16956  0.34983  0.30993  1.0000
  H   H47       1.0  0.14117  0.39903  0.33226  1.0000
  H   H48       1.0  0.14649  0.36696  0.34955  1.0000
  H   H49       1.0  0.17397  0.38459  0.33710  1.0000
  C   C37       1.0  0.03022  0.17928  0.45139  1.0000
  C   C38       1.0  0.16267  0.32321  0.43501  1.0000
  H   H50       1.0  0.17686  0.30183  0.40156  1.0000
  H   H51       1.0  0.12115  0.32912  0.23268  1.0000
  H   H52       1.0  0.11807  0.34590  0.20038  1.0000
  C   C39       1.0  0.24996  0.39513  0.13700  1.0000
  C   C40       1.0  0.08184  0.28165  0.25207  1.0000
  H   H53       1.0  0.21123  0.42294  0.19938  1.0000
  C   C41       1.0  0.12106  0.24530  0.27733  1.0000
  H   H54       1.0  0.25240  0.21689  0.50753  1.0000
  H   H55       1.0  0.06605  0.33787  0.48803  1.0000
  H   H56       1.0  0.22605  0.42431  0.02611  1.0000
  H   H57       1.0  0.15586  0.27562  0.24471  1.0000
  C   C42       1.0  0.17422  0.19046  0.50457  1.0000
  H   H58       1.0  0.05413  0.49147  0.17527  1.0000
  C   C43       1.0  0.06539  0.18964  0.35542  1.0000
  H   H59       1.0  0.25493  0.30681  0.07517  1.0000
  H   H60       1.0  0.02861  0.13826  0.33041  1.0000
  H   H61       1.0  0.24124  0.24875  0.26547  1.0000
  N   N2        1.0  0.09377  0.23740  0.28029  1.0000
  H   H62       1.0  0.17442  0.24877  0.22926  1.0000
  C   C44       1.0  0.08188  0.24027  0.30803  1.0000
  H   H63       1.0  0.24621  0.39530  0.03794  1.0000
  C   C45       1.0  0.07682  0.25275  0.26069  1.0000
  H   H64       1.0  0.14174  0.41937  0.42088  1.0000
  C   C46       1.0  0.18235  0.33605  0.51386  1.0000
  H   H65       1.0  0.08820  0.15605  0.28572  1.0000
  C   C47       1.0  0.07764  0.26819  0.31671  1.0000
  C   C48       1.0  0.07054  0.26754  0.34629  1.0000
  H   H66       1.0  0.11441  0.34353  0.45841  1.0000
  H   H67       1.0  0.12098  0.04314  0.50593  1.0000
  H   H68       1.0  0.10064  0.28245  0.23951  1.0000
  C   C49       1.0  0.10012  0.35449  0.49712  1.0000
  C   C50       1.0  0.25108  0.24722  0.28360  1.0000
  H   H69       1.0  0.06223  0.23338  0.31148  1.0000
  H   H70       1.0  0.04123  0.29687  0.24819  1.0000
  H   H71       1.0  0.25840  0.28666  0.16991  1.0000
  H   H72       1.0  0.22650  0.43985  0.22086  1.0000
  H   H73       1.0  0.07906  0.24312  0.24227  1.0000
  H   H74       1.0  0.05584  0.25250  0.26830  1.0000
  H   H75       1.0  0.05319  0.25692  0.35261  1.0000
  H   H76       1.0  0.23941  0.14756  0.49018  1.0000
  C   C51       1.0  0.17788  0.16367  0.50209  1.0000
  H   H77       1.0  0.10586  0.37429  0.49776  1.0000
  H   H78       1.0  0.05596  0.20712  0.26631  1.0000
  H   H79       1.0  0.06052  0.19557  0.29970  1.0000
  H   H80       1.0  0.13914  0.37215  0.43163  1.0000
  H   H81       1.0  0.12168  0.44492  0.04413  1.0000
  H   H82       1.0  0.10529  0.20516  0.25665  1.0000
  C   C52       1.0  0.06990  0.19616  0.27941  1.0000
  H   H83       1.0  0.23971  0.31687  0.15917  1.0000
  H   H84       1.0  0.19871  0.24486  0.51228  1.0000
  H   H85       1.0  0.19517  0.31930  0.50624  1.0000
  C   C53       1.0  0.15367  0.33545  0.50828  1.0000
  C   C54       1.0  0.13102  0.50901  0.08873  1.0000
  H   H86       1.0  0.01906  0.37807  0.27806  1.0000
  H   H87       1.0  0.04106  0.21504  0.42729  1.0000
  H   H88       1.0  0.14564  0.21784  0.25320  1.0000
  C   C55       1.0  0.07263  0.35737  0.48865  1.0000
  H   H89       1.0  0.07583  0.20413  0.36178  1.0000
  H   H90       1.0  0.23856  0.39517  0.12080  1.0000
  C   C56       1.0  0.03859  0.19542  0.35170  1.0000
  H   H91       1.0  0.24090  0.33267  0.20286  1.0000
  H   H92       1.0  0.21556  0.23922  0.46532  1.0000
  H   H93       1.0  0.26122  0.19534  0.36638  1.0000
  H   H94       1.0  0.08169  0.19058  0.44430  1.0000
  H   H95       1.0  0.19001  0.35446  0.50486  1.0000
  C   C57       1.0  0.24138  0.21385  0.49108  1.0000
  H   H96       1.0  0.17389  0.24970  0.26407  1.0000
  H   H97       1.0  0.02398  0.34509  0.43395  1.0000
  H   H98       1.0  0.25142  0.08413  0.32379  1.0000
  C   C58       1.0  0.12424  0.43237  0.02851  1.0000
  H   H99       1.0  0.06623  0.28781  0.35183  1.0000
  H   H100      1.0  0.10070  0.36001  0.22847  1.0000
  H   H101      1.0  0.15148  0.38161  0.48649  1.0000
  H   H102      1.0  0.19224  0.44801  0.21714  1.0000
  H   H103      1.0  0.20048  0.28642  0.27416  1.0000
  C   C59       1.0  0.09594  0.20865  0.27657  1.0000
  H   H104      1.0  0.18015  0.13412  0.47564  1.0000
  H   H105      1.0  0.09525  0.27851  0.31190  1.0000
  C   C60       1.0  0.11991  0.33845  0.47862  1.0000
  C   C61       1.0  0.17756  0.15486  0.47756  1.0000
  H   H106      1.0  0.16866  0.22917  0.48452  1.0000
  C   C62       1.0  0.16206  0.25426  0.24722  1.0000
  H   H107      1.0  0.24634  0.15351  0.39959  1.0000
  H   H108      1.0  0.03012  0.31157  0.42690  1.0000
  C   C63       1.0  0.11854  0.44947  0.51534  1.0000
  N   N3        1.0  0.14825  0.34150  0.47996  1.0000
  H   H109      1.0  0.21395  0.40333  0.05401  1.0000
  H   H110      1.0  0.19872  0.29758  0.42667  1.0000
  H   H111      1.0  0.09412  0.22761  0.32192  1.0000
  H   H112      1.0  0.07710  0.51534  0.13579  1.0000
  H   H113      1.0  0.05894  0.36824  0.50278  1.0000
  H   H114      1.0  0.22452  0.20356  0.50017  1.0000
  C   C64       1.0  0.24448  0.31158  0.20005  1.0000
  H   H115      1.0  0.07490  0.47020  0.15463  1.0000
  C   C65       1.0  0.07455  0.16788  0.27277  1.0000
  C   C66       1.0  0.23592  0.16433  0.41574  1.0000
  C   C67       1.0  0.17106  0.20844  0.48254  1.0000
  H   H116      1.0  0.13179  0.23553  0.29385  1.0000
  C   C68       1.0  0.13827  0.23897  0.25177  1.0000
  H   H117      1.0  0.02312  0.38905  0.30890  1.0000
  H   H118      1.0  0.20439  0.27496  0.49250  1.0000
  H   H119      1.0  0.21398  0.31115  0.28829  1.0000
  C   C69       1.0  0.04488  0.19354  0.42695  1.0000
  H   H120      1.0  0.17321  0.40294  0.42750  1.0000
  C   C70       1.0  0.15303  0.40839  0.43637  1.0000
  C   C71       1.0  0.13262  0.40571  0.03386  1.0000
  H   H121      1.0  0.06123  0.27972  0.30714  1.0000
  H   H122      1.0  0.03591  0.18756  0.46855  1.0000
  H   H123      1.0  0.07950  0.16512  0.42366  1.0000
  C   C72       1.0  0.08752  0.50886  0.15336  1.0000
  C   C73       1.0  0.06486  0.14658  0.34225  1.0000
  H   H124      1.0  0.08279  0.29276  0.26882  1.0000
  C   C74       1.0  0.20658  0.30644  0.27031  1.0000
  H   H125      1.0  0.24700  0.37964  0.20293  1.0000
  C   C75       1.0  0.22935  0.24115  0.47961  1.0000
  C   C76       1.0  0.07439  0.18622  0.42613  1.0000
  H   H126      1.0  0.26030  0.09633  0.35234  1.0000
  H   H127      1.0  0.03877  0.18885  0.40849  1.0000
  H   H128      1.0  0.22247  0.30673  0.25401  1.0000
  H   H129      1.0  0.16093  0.30126  0.47345  1.0000
  H   H130      1.0  0.12082  0.26645  0.27888  1.0000
  H   H131      1.0  0.24221  0.47325  0.07649  1.0000
  C   C77       1.0  0.25471  0.38630  0.18330  1.0000
  C   C78       1.0  0.26060  0.46920  0.08599  1.0000
  H   H132      1.0  0.08446  0.19765  0.40925  1.0000
  H   H133      1.0  0.18603  0.32234  0.46612  1.0000
  C   C79       1.0  0.16501  0.32129  0.46474  1.0000
  H   H134      1.0  0.23287  0.20831  0.44161  1.0000
  C   C80       1.0  0.15502  0.36879  0.47026  1.0000
  H   H135      1.0  0.06490  0.31639  0.22973  1.0000
  H   H136      1.0  0.11642  0.31754  0.48346  1.0000
  H   H137      1.0  0.03420  0.45627  0.45140  1.0000
  H   H138      1.0  0.02878  0.21464  0.35453  1.0000
  H   H139      1.0  0.15349  0.42151  0.45177  1.0000
  H   H140      1.0  0.08559  0.47682  0.18475  1.0000
  H   H141      1.0  0.17631  0.36823  0.46384  1.0000
  N   N4        1.0  0.25861  0.19747  0.47209  1.0000
  H   H142      1.0  0.07223  0.36852  0.46899  1.0000
  H   H143      1.0  0.03085  0.33841  0.34116  1.0000
  C   C81       1.0  0.25563  0.17311  0.43163  1.0000
  C   C82       1.0  0.25510  0.30795  0.17175  1.0000
  C   C83       1.0  0.17788  0.29953  0.42304  1.0000
  H   H144      1.0  0.04411  0.36145  0.29727  1.0000
  H   H145      1.0  0.22566  0.30307  0.20475  1.0000
  H   H146      1.0  0.24454  0.25325  0.46967  1.0000
  H   H147      1.0  0.11558  0.51666  0.50035  1.0000
  H   H148      1.0  0.23759  0.23952  0.30024  1.0000
  H   H149      1.0  0.25843  0.30162  0.21370  1.0000
  H   H150      1.0  0.22320  0.15113  0.42832  1.0000
  C   C84       1.0  0.21404  0.25623  0.50126  1.0000
  H   H151      1.0  0.05929  0.28614  0.21848  1.0000
  C   C85       1.0  0.02390  0.37151  0.29831  1.0000
  H   H152      1.0  0.25513  0.26693  0.28730  1.0000
  H   H153      1.0  0.25574  0.46461  0.10741  1.0000
  H   H154      1.0  0.14219  0.32401  0.43069  1.0000
  H   H155      1.0  0.22364  0.18151  0.40706  1.0000
  C   C86       1.0  0.07473  0.48551  0.16798  1.0000
  C   C87       1.0  0.06045  0.29604  0.23616  1.0000
  C   C88       1.0  0.15672  0.51228  0.09208  1.0000
  H   H156      1.0  0.14174  0.34977  0.52050  1.0000
  H   H157      1.0  0.24976  0.51293  0.10854  1.0000
  H   H158      1.0  0.22728  0.26056  0.51518  1.0000
  H   H159      1.0  0.26278  0.30439  0.12207  1.0000
  H   H160      1.0  0.09930  0.34441  0.51734  1.0000
  H   H161      1.0  0.01908  0.29704  0.33305  1.0000
  H   H162      1.0  0.02054  0.30163  0.38142  1.0000
  H   H163      1.0  0.01721  0.14585  0.49433  1.0000
  H   H164      1.0  0.14777  0.31584  0.51636  1.0000
  H   H165      1.0  0.22512  0.50571  0.03562  1.0000
  H   H166      1.0  0.23773  0.16555  0.51823  1.0000
  C   C89       1.0  0.26032  0.51794  0.08887  1.0000
  C   C90       1.0  0.26566  0.13187  0.51843  1.0000
  C   C91       1.0  0.01614  0.32957  0.42509  1.0000
  H   H167      1.0  0.14712  0.05612  0.51843  1.0000
  Fe  Fe13      1.0  0.17816  0.16392  0.56481  1.0000
  S   S24       1.0  0.17585  0.14302  0.60529  1.0000
  H   H168      1.0  0.23953  0.10179  0.57578  1.0000
  Fe  Fe14      1.0  0.17030  0.21736  0.58413  1.0000
  S   S25       1.0  0.16757  0.20040  0.62626  1.0000
  S   S26       1.0  0.16378  0.26031  0.56953  1.0000
  Fe  Fe15      1.0  0.20215  0.17215  0.61331  1.0000
  S   S27       1.0  0.23611  0.15937  0.63821  1.0000
  Fe  Fe16      1.0  0.14170  0.17323  0.61394  1.0000
  S   S28       1.0  0.10313  0.16482  0.63780  1.0000
  S   S29       1.0  0.20646  0.19110  0.57190  1.0000
  S   S30       1.0  0.14241  0.19191  0.57280  1.0000
  Fe  Fe17      1.0  0.09107  0.41456  0.60658  1.0000
  S   S31       1.0  0.06493  0.38258  0.61259  1.0000
  S   S32       1.0  0.10850  0.43184  0.56661  1.0000
  Fe  Fe18      1.0  0.09008  0.41794  0.66680  1.0000
  S   S33       1.0  0.06266  0.38730  0.67630  1.0000
  S   S34       1.0  0.10846  0.43521  0.69820  1.0000
  Fe  Fe19      1.0  0.08813  0.36608  0.64577  1.0000
  S   S35       1.0  0.10065  0.32387  0.65780  1.0000
  Fe  Fe20      1.0  0.04200  0.40702  0.64236  1.0000
  H   H169      1.0  0.10221  0.47711  0.60275  1.0000
  S   S36       1.0  0.11676  0.39568  0.63743  1.0000
  S   S37       1.0  0.06705  0.44002  0.63514  1.0000
  Fe  Fe21      1.0  0.12156  0.41530  0.85344  1.0000
  S   S38       1.0  0.16481  0.41167  0.84225  1.0000
  S   S39       1.0  0.09337  0.41199  0.82312  1.0000
  Fe  Fe22      1.0  0.12807  0.42422  0.91170  1.0000
  S   S40       1.0  0.17157  0.42055  0.90332  1.0000
  S   S41       1.0  0.11224  0.43990  0.95091  1.0000
  Fe  Fe23      1.0  0.16456  0.44531  0.86600  1.0000
  Fe  Fe24      1.0  0.16688  0.38732  0.88090  1.0000
  S   S42       1.0  0.19317  0.34994  0.88727  1.0000
  S   S43       1.0  0.12106  0.45082  0.87475  1.0000
  S   S44       1.0  0.12354  0.38877  0.89155  1.0000
  H   H170      1.0  0.04282  0.48947  0.59994  1.0000
  H   H171      1.0  0.04574  0.11946  0.59034  1.0000
  C   C92       1.0  0.22876  0.36396  0.84593  1.0000
  C   C93       1.0  0.22468  0.35247  0.87173  1.0000
  C   C94       1.0  0.24601  0.34209  0.88520  1.0000
  H   H172      1.0  0.02808  0.29381  0.61494  1.0000
  H   H173      1.0  0.01729  0.39711  0.59586  1.0000
  H   H174      1.0  0.21228  0.37186  0.83542  1.0000
  H   H175      1.0  0.24290  0.33332  0.90516  1.0000
  S   S45       1.0  0.18320  0.14148  0.52967  1.0000
  C   C95       1.0  0.03634  0.48183  0.56097  1.0000
  C   C96       1.0  0.13007  0.40019  0.98772  1.0000
  C   C97       1.0  0.12126  0.42664  0.98245  1.0000
  C   C98       1.0  0.11828  0.44265  0.00305  1.0000
  H   H176      1.0  0.09352  0.17227  0.53591  1.0000
  H   H177      1.0  0.25586  0.29823  0.77747  1.0000
  H   H178      1.0  0.13182  0.38766  0.97220  1.0000
  H   H179      1.0  0.11102  0.46306  0.99938  1.0000
  C   C99       1.0  0.25124  0.48628  0.00569  1.0000
  C   C100      1.0  0.10496  0.42638  0.73270  1.0000
  C   C101      1.0  0.12473  0.43067  0.74761  1.0000
  C   C102      1.0  0.12170  0.42612  0.77522  1.0000
  C   C103      1.0  0.09884  0.41709  0.78831  1.0000
  C   C104      1.0  0.07923  0.41246  0.77335  1.0000
  C   C105      1.0  0.08225  0.41703  0.74577  1.0000
  H   H180      1.0  0.14240  0.43788  0.73775  1.0000
  H   H181      1.0  0.13695  0.42989  0.78638  1.0000
  H   H182      1.0  0.06141  0.40562  0.78324  1.0000
  H   H183      1.0  0.06672  0.41405  0.73465  1.0000
  H   H184      1.0  0.06894  0.47106  0.58313  1.0000
  H   H185      1.0  0.07927  0.06610  0.59914  1.0000
  H   H186      1.0  0.04365  0.18005  0.56859  1.0000
  H   H187      1.0  0.12036  0.05775  0.57480  1.0000
  H   H188      1.0  0.19376  0.39616  0.01541  1.0000
  C   C106      1.0  0.07739  0.49803  0.82795  1.0000
  H   H189      1.0  0.15491  0.09267  0.62945  1.0000
  C   C107      1.0  0.07216  0.16953  0.62549  1.0000
  H   H190      1.0  0.08670  0.17921  0.58536  1.0000
  H   H191      1.0  0.05143  0.16037  0.66341  1.0000
  C   C108      1.0  0.14816  0.27949  0.59392  1.0000
  C   C109      1.0  0.15037  0.27120  0.62031  1.0000
  C   C110      1.0  0.13633  0.28545  0.63977  1.0000
  C   C111      1.0  0.12012  0.30820  0.63295  1.0000
  C   C112      1.0  0.11864  0.31724  0.60655  1.0000
  C   C113      1.0  0.13262  0.30284  0.58703  1.0000
  H   H192      1.0  0.16317  0.25396  0.62578  1.0000
  H   H193      1.0  0.13798  0.27875  0.66017  1.0000
  H   H194      1.0  0.10623  0.33492  0.60118  1.0000
  H   H195      1.0  0.13083  0.30939  0.56664  1.0000
  H   H196      1.0  0.08885  0.47451  0.75426  1.0000
  C   C114      1.0  0.03233  0.08826  0.61722  1.0000
  H   H197      1.0  0.13466  0.48407  0.74612  1.0000
  H   H198      1.0  0.04074  0.48948  0.76170  1.0000
  H   H199      1.0  0.02037  0.49776  0.55773  1.0000
  S   S46       1.0  0.18791  0.47909  0.85287  1.0000
  H   H200      1.0  0.03982  0.07219  0.63150  1.0000
  N   N5        1.0  0.06820  0.51266  0.57274  1.0000
  H   H201      1.0  0.01791  0.10191  0.62798  1.0000
  H   H202      1.0  0.09271  0.50249  0.96010  1.0000
  H   H203      1.0  0.07411  0.25776  0.55425  1.0000
  H   H204      1.0  0.12864  0.12043  0.53016  1.0000
  H   H205      1.0  0.03929  0.29800  0.67184  1.0000
  C   C115      1.0  0.16631  0.50739  0.84740  1.0000
  H   H206      1.0  0.06890  0.51652  0.61381  1.0000
  H   H207      1.0  0.12128  0.51496  0.79442  1.0000
  N   N6        1.0  0.09956  0.09650  0.57588  1.0000
  C   C116      1.0  0.16403  0.49846  0.76438  1.0000
  H   H208      1.0  0.13354  0.10915  0.58915  1.0000
  H   H209      1.0  0.11995  0.48121  0.79218  1.0000
  H   H210      1.0  0.07962  0.11616  0.54330  1.0000
  H   H211      1.0  0.10826  0.25834  0.55726  1.0000
  C   C117      1.0  0.13493  0.09134  0.63946  1.0000
  C   C118      1.0  0.14228  0.51038  0.86267  1.0000
  H   H212      1.0  0.24936  0.30673  0.83577  1.0000
  H   H213      1.0  0.08932  0.06016  0.54076  1.0000
  C   C119      1.0  0.26111  0.29874  0.81860  1.0000
  H   H214      1.0  0.13447  0.50048  0.96391  1.0000
  C   C120      1.0  0.07477  0.08502  0.58708  1.0000
  H   H215      1.0  0.02171  0.24874  0.66781  1.0000
  H   H216      1.0  0.24941  0.26341  0.87308  1.0000
  H   H217      1.0  0.16173  0.51883  0.96124  1.0000
  H   H218      1.0  0.10002  0.48983  0.55192  1.0000
  C   C121      1.0  0.11739  0.07623  0.56170  1.0000
  H   H219      1.0  0.06689  0.48399  0.93172  1.0000
  H   H220      1.0  0.14813  0.26283  0.77238  1.0000
  C   C122      1.0  0.10673  0.49761  0.60082  1.0000
  H   H221      1.0  0.16725  0.51595  0.77357  1.0000
  H   H222      1.0  0.25741  0.37224  0.81313  1.0000
  H   H223      1.0  0.17816  0.49688  0.74663  1.0000
  H   H224      1.0  0.06990  0.41161  0.53710  1.0000
  H   H225      1.0  0.15974  0.48714  0.00100  1.0000
  H   H226      1.0  0.24147  0.09277  0.61024  1.0000
  H   H227      1.0  0.13487  0.48802  0.62927  1.0000
  H   H228      1.0  0.26189  0.34947  0.97046  1.0000
  H   H229      1.0  0.12754  0.14076  0.55623  1.0000
  H   H230      1.0  0.06386  0.49736  0.70418  1.0000
  H   H231      1.0  0.23375  0.51010  0.82250  1.0000
  C   C123      1.0  0.08261  0.42312  0.52360  1.0000
  H   H232      1.0  0.06572  0.46106  0.84768  1.0000
  C   C124      1.0  0.02699  0.24477  0.64706  1.0000
  H   H233      1.0  0.13725  0.08263  0.55652  1.0000
  H   H234      1.0  0.25684  0.21663  0.83819  1.0000
  C   C125      1.0  0.21435  0.38769  0.01687  1.0000
  C   C126      1.0  0.25137  0.10251  0.59215  1.0000
  H   H235      1.0  0.25130  0.11907  0.52897  1.0000
  H   H236      1.0  0.06540  0.48635  0.86881  1.0000
  C   C127      1.0  0.04510  0.17663  0.58942  1.0000
  H   H237      1.0  0.01810  0.40577  0.75810  1.0000
  H   H238      1.0  0.13070  0.03019  0.53760  1.0000
  H   H239      1.0  0.07252  0.51895  0.83106  1.0000
  H   H240      1.0  0.03795  0.34026  0.64432  1.0000
  H   H241      1.0  0.05749  0.46660  0.72272  1.0000
  H   H242      1.0  0.09816  0.49231  0.83114  1.0000
  H   H243      1.0  0.09811  0.08051  0.63250  1.0000
  C   C128      1.0  0.01987  0.33057  0.64972  1.0000
  C   C129      1.0  0.02274  0.17156  0.60656  1.0000
  H   H244      1.0  0.24198  0.50324  0.91752  1.0000
  H   H245      1.0  0.17198  0.34998  0.55246  1.0000
  H   H246      1.0  0.22796  0.46399  0.77079  1.0000
  H   H247      1.0  0.03987  0.48795  0.84770  1.0000
  H   H248      1.0  0.13337  0.51891  0.74314  1.0000
  C   C130      1.0  0.04966  0.16544  0.64276  1.0000
  H   H249      1.0  0.10376  0.12244  0.60482  1.0000
  H   H250      1.0  0.03313  0.22337  0.64798  1.0000
  H   H251      1.0  0.22629  0.29588  0.79974  1.0000
  C   C131      1.0  0.06102  0.48236  0.84925  1.0000
  C   C132      1.0  0.05460  0.10305  0.60336  1.0000
  C   C133      1.0  0.02386  0.45692  0.57136  1.0000
  H   H252      1.0  0.24197  0.47766  0.83536  1.0000
  C   C134      1.0  0.13621  0.50103  0.75686  1.0000
  C   C135      1.0  0.07083  0.25500  0.65230  1.0000
  C   C136      1.0  0.08451  0.22666  0.65548  1.0000
  C   C137      1.0  0.08324  0.26129  0.59370  1.0000
  H   H253      1.0  0.07534  0.47124  0.79933  1.0000
  H   H254      1.0  0.13837  0.49702  0.87989  1.0000
  C   C138      1.0  0.11572  0.13389  0.54244  1.0000
  C   C139      1.0  0.10603  0.22411  0.67366  1.0000
  C   C140      1.0  0.08993  0.25100  0.56696  1.0000
  C   C141      1.0  0.10595  0.15772  0.52443  1.0000
  C   C142      1.0  0.05364  0.49952  0.74613  1.0000
  H   H255      1.0  0.17914  0.31483  0.55281  1.0000
  C   C143      1.0  0.06960  0.17595  0.59885  1.0000
  H   H256      1.0  0.25100  0.38565  0.99172  1.0000
  C   C144      1.0  0.02670  0.30108  0.65563  1.0000
  H   H257      1.0  0.05814  0.29970  0.62472  1.0000
  H   H258      1.0  0.08609  0.26827  0.64552  1.0000
  H   H259      1.0  0.06331  0.25993  0.67234  1.0000
  H   H260      1.0  0.09374  0.22061  0.63642  1.0000
  C   C145      1.0  0.08698  0.50838  0.54868  1.0000
  H   H261      1.0  0.08060  0.28293  0.59042  1.0000
  H   H262      1.0  0.10025  0.25522  0.60494  1.0000
  H   H263      1.0  0.26373  0.40080  0.94825  1.0000
  C   C146      1.0  0.13550  0.38978  0.01324  1.0000
  H   H264      1.0  0.12859  0.50328  0.01273  1.0000
  C   C147      1.0  0.14245  0.51609  0.97228  1.0000
  N   N7        1.0  0.04920  0.25980  0.63465  1.0000
  H   H265      1.0  0.26501  0.47727  0.01988  1.0000
  C   C148      1.0  0.11719  0.08326  0.62100  1.0000
  H   H266      1.0  0.11467  0.20339  0.67631  1.0000
  H   H267      1.0  0.12179  0.23608  0.66501  1.0000
  H   H268      1.0  0.09811  0.23025  0.69314  1.0000
  H   H269      1.0  0.09290  0.22930  0.56915  1.0000
  C   C149      1.0  0.04084  0.28885  0.63106  1.0000
  H   H270      1.0  0.08071  0.13567  0.56866  1.0000
  C   C150      1.0  0.02506  0.16657  0.63339  1.0000
  H   H271      1.0  0.24931  0.47176  0.99206  1.0000
  N   N8        1.0  0.22336  0.37045  0.97054  1.0000
  C   C151      1.0  0.19498  0.36579  0.97547  1.0000
  C   C152      1.0  0.22978  0.38869  0.98920  1.0000
  C   C153      1.0  0.22769  0.38385  0.94305  1.0000
  C   C154      1.0  0.24131  0.34522  0.97245  1.0000
  C   C155      1.0  0.08231  0.49583  0.75279  1.0000
  C   C156      1.0  0.18515  0.34926  0.95613  1.0000
  H   H272      1.0  0.24518  0.42664  0.90965  1.0000
  C   C157      1.0  0.26061  0.51166  0.99034  1.0000
  H   H273      1.0  0.24884  0.50200  0.77855  1.0000
  H   H274      1.0  0.22839  0.45083  0.80464  1.0000
  C   C158      1.0  0.16455  0.33196  0.96940  1.0000
  H   H275      1.0  0.05058  0.49833  0.79935  1.0000
  H   H276      1.0  0.18260  0.38496  0.97446  1.0000
  H   H277      1.0  0.19006  0.35680  0.99567  1.0000
  H   H278      1.0  0.20971  0.50043  0.00738  1.0000
  H   H279      1.0  0.22615  0.40951  0.98087  1.0000
  H   H280      1.0  0.21422  0.40231  0.94098  1.0000
  H   H281      1.0  0.22258  0.37177  0.92842  1.0000
  C   C159      1.0  0.25018  0.48452  0.79322  1.0000
  C   C160      1.0  0.25598  0.39036  0.93384  1.0000
  H   H282      1.0  0.21725  0.32236  0.00285  1.0000
  C   C161      1.0  0.05824  0.25057  0.60816  1.0000
  H   H283      1.0  0.17632  0.36277  0.94043  1.0000
  H   H284      1.0  0.20092  0.33624  0.94650  1.0000
  C   C162      1.0  0.11369  0.10417  0.59721  1.0000
  C   C163      1.0  0.23766  0.32693  0.99817  1.0000
  H   H285      1.0  0.24036  0.33392  0.95570  1.0000
  H   H286      1.0  0.25668  0.21949  0.87247  1.0000
  H   H287      1.0  0.24968  0.26010  0.82835  1.0000
  H   H288      1.0  0.07049  0.21268  0.66400  1.0000
  C   C164      1.0  0.09252  0.12050  0.55758  1.0000
  H   H289      1.0  0.06142  0.22884  0.60966  1.0000
  H   H290      1.0  0.25213  0.12336  0.59480  1.0000
  C   C165      1.0  0.10812  0.06869  0.53643  1.0000
  H   H291      1.0  0.14760  0.34377  0.97889  1.0000
  H   H292      1.0  0.15750  0.32154  0.95450  1.0000
  H   H293      1.0  0.17302  0.31721  0.98433  1.0000
  H   H294      1.0  0.04275  0.25614  0.59480  1.0000
  C   C166      1.0  0.25681  0.49808  0.87722  1.0000
  H   H295      1.0  0.23777  0.49222  0.87379  1.0000
  H   H296      1.0  0.25167  0.28810  0.01500  1.0000
  C   C167      1.0  0.25720  0.40756  0.90771  1.0000
  H   H297      1.0  0.03914  0.44021  0.57460  1.0000
  H   H298      1.0  0.04863  0.51226  0.94488  1.0000
  N   N9        1.0  0.12694  0.33798  0.73605  1.0000
  C   C168      1.0  0.14570  0.34318  0.71187  1.0000
  C   C169      1.0  0.12728  0.30881  0.74383  1.0000
  C   C170      1.0  0.09983  0.34838  0.72915  1.0000
  C   C171      1.0  0.13249  0.35184  0.75853  1.0000
  C   C172      1.0  0.16016  0.34561  0.76748  1.0000
  C   C173      1.0  0.14687  0.37222  0.70097  1.0000
  C   C174      1.0  0.07709  0.34318  0.75082  1.0000
  C   C175      1.0  0.15348  0.29141  0.73824  1.0000
  C   C176      1.0  0.15183  0.26336  0.75075  1.0000
  C   C177      1.0  0.16417  0.36335  0.78797  1.0000
  C   C178      1.0  0.16851  0.37498  0.67842  1.0000
  C   C179      1.0  0.05060  0.35125  0.74046  1.0000
  H   H299      1.0  0.14069  0.33277  0.69575  1.0000
  H   H300      1.0  0.16594  0.33513  0.71521  1.0000
  H   H301      1.0  0.12044  0.30492  0.76502  1.0000
  H   H302      1.0  0.11322  0.30053  0.73321  1.0000
  H   H303      1.0  0.09586  0.34017  0.71122  1.0000
  H   H304      1.0  0.09819  0.36992  0.72418  1.0000
  H   H305      1.0  0.12842  0.37336  0.75407  1.0000
  H   H306      1.0  0.11886  0.34704  0.77622  1.0000
  H   H307      1.0  0.17556  0.34847  0.75101  1.0000
  H   H308      1.0  0.16278  0.32520  0.77677  1.0000
  H   H309      1.0  0.12830  0.38045  0.69317  1.0000
  H   H310      1.0  0.15079  0.38418  0.71618  1.0000
  H   H311      1.0  0.07786  0.35469  0.76744  1.0000
  H   H312      1.0  0.07774  0.32222  0.75841  1.0000
  H   H313      1.0  0.15814  0.29061  0.71679  1.0000
  H   H314      1.0  0.16996  0.29891  0.74563  1.0000
  C   C180      1.0  0.05443  0.48847  0.58050  1.0000
  H   H315      1.0  0.13601  0.25470  0.74324  1.0000
  H   H316      1.0  0.17058  0.25125  0.74584  1.0000
  H   H317      1.0  0.18348  0.35744  0.79539  1.0000
  H   H318      1.0  0.16366  0.38400  0.77922  1.0000
  H   H319      1.0  0.14882  0.36197  0.80484  1.0000
  H   H320      1.0  0.16549  0.36342  0.66247  1.0000
  H   H321      1.0  0.16824  0.39586  0.67041  1.0000
  H   H322      1.0  0.18792  0.36829  0.68532  1.0000
  H   H323      1.0  0.04852  0.34002  0.72394  1.0000
  H   H324      1.0  0.24717  0.51835  0.97499  1.0000
  H   H325      1.0  0.04838  0.37245  0.73372  1.0000
  C   C181      1.0  0.07186  0.49283  0.80020  1.0000
  H   H326      1.0  0.20861  0.48112  0.79606  1.0000
  H   H327      1.0  0.12600  0.06413  0.61471  1.0000
  H   H328      1.0  0.20516  0.33532  0.54656  1.0000
  C   C182      1.0  0.22738  0.46915  0.79109  1.0000
  C   C183      1.0  0.24930  0.49335  0.82099  1.0000
  C   C184      1.0  0.06582  0.50558  0.93144  1.0000
  C   C185      1.0  0.18465  0.33396  0.54323  1.0000
  H   H329      1.0  0.24551  0.26587  0.92241  1.0000
  C   C186      1.0  0.08236  0.51724  0.59539  1.0000
  C   C187      1.0  0.25473  0.30084  0.99634  1.0000
  H   H330      1.0  0.06426  0.08003  0.57115  1.0000
  H   H331      1.0  0.13395  0.45825  0.52225  1.0000
  H   H332      1.0  0.23977  0.32663  0.79213  1.0000
  H   H333      1.0  0.26270  0.17339  0.86351  1.0000
  C   C188      1.0  0.09092  0.51267  0.94018  1.0000
  C   C189      1.0  0.14729  0.50619  0.00050  1.0000
  C   C190      1.0  0.10239  0.43457  0.53312  1.0000
  H   H334      1.0  0.13619  0.07651  0.65673  1.0000
  H   H335      1.0  0.04748  0.47823  0.54186  1.0000
  C   C191      1.0  0.24475  0.30511  0.79553  1.0000
  H   H336      1.0  0.12705  0.11048  0.64647  1.0000
  C   C192      1.0  0.25425  0.36415  0.83335  1.0000
  C   C193      1.0  0.11721  0.50198  0.62616  1.0000
  H   H337      1.0  0.16770  0.48067  0.77824  1.0000
  C   C194      1.0  0.25183  0.51445  0.90036  1.0000
  H   H338      1.0  0.03475  0.34731  0.75629  1.0000
  H   H339      1.0  0.25005  0.39772  0.89242  1.0000
  H   H340      1.0  0.24960  0.29064  0.98024  1.0000
  H   H341      1.0  0.06331  0.51452  0.91118  1.0000
  H   H342      1.0  0.06353  0.11138  0.61848  1.0000
  H   H343      1.0  0.10567  0.08584  0.52162  1.0000
  H   H344      1.0  0.10241  0.49854  0.64318  1.0000
  H   H345      1.0  0.13857  0.50621  0.52424  1.0000
  H   H346      1.0  0.17451  0.19746  0.52335  1.0000
  C   C195      1.0  0.11601  0.50107  0.78153  1.0000
  C   C196      1.0  0.05141  0.48798  0.72071  1.0000
  H   H347      1.0  0.12270  0.49989  0.58474  1.0000
  H   H348      1.0  0.09400  0.50441  0.73528  1.0000
  N   N10       1.0  0.08739  0.50672  0.77730  1.0000
  H   H349      1.0  0.10720  0.50478  0.92649  1.0000
  H   H350      1.0  0.02222  0.08005  0.60282  1.0000
  H   H351      1.0  0.03086  0.49128  0.71604  1.0000
  H   H352      1.0  0.07633  0.50567  0.53197  1.0000
  H   H353      1.0  0.24364  0.33604  0.01454  1.0000
  C   C197      1.0  0.12800  0.04829  0.52392  1.0000
  H   H354      1.0  0.14157  0.36913  0.01720  1.0000
  C   C198      1.0  0.22438  0.49193  0.02089  1.0000
  Fe  Fe25      1.0  0.05547  0.70030  0.27472  1.0000
  S   S47       1.0  0.07947  0.66145  0.28143  1.0000
  H   H355      1.0  0.08942  0.84540  0.29895  1.0000
  Fe  Fe26      1.0  0.10214  0.72999  0.26622  1.0000
  S   S48       1.0  0.13041  0.69392  0.27237  1.0000
  S   S49       1.0  0.10921  0.77200  0.25723  1.0000
  Fe  Fe27      1.0  0.10631  0.67640  0.24660  1.0000
  S   S50       1.0  0.12470  0.65130  0.21388  1.0000
  Fe  Fe28      1.0  0.10119  0.68244  0.30660  1.0000
  S   S51       1.0  0.11290  0.66380  0.34668  1.0000
  S   S52       1.0  0.08027  0.71347  0.23840  1.0000
  S   S53       1.0  0.07504  0.72005  0.30195  1.0000
  Fe  Fe29      1.0  0.17221  0.84875  0.38871  1.0000
  S   S54       1.0  0.16535  0.89194  0.37714  1.0000
  S   S55       1.0  0.16729  0.82849  0.42972  1.0000
  Fe  Fe30      1.0  0.18697  0.83729  0.33295  1.0000
  S   S56       1.0  0.18057  0.87940  0.31682  1.0000
  S   S57       1.0  0.20231  0.80364  0.31000  1.0000
  Fe  Fe31      1.0  0.20242  0.88657  0.35003  1.0000
  S   S58       1.0  0.23321  0.91518  0.34669  1.0000
  Fe  Fe32      1.0  0.14411  0.88051  0.34549  1.0000
  S   S59       1.0  0.10577  0.90443  0.33661  1.0000
  S   S60       1.0  0.21079  0.84429  0.36417  1.0000
  S   S61       1.0  0.14903  0.83766  0.35874  1.0000
  C   C199      1.0  0.02897  0.82784  0.28835  1.0000
  Fe  Fe33      1.0  0.13732  0.65406  0.05501  1.0000
  S   S62       1.0  0.15596  0.61289  0.06010  1.0000
  S   S63       1.0  0.12284  0.67759  0.08988  1.0000
  H   H356      1.0  0.12413  0.76125  0.48471  1.0000
  S   S64       1.0  0.22625  0.60749  0.02262  1.0000
  H   H357      1.0  0.14346  0.78769  0.47319  1.0000
  H   H358      1.0  0.04859  0.76883  0.44548  1.0000
  H   H359      1.0  0.18232  0.53226  0.16490  1.0000
  C   C200      1.0  0.11762  0.52569  0.07021  1.0000
  H   H360      1.0  0.01931  0.94382  0.31830  1.0000
  H   H361      1.0  0.24237  0.77823  0.34276  1.0000
  H   H362      1.0  0.01719  0.77193  0.46456  1.0000
  C   C201      1.0  0.12997  0.54560  0.05495  1.0000
  C   C202      1.0  0.15608  0.54806  0.05740  1.0000
  H   H363      1.0  0.26209  0.90874  0.23856  1.0000
  H   H364      1.0  0.16944  0.85577  0.51685  1.0000
  H   H365      1.0  0.10931  0.79468  0.37380  1.0000
  C   C203      1.0  0.17779  0.55086  0.15243  1.0000
  H   H366      1.0  0.16614  0.56252  0.04470  1.0000
  H   H367      1.0  0.06708  0.93844  0.38127  1.0000
  H   H368      1.0  0.23410  0.57096  0.12266  1.0000
  H   H369      1.0  0.21100  0.91958  0.51778  1.0000
  H   H370      1.0  0.01891  0.70476  0.40461  1.0000
  C   C204      1.0  0.24082  0.91458  0.48473  1.0000
  C   C205      1.0  0.16138  0.85087  0.45326  1.0000
  C   C206      1.0  0.15080  0.87652  0.44648  1.0000
  C   C207      1.0  0.14783  0.89494  0.46463  1.0000
  C   C208      1.0  0.15501  0.88766  0.48985  1.0000
  C   C209      1.0  0.16414  0.86159  0.49726  1.0000
  C   C210      1.0  0.16741  0.84319  0.47890  1.0000
  H   H371      1.0  0.14472  0.88225  0.42731  1.0000
  H   H372      1.0  0.14023  0.91495  0.45902  1.0000
  C   C211      1.0  0.03018  0.92583  0.32570  1.0000
  H   H373      1.0  0.17531  0.82326  0.48439  1.0000
  C   C212      1.0  0.12256  0.65810  0.17954  1.0000
  C   C213      1.0  0.13633  0.64068  0.16247  1.0000
  C   C214      1.0  0.13610  0.64587  0.13504  1.0000
  C   C215      1.0  0.12202  0.66862  0.12431  1.0000
  C   C216      1.0  0.10791  0.68576  0.14143  1.0000
  C   C217      1.0  0.10806  0.68052  0.16882  1.0000
  H   H374      1.0  0.14764  0.62331  0.17053  1.0000
  H   H375      1.0  0.14718  0.63255  0.12218  1.0000
  H   H376      1.0  0.09701  0.70345  0.13341  1.0000
  H   H377      1.0  0.09726  0.69407  0.18160  1.0000
  C   C218      1.0  0.10447  0.67566  0.37793  1.0000
  C   C219      1.0  0.09103  0.70042  0.38088  1.0000
  C   C220      1.0  0.08541  0.70924  0.40595  1.0000
  C   C221      1.0  0.09251  0.69325  0.42851  1.0000
  C   C222      1.0  0.10572  0.66840  0.42563  1.0000
  C   C223      1.0  0.11198  0.65987  0.40047  1.0000
  H   H378      1.0  0.08523  0.71288  0.36380  1.0000
  H   H379      1.0  0.07533  0.72857  0.40786  1.0000
  H   H380      1.0  0.10791  0.84752  0.41510  1.0000
  H   H381      1.0  0.12283  0.64090  0.39844  1.0000
  C   C224      1.0  0.13524  0.78030  0.27200  1.0000
  C   C225      1.0  0.15513  0.76128  0.27981  1.0000
  C   C226      1.0  0.17619  0.76858  0.29088  1.0000
  C   C227      1.0  0.17677  0.79471  0.29502  1.0000
  C   C228      1.0  0.15658  0.81358  0.28778  1.0000
  C   C229      1.0  0.13617  0.80644  0.27570  1.0000
  H   H382      1.0  0.15464  0.74112  0.27671  1.0000
  H   H383      1.0  0.19185  0.75398  0.29641  1.0000
  H   H384      1.0  0.15699  0.83379  0.29091  1.0000
  H   H385      1.0  0.12109  0.82119  0.26919  1.0000
  H   H386      1.0  0.06925  0.59133  0.38346  1.0000
  H   H387      1.0  0.04115  0.80896  0.46885  1.0000
  N   N11       1.0  0.08930  0.80822  0.48988  1.0000
  H   H388      1.0  0.03443  0.68133  0.32089  1.0000
  H   H389      1.0  0.24984  0.56702  0.06359  1.0000
  H   H390      1.0  0.14881  0.56753  0.18037  1.0000
  H   H391      1.0  0.20431  0.58590  0.07447  1.0000
  H   H392      1.0  0.25331  0.91119  0.29028  1.0000
  H   H393      1.0  0.16292  0.78137  0.51609  1.0000
  H   H394      1.0  0.12477  0.58350  0.11267  1.0000
  C   C230      1.0  0.07186  0.90236  0.33613  1.0000
  C   C231      1.0  0.05701  0.92521  0.32693  1.0000
  H   H395      1.0  0.13031  0.74694  0.34447  1.0000
  C   C232      1.0  0.05921  0.87978  0.34448  1.0000
  H   H396      1.0  0.06639  0.94272  0.32048  1.0000
  H   H397      1.0  0.07048  0.86196  0.35158  1.0000
  H   H398      1.0  0.21854  0.73034  0.36934  1.0000
  H   H399      1.0  0.05107  0.64413  0.21332  1.0000
  H   H400      1.0  0.06373  0.77101  0.22833  1.0000
  C   C233      1.0  0.07680  0.78547  0.48271  1.0000
  C   C234      1.0  0.07143  0.84726  0.28890  1.0000
  C   C235      1.0  0.01730  0.90366  0.33372  1.0000
  H   H401      1.0  0.21053  0.69490  0.35250  1.0000
  H   H402      1.0  0.25718  0.83164  0.43532  1.0000
  C   C236      1.0  0.13304  0.77767  0.49076  1.0000
  H   H403      1.0  0.07420  0.61999  0.36089  1.0000
  H   H404      1.0  0.17061  0.73846  0.05539  1.0000
  H   H405      1.0  0.12017  0.59527  0.21759  1.0000
  C   C237      1.0  0.03185  0.88043  0.34326  1.0000
  N   N12       1.0  0.19863  0.69463  0.13434  1.0000
  C   C238      1.0  0.19086  0.69366  0.10728  1.0000
  C   C239      1.0  0.20465  0.66703  0.14679  1.0000
  C   C240      1.0  0.17519  0.70713  0.15047  1.0000
  C   C241      1.0  0.22138  0.71031  0.13430  1.0000
  C   C242      1.0  0.10185  0.58645  0.22466  1.0000
  C   C243      1.0  0.17922  0.72016  0.09377  1.0000
  C   C244      1.0  0.17736  0.70653  0.18023  1.0000
  C   C245      1.0  0.22771  0.65001  0.13322  1.0000
  C   C246      1.0  0.22985  0.62202  0.14656  1.0000
  H   H406      1.0  0.04393  0.60709  0.51551  1.0000
  C   C247      1.0  0.17960  0.71944  0.06432  1.0000
  C   C248      1.0  0.15524  0.72439  0.19336  1.0000
  H   H407      1.0  0.17597  0.67976  0.10798  1.0000
  H   H408      1.0  0.20743  0.68558  0.09401  1.0000
  H   H409      1.0  0.20964  0.66706  0.16709  1.0000
  H   H410      1.0  0.18697  0.65650  0.14849  1.0000
  H   H411      1.0  0.15754  0.69762  0.14853  1.0000
  H   H412      1.0  0.17068  0.72803  0.14295  1.0000
  H   H413      1.0  0.21439  0.73131  0.13605  1.0000
  H   H414      1.0  0.23173  0.70376  0.15201  1.0000
  H   H415      1.0  0.03597  0.78951  0.49957  1.0000
  H   H416      1.0  0.22243  0.94410  0.45873  1.0000
  H   H417      1.0  0.15852  0.72454  0.10186  1.0000
  H   H418      1.0  0.18998  0.73647  0.09710  1.0000
  H   H419      1.0  0.19618  0.71285  0.18378  1.0000
  H   H420      1.0  0.17578  0.68645  0.19009  1.0000
  H   H421      1.0  0.22551  0.64903  0.11233  1.0000
  H   H422      1.0  0.13441  0.52634  0.17158  1.0000
  H   H423      1.0  0.13596  0.53939  0.50905  1.0000
  C   C249      1.0  0.12474  0.52270  0.51671  1.0000
  C   C250      1.0  0.01903  0.91271  0.42694  1.0000
  H   H424      1.0  0.26115  0.74253  0.11951  1.0000
  H   H425      1.0  0.19991  0.71577  0.05499  1.0000
  H   H426      1.0  0.11097  0.83958  0.47090  1.0000
  H   H427      1.0  0.07047  0.92454  0.41438  1.0000
  H   H428      1.0  0.09569  0.55051  0.12031  1.0000
  N   N13       1.0  0.01940  0.62792  0.44040  1.0000
  H   H429      1.0  0.15616  0.74509  0.18514  1.0000
  H   H430      1.0  0.13598  0.71841  0.19070  1.0000
  H   H431      1.0  0.15693  0.72300  0.21469  1.0000
  H   H432      1.0  0.21944  0.95707  0.40644  1.0000
  C   C251      1.0  0.01762  0.70392  0.42628  1.0000
  H   H433      1.0  0.19265  0.95800  0.43216  1.0000
  H   H434      1.0  0.20208  0.91944  0.47194  1.0000
  H   H435      1.0  0.19381  0.72187  0.40875  1.0000
  H   H436      1.0  0.15160  0.70029  0.40921  1.0000
  C   C252      1.0  0.23691  0.83483  0.42984  1.0000
  H   H437      1.0  0.16812  0.70390  0.06041  1.0000
  H   H438      1.0  0.07896  0.76842  0.49797  1.0000
  C   C253      1.0  0.13000  0.54361  0.15716  1.0000
  H   H439      1.0  0.21192  0.61280  0.14512  1.0000
  C   C254      1.0  0.22020  0.92370  0.26877  1.0000
  C   C255      1.0  0.10439  0.58944  0.12068  1.0000
  C   C256      1.0  0.08960  0.60180  0.09766  1.0000
  C   C257      1.0  0.09538  0.57423  0.17975  1.0000
  C   C258      1.0  0.23615  0.65142  0.04287  1.0000
  C   C259      1.0  0.02996  0.59423  0.51064  1.0000
  C   C260      1.0  0.22995  0.92681  0.50984  1.0000
  H   H440      1.0  0.19293  0.59205  0.10760  1.0000
  C   C261      1.0  0.04706  0.78996  0.47981  1.0000
  H   H441      1.0  0.03507  0.78260  0.32104  1.0000
  H   H442      1.0  0.02757  0.67721  0.45937  1.0000
  S   S65       1.0  0.04128  0.70664  0.51910  1.0000
  H   H443      1.0  0.07033  0.57034  0.13729  1.0000
  N   N14       1.0  0.10139  0.55386  0.16063  1.0000
  S   S66       1.0  0.15353  0.91173  0.51123  1.0000
  H   H444      1.0  0.24690  0.61039  0.13688  1.0000
  C   C262      1.0  0.16932  0.53170  0.07623  1.0000
  C   C263      1.0  0.22910  0.86385  0.42196  1.0000
  H   H445      1.0  0.22710  0.94847  0.50614  1.0000
  H   H446      1.0  0.24286  0.87065  0.40518  1.0000
  H   H447      1.0  0.10418  0.60489  0.13374  1.0000
  C   C264      1.0  0.25544  0.56573  0.08392  1.0000
  H   H448      1.0  0.09935  0.61864  0.08745  1.0000
  H   H449      1.0  0.08927  0.58740  0.08347  1.0000
  H   H450      1.0  0.06924  0.60911  0.10457  1.0000
  C   C265      1.0  0.09928  0.82476  0.46567  1.0000
  C   C266      1.0  0.24173  0.90276  0.27738  1.0000
  C   C267      1.0  0.03422  0.91848  0.39961  1.0000
  H   H451      1.0  0.05274  0.83249  0.49871  1.0000
  H   H452      1.0  0.17507  0.69980  0.44895  1.0000
  H   H453      1.0  0.04891  0.58781  0.47250  1.0000
  H   H454      1.0  0.21081  0.90992  0.40233  1.0000
  H   H455      1.0  0.23391  0.72189  0.09279  1.0000
  H   H456      1.0  0.24730  0.87957  0.24476  1.0000
  C   C268      1.0  0.20673  0.91845  0.42133  1.0000
  H   H457      1.0  0.07476  0.58324  0.17946  1.0000
  C   C269      1.0  0.04555  0.61999  0.42571  1.0000
  C   C270      1.0  0.04799  0.62760  0.39568  1.0000
  C   C271      1.0  0.11239  0.79725  0.50460  1.0000
  H   H458      1.0  0.03059  0.83816  0.26834  1.0000
  H   H459      1.0  0.20755  0.91566  0.25651  1.0000
  H   H460      1.0  0.21931  0.60878  0.09009  1.0000
  H   H461      1.0  0.26429  0.58397  0.08503  1.0000
  H   H462      1.0  0.20791  0.93037  0.28633  1.0000
  H   H463      1.0  0.19178  0.56464  0.15511  1.0000
  C   C272      1.0  0.23986  0.77531  0.36447  1.0000
  H   H464      1.0  0.03808  0.63540  0.47359  1.0000
  S   S67       1.0  0.11240  0.56834  0.03400  1.0000
  H   H465      1.0  0.06152  0.62830  0.43348  1.0000
  H   H466      1.0  0.05046  0.59842  0.42898  1.0000
  H   H467      1.0  0.04333  0.74912  0.47637  1.0000
  H   H468      1.0  0.24485  0.52220  0.07524  1.0000
  C   C273      1.0  0.09191  0.56521  0.13473  1.0000
  H   H469      1.0  0.04773  0.67176  0.42932  1.0000
  H   H470      1.0  0.08992  0.86028  0.50269  1.0000
  H   H471      1.0  0.03488  0.65481  0.18443  1.0000
  C   C274      1.0  0.12941  0.75772  0.36197  1.0000
  H   H472      1.0  0.10267  0.57886  0.24556  1.0000
  H   H473      1.0  0.16432  0.66263  0.36838  1.0000
  C   C275      1.0  0.17538  0.73357  0.40337  1.0000
  H   H474      1.0  0.09729  0.87416  0.43494  1.0000
  C   C276      1.0  0.05685  0.82320  0.29718  1.0000
  H   H475      1.0  0.07702  0.84908  0.26743  1.0000
  C   C277      1.0  0.22995  0.56753  0.10291  1.0000
  S   S68       1.0  0.08492  0.70574  0.45951  1.0000
  H   H476      1.0  0.23215  0.88665  0.28925  1.0000
  H   H477      1.0  0.11161  0.65597  0.44269  1.0000
  C   C278      1.0  0.22229  0.92260  0.46310  1.0000
  H   H478      1.0  0.16293  0.94706  0.40176  1.0000
  C   C279      1.0  0.25280  0.66885  0.04857  1.0000
  H   H479      1.0  0.24470  0.68696  0.05627  1.0000
  H   H480      1.0  0.02142  0.92920  0.38529  1.0000
  C   C280      1.0  0.04302  0.77495  0.22428  1.0000
  H   H481      1.0  0.05016  0.64879  0.39129  1.0000
  H   H482      1.0  0.04860  0.95414  0.40794  1.0000
  H   H483      1.0  0.17688  0.67221  0.33498  1.0000
  C   C281      1.0  0.21050  0.59004  0.09321  1.0000
  H   H484      1.0  0.08977  0.61478  0.39062  1.0000
  H   H485      1.0  0.26004  0.92177  0.47829  1.0000
  H   H486      1.0  0.15554  0.73002  0.45631  1.0000
  C   C282      1.0  0.20127  0.94846  0.41453  1.0000
  H   H487      1.0  0.18817  0.91138  0.43071  1.0000
  H   H488      1.0  0.02642  0.62569  0.20514  1.0000
  H   H489      1.0  0.04314  0.90001  0.39195  1.0000
  H   H490      1.0  0.15205  0.71061  0.36681  1.0000
  C   C283      1.0  0.15262  0.71890  0.41743  1.0000
  H   H491      1.0  0.25342  0.75826  0.37127  1.0000
  Fe  Fe34      1.0  0.18395  0.62409  0.02534  1.0000
  C   C284      1.0  0.24204  0.71017  0.10991  1.0000
  H   H492      1.0  0.23589  0.82344  0.41320  1.0000
  H   H493      1.0  0.13383  0.73138  0.41626  1.0000
  C   C285      1.0  0.15621  0.71200  0.44646  1.0000
  H   H494      1.0  0.01879  0.68160  0.22112  1.0000
  C   C286      1.0  0.19170  0.69184  0.36440  1.0000
  H   H495      1.0  0.07632  0.86577  0.41263  1.0000
  H   H496      1.0  0.05916  0.86540  0.29402  1.0000
  H   H497      1.0  0.24635  0.65778  0.13491  1.0000
  H   H498      1.0  0.11321  0.81261  0.45279  1.0000
  C   C287      1.0  0.09918  0.56414  0.20867  1.0000
  C   C288      1.0  0.07178  0.61244  0.38194  1.0000
  N   N15       1.0  0.17643  0.73970  0.37400  1.0000
  H   H499      1.0  0.24484  0.87186  0.45666  1.0000
  H   H500      1.0  0.06269  0.85027  0.45919  1.0000
  H   H501      1.0  0.02217  0.86308  0.34933  1.0000
  C   C289      1.0  0.02852  0.79540  0.24127  1.0000
  H   H502      1.0  0.14659  0.58147  0.14730  1.0000
  H   H503      1.0  0.17442  0.75186  0.41296  1.0000
  H   H504      1.0  0.25672  0.93697  0.42615  1.0000
  H   H505      1.0  0.24515  0.79293  0.37200  1.0000
  C   C290      1.0  0.18188  0.66807  0.35547  1.0000
  C   C291      1.0  0.02933  0.59570  0.48108  1.0000
  C   C292      1.0  0.07866  0.83876  0.44800  1.0000
  H   H506      1.0  0.11676  0.54973  0.21011  1.0000
  H   H507      1.0  0.09750  0.52358  0.06818  1.0000
  H   H508      1.0  0.06867  0.80636  0.28871  1.0000
  H   H509      1.0  0.12012  0.74606  0.37894  1.0000
  H   H510      1.0  0.21036  0.76892  0.39622  1.0000
  H   H511      1.0  0.19533  0.68704  0.38519  1.0000
  C   C293      1.0  0.09086  0.85766  0.42639  1.0000
  H   H512      1.0  0.14042  0.70059  0.45622  1.0000
  C   C294      1.0  0.14996  0.56287  0.15986  1.0000
  H   H513      1.0  0.24350  0.89317  0.49002  1.0000
  H   H514      1.0  0.21054  0.87606  0.45869  1.0000
  H   H515      1.0  0.06477  0.53856  0.17530  1.0000
  C   C295      1.0  0.21161  0.77111  0.37456  1.0000
  H   H516      1.0  0.05570  0.81951  0.31885  1.0000
  H   H517      1.0  0.04739  0.77752  0.27532  1.0000
  H   H518      1.0  0.18943  0.94706  0.37566  1.0000
  H   H519      1.0  0.23274  0.62178  0.16753  1.0000
  C   C296      1.0  0.18159  0.95511  0.39433  1.0000
  H   H520      1.0  0.22020  0.54947  0.10474  1.0000
  H   H521      1.0  0.17758  0.97666  0.39028  1.0000
  C   C297      1.0  0.07040  0.82403  0.50807  1.0000
  H   H522      1.0  0.17220  0.72226  0.33904  1.0000
  H   H523      1.0  0.16468  0.77408  0.34799  1.0000
  H   H524      1.0  0.20573  0.75002  0.34227  1.0000
  C   C298      1.0  0.22838  0.88015  0.44534  1.0000
  C   C299      1.0  0.11161  0.78312  0.35675  1.0000
  H   H525      1.0  0.19882  0.78894  0.36830  1.0000
  H   H526      1.0  0.11973  0.79499  0.33904  1.0000
  H   H527      1.0  0.09206  0.77851  0.35325  1.0000
  H   H528      1.0  0.19721  0.65115  0.35652  1.0000
  H   H529      1.0  0.07051  0.82411  0.43821  1.0000
  C   C300      1.0  0.17187  0.71659  0.36055  1.0000
  C   C301      1.0  0.15718  0.76313  0.36663  1.0000
  C   C302      1.0  0.20353  0.74672  0.36408  1.0000
  C   C303      1.0  0.08582  0.53133  0.17107  1.0000
  H   H530      1.0  0.15509  0.77743  0.38142  1.0000
  C   C304      1.0  0.03858  0.76864  0.46569  1.0000
  H   H531      1.0  0.08197  0.55435  0.21787  1.0000
  H   H532      1.0  0.08721  0.77837  0.46434  1.0000
  H   H533      1.0  0.22870  0.94084  0.25762  1.0000
  N   N16       1.0  0.22854  0.90923  0.43832  1.0000
  Fe  Fe35      1.0  0.08091  0.68936  0.50298  1.0000
  H   H534      1.0  0.03876  0.81320  0.23687  1.0000
  C   C305      1.0  0.03211  0.64568  0.20495  1.0000
  S   S69       1.0  0.10999  0.64582  0.02682  1.0000
  H   H535      1.0  0.03069  0.62353  0.38687  1.0000
  H   H536      1.0  0.04258  0.78232  0.20329  1.0000
  H   H537      1.0  0.10713  0.59085  0.17396  1.0000
  H   H538      1.0  0.13497  0.53605  0.13773  1.0000
  H   H539      1.0  0.26596  0.86506  0.35201  1.0000
  H   H540      1.0  0.20935  0.86585  0.41527  1.0000
  H   H541      1.0  0.12331  0.81320  0.50883  1.0000
  H   H542      1.0  0.08502  0.60181  0.22319  1.0000
  H   H543      1.0  0.21528  0.65591  0.04662  1.0000
  C   C306      1.0  0.08109  0.84695  0.51872  1.0000
  H   H544      1.0  0.24847  0.69031  0.10422  1.0000
  Fe  Fe36      1.0  0.13128  0.60538  0.02962  1.0000
  H   H545      1.0  0.22340  0.82744  0.44659  1.0000
  H   H546      1.0  0.09233  0.52194  0.19003  1.0000
  C   C307      1.0  0.05640  0.93492  0.40105  1.0000
  C   C308      1.0  0.02749  0.67653  0.43802  1.0000
  H   H547      1.0  0.01665  0.76759  0.27261  1.0000
  C   C309      1.0  0.24660  0.62852  0.03187  1.0000
  H   H548      1.0  0.02984  0.71832  0.43141  1.0000
  H   H549      1.0  0.02291  0.86194  0.42921  1.0000
  H   H550      1.0  0.16881  0.75292  0.49833  1.0000
  C   C310      1.0  0.15351  0.76580  0.50898  1.0000
  H   H551      1.0  0.18931  0.53404  0.07841  1.0000
  C   C311      1.0  0.02234  0.62426  0.46928  1.0000
  C   C312      1.0  0.25393  0.91655  0.42339  1.0000
  H   H552      1.0  0.03360  0.90186  0.43950  1.0000
  H   H553      1.0  0.18016  0.54683  0.13165  1.0000
  C   C313      1.0  0.25916  0.89207  0.25364  1.0000
  C   C314      1.0  0.02733  0.78517  0.27064  1.0000
  H   H554      1.0  0.01760  0.84230  0.30089  1.0000
  H   H555      1.0  0.25327  0.91672  0.40189  1.0000
  H   H556      1.0  0.03376  0.75645  0.22803  1.0000
  H   H557      1.0  0.03619  0.57387  0.51841  1.0000
  H   H558      1.0  0.26361  0.84367  0.27501  1.0000
  S   S70       1.0  0.16749  0.66634  0.02204  1.0000
  H   H559      1.0  0.01669  0.75098  0.35890  1.0000
  H   H560      1.0  0.04425  0.87236  0.52129  1.0000
  Fe  Fe37      1.0  0.11864  0.89124  0.60444  1.0000
  S   S71       1.0  0.12190  0.86952  0.56923  1.0000
  S   S72       1.0  0.08014  0.90167  0.62897  1.0000
  Fe  Fe38      1.0  0.17926  0.88958  0.60307  1.0000
  S   S73       1.0  0.18637  0.86655  0.56824  1.0000
  S   S74       1.0  0.21090  0.90453  0.62309  1.0000
  Fe  Fe39      1.0  0.15354  0.89422  0.55292  1.0000
  Fe  Fe40      1.0  0.15389  0.84388  0.58813  1.0000
  S   S75       1.0  0.15532  0.80001  0.59108  1.0000
  S   S76       1.0  0.14786  0.91881  0.58650  1.0000
  S   S77       1.0  0.14942  0.86426  0.62448  1.0000
  Fe  Fe41      1.0  0.03927  0.66917  0.54497  1.0000
  H   H561      1.0  0.23509  0.69956  0.00567  1.0000
  H   H562      1.0  0.05814  0.58248  0.74915  1.0000
  Fe  Fe42      1.0  0.06115  0.72002  0.55025  1.0000
  H   H563      1.0  0.26252  0.56407  0.97909  1.0000
  S   S78       1.0  0.05260  0.76062  0.56270  1.0000
  H   H564      1.0  0.23990  0.90940  0.69391  1.0000
  C   C315      1.0  0.20214  0.66247  0.84579  1.0000
  Fe  Fe43      1.0  0.09350  0.66854  0.56045  1.0000
  S   S79       1.0  0.12229  0.64992  0.58965  1.0000
  H   H565      1.0  0.05013  0.85120  0.55094  1.0000
  S   S80       1.0  0.05429  0.68470  0.57822  1.0000
  Fe  Fe44      1.0  0.13363  0.65922  0.80520  1.0000
  S   S81       1.0  0.15435  0.62047  0.81761  1.0000
  S   S82       1.0  0.12715  0.68988  0.83395  1.0000
  Fe  Fe45      1.0  0.12635  0.64327  0.75012  1.0000
  S   S83       1.0  0.14680  0.60286  0.75957  1.0000
  S   S84       1.0  0.10422  0.65658  0.71386  1.0000
  Fe  Fe46      1.0  0.12389  0.60443  0.79915  1.0000
  S   S85       1.0  0.10433  0.57275  0.82398  1.0000
  Fe  Fe47      1.0  0.17542  0.62319  0.77729  1.0000
  S   S86       1.0  0.21938  0.61460  0.77204  1.0000
  S   S87       1.0  0.10135  0.64311  0.78909  1.0000
  S   S88       1.0  0.15664  0.66372  0.76530  1.0000
  H   H566      1.0  0.06798  0.59027  0.95760  1.0000
  C   C316      1.0  0.12855  0.68473  0.86846  1.0000
  C   C317      1.0  0.12316  0.70679  0.88216  1.0000
  C   C318      1.0  0.12453  0.70484  0.90918  1.0000
  C   C319      1.0  0.13154  0.68081  0.92334  1.0000
  C   C320      1.0  0.13681  0.65829  0.90994  1.0000
  C   C321      1.0  0.13528  0.66025  0.88247  1.0000
  H   H567      1.0  0.11788  0.72570  0.87175  1.0000
  H   H568      1.0  0.12032  0.72232  0.91919  1.0000
  H   H569      1.0  0.14230  0.63959  0.92059  1.0000
  H   H570      1.0  0.13948  0.64301  0.87215  1.0000
  C   C322      1.0  0.12871  0.54873  0.83406  1.0000
  C   C323      1.0  0.15348  0.54702  0.82004  1.0000
  C   C324      1.0  0.10398  0.53085  0.53860  1.0000
  H   H571      1.0  0.09600  0.83944  0.53225  1.0000
  H   H572      1.0  0.08182  0.54289  0.79499  1.0000
  H   H573      1.0  0.03730  0.90585  0.66739  1.0000
  H   H574      1.0  0.15789  0.56110  0.80347  1.0000
  H   H575      1.0  0.13634  0.70114  0.71614  1.0000
  H   H576      1.0  0.04981  0.79350  0.65815  1.0000
  H   H577      1.0  0.07091  0.62989  0.97846  1.0000
  C   C325      1.0  0.22026  0.59161  0.82276  1.0000
  C   C326      1.0  0.23397  0.60446  0.80116  1.0000
  H   H578      1.0  0.02268  0.64079  0.59697  1.0000
  H   H579      1.0  0.20085  0.58680  0.82141  1.0000
  C   C327      1.0  0.12323  0.53070  0.85567  1.0000
  C   C328      1.0  0.11668  0.65013  0.62450  1.0000
  C   C329      1.0  0.13755  0.64263  0.63990  1.0000
  C   C330      1.0  0.13400  0.64328  0.66740  1.0000
  C   C331      1.0  0.10948  0.65163  0.67991  1.0000
  C   C332      1.0  0.08847  0.65829  0.66462  1.0000
  C   C333      1.0  0.09201  0.65757  0.63721  1.0000
  H   H580      1.0  0.15670  0.63658  0.63045  1.0000
  H   H581      1.0  0.15040  0.63801  0.67878  1.0000
  H   H582      1.0  0.06935  0.66456  0.67399  1.0000
  H   H583      1.0  0.07559  0.66288  0.62597  1.0000
  H   H584      1.0  0.22869  0.75648  0.72600  1.0000
  C   C334      1.0  0.25966  0.60934  0.80283  1.0000
  C   C335      1.0  0.26356  0.87230  0.70314  1.0000
  H   H585      1.0  0.11467  0.77334  0.65695  1.0000
  H   H586      1.0  0.25036  0.86596  0.72057  1.0000
  C   C336      1.0  0.12613  0.78889  0.58508  1.0000
  C   C337      1.0  0.10289  0.80565  0.58445  1.0000
  C   C338      1.0  0.08026  0.79682  0.57792  1.0000
  C   C339      1.0  0.08050  0.77090  0.57284  1.0000
  C   C340      1.0  0.10327  0.75370  0.57524  1.0000
  C   C341      1.0  0.12610  0.76273  0.58098  1.0000
  H   H587      1.0  0.10216  0.82533  0.58927  1.0000
  H   H588      1.0  0.06263  0.81012  0.57672  1.0000
  H   H589      1.0  0.10338  0.73334  0.57297  1.0000
  H   H590      1.0  0.14381  0.74943  0.58206  1.0000
  H   H591      1.0  0.18584  0.67169  0.85844  1.0000
  N   N17       1.0  0.11501  0.55295  0.94477  1.0000
  C   C342      1.0  0.09199  0.55363  0.75453  1.0000
  H   H592      1.0  0.22538  0.82772  0.70154  1.0000
  C   C343      1.0  0.08732  0.62257  0.96447  1.0000
  H   H593      1.0  0.17944  0.66893  0.81279  1.0000
  H   H594      1.0  0.22305  0.71444  0.97553  1.0000
  H   H595      1.0  0.20236  0.73387  0.91022  1.0000
  C   C344      1.0  0.08992  0.54261  0.94093  1.0000
  C   C345      1.0  0.04661  0.89866  0.62709  1.0000
  C   C346      1.0  0.02650  0.54213  0.58833  1.0000
  N   N18       1.0  0.23424  0.66240  0.88131  1.0000
  C   C347      1.0  0.22098  0.63923  0.89448  1.0000
  C   C348      1.0  0.22910  0.66755  0.85285  1.0000
  H   H596      1.0  0.07452  0.54729  0.95705  1.0000
  C   C349      1.0  0.22624  0.68651  0.89535  1.0000
  C   C350      1.0  0.19668  0.69524  0.90025  1.0000
  C   C351      1.0  0.22521  0.63107  0.92365  1.0000
  H   H597      1.0  0.02027  0.58410  0.57607  1.0000
  H   H598      1.0  0.10525  0.59114  0.92387  1.0000
  C   C352      1.0  0.22881  0.82848  0.64689  1.0000
  H   H599      1.0  0.23433  0.68394  0.91454  1.0000
  C   C353      1.0  0.20977  0.60833  0.93497  1.0000
  H   H600      1.0  0.10581  0.62675  0.97111  1.0000
  H   H601      1.0  0.22757  0.62193  0.88360  1.0000
  H   H602      1.0  0.19957  0.64250  0.89355  1.0000
  C   C354      1.0  0.10966  0.58241  0.94385  1.0000
  H   H603      1.0  0.24334  0.65485  0.84062  1.0000
  C   C355      1.0  0.02964  0.90201  0.64983  1.0000
  H   H604      1.0  0.01971  0.83183  0.59525  1.0000
  C   C356      1.0  0.25719  0.86052  0.67870  1.0000
  H   H605      1.0  0.23481  0.70365  0.88423  1.0000
  H   H606      1.0  0.18577  0.67904  0.90975  1.0000
  H   H607      1.0  0.18877  0.70316  0.88159  1.0000
  H   H608      1.0  0.01628  0.82717  0.66971  1.0000
  H   H609      1.0  0.21866  0.64751  0.93566  1.0000
  H   H610      1.0  0.14081  0.52562  0.92210  1.0000
  H   H611      1.0  0.08855  0.53730  0.59281  1.0000
  H   H612      1.0  0.20055  0.64111  0.84778  1.0000
  H   H613      1.0  0.10548  0.78724  0.52396  1.0000
  C   C357      1.0  0.23185  0.58441  0.84606  1.0000
  H   H614      1.0  0.10072  0.74386  0.74371  1.0000
  C   C358      1.0  0.07847  0.53559  0.77659  1.0000
  H   H615      1.0  0.23943  0.78296  0.68447  1.0000
  H   H616      1.0  0.20767  0.78687  0.72410  1.0000
  H   H617      1.0  0.21626  0.59104  0.92407  1.0000
  H   H618      1.0  0.21313  0.60288  0.95581  1.0000
  H   H619      1.0  0.18852  0.61395  0.93395  1.0000
  S   S89       1.0  0.16065  0.61324  0.99526  1.0000
  H   H620      1.0  0.16762  0.55948  0.93958  1.0000
  C   C359      1.0  0.03622  0.89374  0.60443  1.0000
  H   H621      1.0  0.08887  0.58335  0.98360  1.0000
  H   H622      1.0  0.13485  0.55657  0.97870  1.0000
  N   N19       1.0  0.26299  0.83127  0.67904  1.0000
  H   H623      1.0  0.18710  0.67184  0.64906  1.0000
  C   C360      1.0  0.10996  0.72354  0.74211  1.0000
  C   C361      1.0  0.26335  0.65554  0.88190  1.0000
  H   H624      1.0  0.13901  0.77351  0.69411  1.0000
  H   H625      1.0  0.16819  0.80605  0.67657  1.0000
  H   H626      1.0  0.11246  0.55442  0.75834  1.0000
  H   H627      1.0  0.08508  0.63337  0.94486  1.0000
  H   H628      1.0  0.12262  0.52220  0.62513  1.0000
  C   C362      1.0  0.08718  0.59319  0.96356  1.0000
  C   C363      1.0  0.23357  0.69655  0.98506  1.0000
  H   H629      1.0  0.26487  0.80268  0.65123  1.0000
  H   H630      1.0  0.15625  0.58153  0.91279  1.0000
  H   H631      1.0  0.16843  0.75791  0.67743  1.0000
  C   C364      1.0  0.04907  0.53631  0.56660  1.0000
  H   H632      1.0  0.12638  0.55290  0.90320  1.0000
  H   H633      1.0  0.07253  0.74518  0.66464  1.0000
  H   H634      1.0  0.15569  0.70196  0.62423  1.0000
  H   H635      1.0  0.19721  0.70959  0.93810  1.0000
  C   C365      1.0  0.06565  0.82864  0.64100  1.0000
  S   S90       1.0  0.10102  0.70501  0.53323  1.0000
  H   H636      1.0  0.06339  0.83901  0.65888  1.0000
  H   H637      1.0  0.08556  0.81798  0.63898  1.0000
  H   H638      1.0  0.17254  0.72939  0.62860  1.0000
  H   H639      1.0  0.08245  0.55255  0.92252  1.0000
  H   H640      1.0  0.04911  0.89124  0.58672  1.0000
  H   H641      1.0  0.07878  0.58956  0.77272  1.0000
  H   H642      1.0  0.20274  0.68976  0.62081  1.0000
  H   H643      1.0  0.08921  0.59437  0.73825  1.0000
  H   H644      1.0  0.23225  0.68804  0.84515  1.0000
  H   H645      1.0  0.04741  0.80089  0.62374  1.0000
  H   H646      1.0  0.20456  0.69911  0.65297  1.0000
  C   C366      1.0  0.18164  0.54831  0.90118  1.0000
  H   H647      1.0  0.10699  0.53964  0.98588  1.0000
  H   H648      1.0  0.12734  0.59088  0.94776  1.0000
  H   H649      1.0  0.24681  0.86953  0.59101  1.0000
  C   C367      1.0  0.26062  0.69069  0.97043  1.0000
  H   H650      1.0  0.09170  0.54830  0.53050  1.0000
  H   H651      1.0  0.25659  0.53262  0.84955  1.0000
  C   C368      1.0  0.22811  0.77802  0.72566  1.0000
  H   H652      1.0  0.17050  0.79571  0.64430  1.0000
  H   H653      1.0  0.04652  0.74139  0.62716  1.0000
  H   H654      1.0  0.12180  0.71762  0.75880  1.0000
  C   C369      1.0  0.16021  0.56055  0.92019  1.0000
  C   C370      1.0  0.13500  0.54694  0.92203  1.0000
  H   H655      1.0  0.22102  0.57461  0.86260  1.0000
  H   H656      1.0  0.05778  0.71049  0.64439  1.0000
  C   C371      1.0  0.24551  0.89995  0.61614  1.0000
  H   H657      1.0  0.07387  0.72122  0.61286  1.0000
  H   H658      1.0  0.25204  0.82235  0.72043  1.0000
  H   H659      1.0  0.06376  0.84329  0.62366  1.0000
  H   H660      1.0  0.26261  0.91010  0.71760  1.0000
  H   H661      1.0  0.08492  0.76073  0.63355  1.0000
  H   H662      1.0  0.14336  0.73410  0.71627  1.0000
  C   C372      1.0  0.25738  0.58957  0.84791  1.0000
  H   H663      1.0  0.03422  0.54521  0.60668  1.0000
  H   H664      1.0  0.19083  0.52427  0.81484  1.0000
  H   H665      1.0  0.05700  0.53939  0.77607  1.0000
  C   C373      1.0  0.07862  0.58166  0.75369  1.0000
  H   H666      1.0  0.14437  0.75384  0.52605  1.0000
  H   H667      1.0  0.09455  0.71016  0.74361  1.0000
  H   H668      1.0  0.23615  0.86675  0.67677  1.0000
  S   S91       1.0  0.13491  0.68151  0.95711  1.0000
  H   H669      1.0  0.11915  0.72721  0.62594  1.0000
  H   H670      1.0  0.14216  0.76152  0.63674  1.0000
  H   H671      1.0  0.22244  0.84973  0.64408  1.0000
  H   H672      1.0  0.10635  0.70413  0.65044  1.0000
  H   H673      1.0  0.19931  0.55832  0.90090  1.0000
  C   C374      1.0  0.17225  0.52623  0.82661  1.0000
  H   H674      1.0  0.05937  0.55421  0.56266  1.0000
  H   H675      1.0  0.25783  0.68910  0.94991  1.0000
  C   C375      1.0  0.22535  0.81702  0.62178  1.0000
  Fe  Fe48      1.0  0.14172  0.65446  0.99428  1.0000
  H   H676      1.0  0.15735  0.52036  0.00904  1.0000
  N   N20       1.0  0.12654  0.73203  0.66546  1.0000
  C   C376      1.0  0.15073  0.71256  0.66476  1.0000
  C   C377      1.0  0.11147  0.72976  0.69245  1.0000
  C   C378      1.0  0.10943  0.72507  0.64624  1.0000
  C   C379      1.0  0.13289  0.75961  0.65725  1.0000
  C   C380      1.0  0.15007  0.77078  0.67475  1.0000
  C   C381      1.0  0.16685  0.71019  0.63773  1.0000
  C   C382      1.0  0.08239  0.74153  0.64504  1.0000
  C   C383      1.0  0.12744  0.72176  0.71630  1.0000
  C   C384      1.0  0.26075  0.91475  0.62817  1.0000
  C   C385      1.0  0.15756  0.79757  0.66281  1.0000
  C   C386      1.0  0.19184  0.69159  0.64043  1.0000
  C   C387      1.0  0.06406  0.72781  0.63156  1.0000
  H   H677      1.0  0.14520  0.69272  0.67210  1.0000
  H   H678      1.0  0.16433  0.71668  0.67834  1.0000
  H   H679      1.0  0.09911  0.74843  0.69588  1.0000
  H   H680      1.0  0.09762  0.71464  0.69394  1.0000
  H   H681      1.0  0.23862  0.82493  0.60512  1.0000
  H   H682      1.0  0.04041  0.53476  0.54826  1.0000
  C   C388      1.0  0.19865  0.67305  0.81747  1.0000
  H   H683      1.0  0.22198  0.67990  0.98496  1.0000
  C   C389      1.0  0.25821  0.88079  0.60072  1.0000
  H   H684      1.0  0.25704  0.52665  0.00448  1.0000
  H   H685      1.0  0.21541  0.81953  0.66271  1.0000
  H   H686      1.0  0.25118  0.92971  0.64003  1.0000
  H   H687      1.0  0.19915  0.69456  0.81455  1.0000
  H   H688      1.0  0.17038  0.72402  0.92049  1.0000
  H   H689      1.0  0.22934  0.79537  0.62430  1.0000
  C   C390      1.0  0.25983  0.90215  0.69923  1.0000
  H   H690      1.0  0.17549  0.55072  0.88109  1.0000
  C   C391      1.0  0.04526  0.80947  0.64254  1.0000
  C   C392      1.0  0.25769  0.82359  0.65308  1.0000
  S   S92       1.0  0.07793  0.65059  0.52803  1.0000
  C   C393      1.0  0.19153  0.71703  0.91834  1.0000
  C   C394      1.0  0.01730  0.82299  0.64902  1.0000
  H   H691      1.0  0.10427  0.53238  0.86690  1.0000
  H   H692      1.0  0.24601  0.62436  0.92589  1.0000
  H   H693      1.0  0.09170  0.54695  0.73502  1.0000
  H   H694      1.0  0.21401  0.66349  0.80380  1.0000
  H   H695      1.0  0.13989  0.81118  0.65873  1.0000
  H   H696      1.0  0.20495  0.82226  0.61691  1.0000
  H   H697      1.0  0.06314  0.81089  0.52533  1.0000
  C   C395      1.0  0.12413  0.54222  0.97105  1.0000
  C   C396      1.0  0.24597  0.81861  0.70141  1.0000
  H   H698      1.0  0.18650  0.52717  0.90735  1.0000
  C   C397      1.0  0.24619  0.78854  0.70237  1.0000
  H   H699      1.0  0.23441  0.78232  0.74434  1.0000
  H   H700      1.0  0.06772  0.87929  0.54176  1.0000
  H   H701      1.0  0.24380  0.92131  0.52489  1.0000
  H   H702      1.0  0.11415  0.53668  0.55430  1.0000
  H   H703      1.0  0.23912  0.53271  0.89536  1.0000
  H   H704      1.0  0.04626  0.52056  0.74336  1.0000
  C   C398      1.0  0.05936  0.86335  0.53409  1.0000
  Fe  Fe49      1.0  0.39505  0.16917  0.33121  1.0000
  S   S93       1.0  0.39341  0.15727  0.29152  1.0000
  S   S94       1.0  0.35699  0.17708  0.35767  1.0000
  Fe  Fe50      1.0  0.45530  0.16993  0.32211  1.0000
  S   S95       1.0  0.45758  0.15856  0.28140  1.0000
  S   S96       1.0  0.48991  0.18062  0.34066  1.0000
  Fe  Fe51      1.0  0.42152  0.18655  0.27722  1.0000
  S   S97       1.0  0.41469  0.21121  0.23932  1.0000
  Fe  Fe52      1.0  0.42939  0.13018  0.29877  1.0000
  S   S98       1.0  0.43269  0.09255  0.28065  1.0000
  S   S99       1.0  0.42103  0.20082  0.31652  1.0000
  S   S100      1.0  0.42919  0.13921  0.34026  1.0000
  Fe  Fe53      1.0  0.38455  0.14831  0.12261  1.0000
  S   S101      1.0  0.34872  0.15761  0.10146  1.0000
  S   S102      1.0  0.38304  0.13463  0.16548  1.0000
  Fe  Fe54      1.0  0.42053  0.15357  0.07294  1.0000
  S   S103      1.0  0.38776  0.16243  0.04779  1.0000
  S   S104      1.0  0.46203  0.15501  0.05611  1.0000
  Fe  Fe55      1.0  0.37037  0.18952  0.07787  1.0000
  S   S105      1.0  0.35254  0.23124  0.06511  1.0000
  Fe  Fe56      1.0  0.37001  0.12959  0.07377  1.0000
  S   S106      1.0  0.35011  0.09842  0.05841  1.0000
  S   S107      1.0  0.40439  0.18211  0.10166  1.0000
  S   S108      1.0  0.40448  0.11881  0.09628  1.0000
  Fe  Fe57      1.0  0.38017  0.43989  0.06867  1.0000
  S   S109      1.0  0.33699  0.44826  0.07808  1.0000
  S   S110      1.0  0.40499  0.47378  0.05656  1.0000
  Fe  Fe58      1.0  0.37682  0.37941  0.07128  1.0000
  S   S111      1.0  0.33334  0.38426  0.08031  1.0000
  S   S112      1.0  0.40003  0.33892  0.07003  1.0000
  C   C399      1.0  0.34560  0.08243  0.28658  1.0000
  Fe  Fe59      1.0  0.34066  0.41279  0.10728  1.0000
  S   S113      1.0  0.32199  0.41143  0.14863  1.0000
  Fe  Fe60      1.0  0.33421  0.41909  0.05024  1.0000
  S   S114      1.0  0.38440  0.40623  0.10031  1.0000
  H   H705      1.0  0.36862  0.03334  0.12962  1.0000
  H   H706      1.0  0.43483  0.22406  0.05244  1.0000
  H   H707      1.0  0.32474  0.20693  0.29461  1.0000
  H   H708      1.0  0.51321  0.23430  0.24184  1.0000
  C   C400      1.0  0.50737  0.08473  0.19236  1.0000
  H   H709      1.0  0.31354  0.10729  0.33506  1.0000
  H   H710      1.0  0.44961  0.48656  0.10982  1.0000
  C   C401      1.0  0.47812  0.20838  0.13608  1.0000
  C   C402      1.0  0.31401  0.08610  0.34197  1.0000
  C   C403      1.0  0.33960  0.17614  0.23899  1.0000
  C   C404      1.0  0.36629  0.26088  0.06658  1.0000
  C   C405      1.0  0.39043  0.26120  0.07597  1.0000
  C   C406      1.0  0.40045  0.28517  0.07695  1.0000
  C   C407      1.0  0.38617  0.30920  0.06932  1.0000
  C   C408      1.0  0.36182  0.30889  0.06040  1.0000
  C   C409      1.0  0.35223  0.28490  0.05854  1.0000
  H   H711      1.0  0.40132  0.24298  0.08260  1.0000
  H   H712      1.0  0.41929  0.28511  0.08393  1.0000
  H   H713      1.0  0.35065  0.32715  0.05426  1.0000
  C   C410      1.0  0.30630  0.19869  0.44892  1.0000
  C   C411      1.0  0.35062  0.06388  0.06586  1.0000
  C   C412      1.0  0.37172  0.04728  0.07549  1.0000
  H   H714      1.0  0.29455  0.15091  0.30330  1.0000
  C   C413      1.0  0.32911  0.05262  0.06012  1.0000
  H   H715      1.0  0.38864  0.05566  0.07971  1.0000
  C   C414      1.0  0.35609  0.07647  0.36022  1.0000
  C   C415      1.0  0.37119  0.01965  0.07870  1.0000
  H   H716      1.0  0.26680  0.15527  0.44034  1.0000
  H   H717      1.0  0.26888  0.18455  0.41765  1.0000
  C   C416      1.0  0.50206  0.04416  0.27726  1.0000
  C   C417      1.0  0.27916  0.31670  0.11742  1.0000
  C   C418      1.0  0.35588  0.08511  0.31291  1.0000
  H   H718      1.0  0.45019  0.13566  0.11010  1.0000
  C   C419      1.0  0.40808  0.19024  0.21724  1.0000
  C   C420      1.0  0.41132  0.16323  0.22397  1.0000
  C   C421      1.0  0.40360  0.14636  0.20792  1.0000
  C   C422      1.0  0.39356  0.15632  0.18444  1.0000
  C   C423      1.0  0.39121  0.18332  0.17701  1.0000
  C   C424      1.0  0.39829  0.20032  0.19356  1.0000
  H   H719      1.0  0.41966  0.15517  0.24168  1.0000
  H   H720      1.0  0.40539  0.12553  0.21379  1.0000
  H   H721      1.0  0.38332  0.19108  0.15890  1.0000
  H   H722      1.0  0.39592  0.22121  0.18817  1.0000
  C   C425      1.0  0.32556  0.17541  0.34798  1.0000
  H   H723      1.0  0.34243  0.20564  0.42479  1.0000
  H   H724      1.0  0.35665  0.09046  0.24482  1.0000
  H   H725      1.0  0.33900  0.15334  0.31539  1.0000
  C   C426      1.0  0.42844  0.06493  0.32932  1.0000
  H   H726      1.0  0.39129  0.09350  0.38933  1.0000
  H   H727      1.0  0.42283  0.04166  0.27168  1.0000
  H   H728      1.0  0.34249  0.06208  0.28447  1.0000
  C   C427      1.0  0.42836  0.06456  0.30237  1.0000
  C   C428      1.0  0.35281  0.05432  0.16269  1.0000
  H   H729      1.0  0.31888  0.27159  0.21749  1.0000
  C   C429      1.0  0.41728  0.01999  0.30959  1.0000
  H   H730      1.0  0.34254  0.11819  0.36302  1.0000
  C   C430      1.0  0.49823  0.44229  0.13065  1.0000
  H   H731      1.0  0.30411  0.18219  0.43792  1.0000
  N   N21       1.0  0.48566  0.09017  0.21376  1.0000
  C   C431      1.0  0.46127  0.07856  0.20983  1.0000
  C   C432      1.0  0.27259  0.31716  0.06956  1.0000
  C   C433      1.0  0.47872  0.11948  0.21267  1.0000
  C   C434      1.0  0.44968  0.08759  0.18350  1.0000
  H   H732      1.0  0.36304  0.03562  0.32947  1.0000
  H   H733      1.0  0.30577  0.19715  0.37891  1.0000
  N   N22       1.0  0.49695  0.46414  0.08247  1.0000
  H   H734      1.0  0.44566  0.08322  0.22588  1.0000
  C   C435      1.0  0.27652  0.49257  0.08040  1.0000
  H   H735      1.0  0.43235  0.05205  0.18115  1.0000
  H   H736      1.0  0.46017  0.12416  0.22533  1.0000
  H   H737      1.0  0.47501  0.12789  0.19253  1.0000
  H   H738      1.0  0.44291  0.10881  0.18181  1.0000
  H   H739      1.0  0.28565  0.24022  0.23993  1.0000
  H   H740      1.0  0.29796  0.07229  0.30874  1.0000
  C   C436      1.0  0.29192  0.31018  0.09008  1.0000
  H   H741      1.0  0.30949  0.35062  0.12589  1.0000
  H   H742      1.0  0.34278  0.50246  0.03515  1.0000
  H   H743      1.0  0.50334  0.46660  0.04006  1.0000
  H   H744      1.0  0.36217  0.02129  0.25400  1.0000
  S   S115      1.0  0.37719  0.41236  0.03872  1.0000
  H   H745      1.0  0.29826  0.25876  0.26092  1.0000
  H   H746      1.0  0.43262  0.08228  0.33701  1.0000
  H   H747      1.0  0.45388  0.24418  0.02822  1.0000
  H   H748      1.0  0.37676  0.07701  0.31171  1.0000
  C   C437      1.0  0.48012  0.15197  0.08287  1.0000
  C   C438      1.0  0.31581  0.19512  0.24867  1.0000
  C   C439      1.0  0.26685  0.09306  0.33164  1.0000
  C   C440      1.0  0.37253  0.10634  0.38866  1.0000
  H   H749      1.0  0.31558  0.03631  0.37150  1.0000
  C   C441      1.0  0.27053  0.17352  0.48791  1.0000
  C   C442      1.0  0.34250  0.24320  0.28839  1.0000
  C   C443      1.0  0.27474  0.17288  0.33407  1.0000
  H   H750      1.0  0.28487  0.22743  0.30019  1.0000
  H   H751      1.0  0.48449  0.24282  0.15393  1.0000
  H   H752      1.0  0.39190  0.04440  0.14719  1.0000
  H   H753      1.0  0.46447  0.05693  0.21142  1.0000
  H   H754      1.0  0.29108  0.39439  0.19506  1.0000
  H   H755      1.0  0.35942  0.05956  0.18084  1.0000
  H   H756      1.0  0.49802  0.02398  0.28502  1.0000
  H   H757      1.0  0.28326  0.40920  0.11278  1.0000
  H   H758      1.0  0.49259  0.17001  0.19352  1.0000
  C   C444      1.0  0.29568  0.23844  0.25805  1.0000
  C   C445      1.0  0.34269  0.04376  0.33585  1.0000
  C   C446      1.0  0.51016  0.14428  0.12516  1.0000
  H   H759      1.0  0.46886  0.05010  0.25572  1.0000
  C   C447      1.0  0.38197  0.50908  0.09136  1.0000
  H   H760      1.0  0.40009  0.02431  0.18919  1.0000
  C   C448      1.0  0.36500  0.09101  0.26350  1.0000
  H   H761      1.0  0.36961  0.11120  0.26466  1.0000
  C   C449      1.0  0.32218  0.16245  0.32659  1.0000
  H   H762      1.0  0.49002  0.19305  0.14764  1.0000
  H   H763      1.0  0.30623  0.18461  0.26650  1.0000
  C   C450      1.0  0.34865  0.07970  0.14459  1.0000
  H   H764      1.0  0.37526  0.11213  0.34704  1.0000
  H   H765      1.0  0.31658  0.15335  0.21942  1.0000
  H   H766      1.0  0.28474  0.22723  0.47178  1.0000
  N   N23       1.0  0.32156  0.22176  0.25418  1.0000
  H   H767      1.0  0.32764  0.23304  0.44185  1.0000
  H   H768      1.0  0.30174  0.19724  0.23365  1.0000
  C   C451      1.0  0.33399  0.02715  0.36163  1.0000
  C   C452      1.0  0.32356  0.21683  0.43122  1.0000
  H   H769      1.0  0.32705  0.09534  0.28479  1.0000
  C   C453      1.0  0.49922  0.13540  0.22111  1.0000
  H   H770      1.0  0.35564  0.10650  0.31349  1.0000
  C   C454      1.0  0.33838  0.23316  0.23075  1.0000
  H   H771      1.0  0.33419  0.09393  0.15453  1.0000
  C   C455      1.0  0.33583  0.21811  0.27833  1.0000
  H   H772      1.0  0.31403  0.22510  0.41348  1.0000
  H   H773      1.0  0.47662  0.12886  0.14720  1.0000
  H   H774      1.0  0.47600  0.24905  0.12157  1.0000
  C   C456      1.0  0.33730  0.26340  0.22583  1.0000
  C   C457      1.0  0.36015  0.27158  0.20643  1.0000
  C   C458      1.0  0.35053  0.23762  0.31611  1.0000
  C   C459      1.0  0.42618  0.07331  0.18119  1.0000
  H   H775      1.0  0.31697  0.19064  0.46602  1.0000
  H   H776      1.0  0.49329  0.05752  0.29205  1.0000
  C   C460      1.0  0.50501  0.16017  0.07986  1.0000
  H   H777      1.0  0.35913  0.22498  0.23192  1.0000
  H   H778      1.0  0.42358  0.02135  0.12647  1.0000
  C   C461      1.0  0.46966  0.14141  0.10741  1.0000
  H   H779      1.0  0.36720  0.08869  0.13957  1.0000
  H   H780      1.0  0.33357  0.28497  0.05120  1.0000
  H   H781      1.0  0.35479  0.20582  0.27496  1.0000
  C   C462      1.0  0.48467  0.13756  0.12852  1.0000
  H   H782      1.0  0.35708  0.25538  0.32217  1.0000
  C   C463      1.0  0.33101  0.15017  0.23402  1.0000
  H   H783      1.0  0.43692  0.22368  0.13808  1.0000
  H   H784      1.0  0.35394  0.17189  0.25356  1.0000
  H   H785      1.0  0.34962  0.18433  0.22030  1.0000
  H   H786      1.0  0.51035  0.14492  0.02259  1.0000
  H   H787      1.0  0.33794  0.27267  0.24384  1.0000
  H   H788      1.0  0.35952  0.26426  0.18722  1.0000
  H   H789      1.0  0.35929  0.29322  0.20365  1.0000
  H   H790      1.0  0.37903  0.26375  0.21408  1.0000
  N   N24       1.0  0.34153  0.07281  0.33750  1.0000
  H   H791      1.0  0.50509  0.17586  0.22317  1.0000
  H   H792      1.0  0.33382  0.23179  0.33013  1.0000
  C   C464      1.0  0.30337  0.18708  0.36236  1.0000
  C   C465      1.0  0.42311  0.04197  0.29250  1.0000
  C   C466      1.0  0.37745  0.02019  0.23712  1.0000
  H   H793      1.0  0.30731  0.08550  0.36328  1.0000
  C   C467      1.0  0.51480  0.46240  0.05728  1.0000
  C   C468      1.0  0.48366  0.41914  0.07528  1.0000
  H   H794      1.0  0.41079  0.07680  0.19763  1.0000
  H   H795      1.0  0.50638  0.24259  0.08440  1.0000
  H   H796      1.0  0.28426  0.16098  0.47538  1.0000
  H   H797      1.0  0.31273  0.06505  0.05265  1.0000
  H   H798      1.0  0.29260  0.27141  0.14008  1.0000
  C   C469      1.0  0.31805  0.33039  0.13228  1.0000
  H   H799      1.0  0.33108  0.50969  0.15414  1.0000
  H   H800      1.0  0.33101  0.03950  0.32062  1.0000
  C   C470      1.0  0.30696  0.28407  0.14467  1.0000
  C   C471      1.0  0.33386  0.27470  0.13042  1.0000
  C   C472      1.0  0.33466  0.33284  0.15471  1.0000
  H   H801      1.0  0.44335  0.18964  0.14991  1.0000
  C   C473      1.0  0.49440  0.08043  0.24043  1.0000
  N   N25       1.0  0.29672  0.31263  0.13918  1.0000
  C   C474      1.0  0.33983  0.24495  0.13472  1.0000
  C   C475      1.0  0.36069  0.34300  0.14420  1.0000
  C   C476      1.0  0.48856  0.23546  0.13433  1.0000
  C   C477      1.0  0.28045  0.32127  0.16346  1.0000
  H   H802      1.0  0.33149  0.32440  0.11519  1.0000
  C   C478      1.0  0.37375  0.03465  0.14967  1.0000
  C   C479      1.0  0.27966  0.39457  0.17884  1.0000
  C   C480      1.0  0.29693  0.16115  0.31975  1.0000
  C   C481      1.0  0.51228  0.28572  0.10769  1.0000
  H   H803      1.0  0.30895  0.27885  0.16590  1.0000
  H   H804      1.0  0.46674  0.21132  0.03904  1.0000
  H   H805      1.0  0.34982  0.28328  0.13769  1.0000
  H   H806      1.0  0.33457  0.28047  0.10924  1.0000
  H   H807      1.0  0.46174  0.44725  0.09973  1.0000
  H   H808      1.0  0.33865  0.31381  0.16647  1.0000
  H   H809      1.0  0.34546  0.06912  0.37908  1.0000
  H   H810      1.0  0.48002  0.45427  0.13709  1.0000
  H   H811      1.0  0.32392  0.34686  0.16798  1.0000
  H   H812      1.0  0.49292  0.42287  0.12758  1.0000
  H   H813      1.0  0.49831  0.03754  0.23778  1.0000
  H   H814      1.0  0.46419  0.08343  0.16658  1.0000
  C   C482      1.0  0.29244  0.07499  0.32960  1.0000
  H   H815      1.0  0.33923  0.23806  0.15590  1.0000
  H   H816      1.0  0.32563  0.23531  0.12574  1.0000
  H   H817      1.0  0.35965  0.23895  0.12525  1.0000
  H   H818      1.0  0.37174  0.34526  0.16074  1.0000
  H   H819      1.0  0.37266  0.32921  0.13147  1.0000
  H   H820      1.0  0.35731  0.36238  0.13278  1.0000
  H   H821      1.0  0.26922  0.11223  0.32007  1.0000
  H   H822      1.0  0.28255  0.17961  0.50215  1.0000
  C   C483      1.0  0.42287  0.04277  0.34643  1.0000
  C   C484      1.0  0.51542  0.43805  0.15313  1.0000
  H   H823      1.0  0.34933  0.02526  0.37523  1.0000
  H   H824      1.0  0.32234  0.14000  0.25251  1.0000
  H   H825      1.0  0.46236  0.45693  0.06601  1.0000
  H   H826      1.0  0.47797  0.20222  0.11629  1.0000
  C   C485      1.0  0.36097  0.10488  0.36312  1.0000
  H   H827      1.0  0.38340  0.07760  0.26333  1.0000
  H   H828      1.0  0.29655  0.50161  0.12829  1.0000
  H   H829      1.0  0.47610  0.49632  0.12508  1.0000
  H   H830      1.0  0.32579  0.25865  0.28905  1.0000
  H   H831      1.0  0.36683  0.22170  0.31697  1.0000
  H   H832      1.0  0.29214  0.31792  0.18048  1.0000
  H   H833      1.0  0.33297  0.22709  0.21232  1.0000
  C   C486      1.0  0.45020  0.20923  0.14923  1.0000
  H   H834      1.0  0.34819  0.13749  0.22600  1.0000
  C   C487      1.0  0.27810  0.18604  0.35532  1.0000
  H   H835      1.0  0.34122  0.07600  0.12624  1.0000
  H   H836      1.0  0.37537  0.06451  0.35906  1.0000
  H   H837      1.0  0.33369  0.04651  0.16725  1.0000
  H   H838      1.0  0.35874  0.10041  0.40578  1.0000
  H   H839      1.0  0.42275  0.04305  0.36732  1.0000
  C   C488      1.0  0.49004  0.05192  0.25151  1.0000
  H   H840      1.0  0.35931  0.25069  0.27565  1.0000
  H   H841      1.0  0.37642  0.12673  0.38992  1.0000
  H   H842      1.0  0.44930  0.21429  0.16962  1.0000
  C   C489      1.0  0.27528  0.40289  0.13245  1.0000
  H   H843      1.0  0.51033  0.21318  0.17825  1.0000
  H   H844      1.0  0.49011  0.41873  0.05405  1.0000
  H   H845      1.0  0.29816  0.28890  0.09046  1.0000
  H   H846      1.0  0.50022  0.41013  0.08620  1.0000
  C   C490      1.0  0.47504  0.44777  0.08133  1.0000
  H   H847      1.0  0.29429  0.48765  0.09053  1.0000
  H   H848      1.0  0.45426  0.40149  0.10320  1.0000
  H   H849      1.0  0.28192  0.31114  0.05044  1.0000
  C   C491      1.0  0.29012  0.40258  0.15343  1.0000
  H   H850      1.0  0.26672  0.33860  0.06718  1.0000
  H   H851      1.0  0.48377  0.09264  0.25550  1.0000
  C   C492      1.0  0.46118  0.40222  0.08201  1.0000
  H   H852      1.0  0.37586  0.49229  0.10401  1.0000
  H   H853      1.0  0.46793  0.38197  0.07733  1.0000
  H   H854      1.0  0.28851  0.05568  0.34003  1.0000
  C   C493      1.0  0.49154  0.16475  0.21502  1.0000
  H   H855      1.0  0.30879  0.32128  0.08340  1.0000
  H   H856      1.0  0.49068  0.28787  0.11144  1.0000
  C   C494      1.0  0.27966  0.21362  0.45846  1.0000
  C   C495      1.0  0.46595  0.49884  0.10711  1.0000
  H   H857      1.0  0.41784  0.08067  0.16255  1.0000
  H   H858      1.0  0.50141  0.50510  0.08340  1.0000
  C   C496      1.0  0.51280  0.45495  0.10526  1.0000
  H   H859      1.0  0.50063  0.13140  0.24247  1.0000
  C   C497      1.0  0.39574  0.50558  0.06688  1.0000
  H   H860      1.0  0.29601  0.37626  0.03537  1.0000
  C   C498      1.0  0.44871  0.22405  0.03441  1.0000
  H   H861      1.0  0.44466  0.41013  0.07049  1.0000
  H   H862      1.0  0.47137  0.17055  0.22376  1.0000
  H   H863      1.0  0.39600  0.02560  0.03003  1.0000
  C   C499      1.0  0.48567  0.49238  0.08326  1.0000
  H   H864      1.0  0.47595  0.49931  0.06519  1.0000
  H   H865      1.0  0.39769  0.22995  0.02200  1.0000
  C   C500      1.0  0.27631  0.22867  0.28137  1.0000
  H   H866      1.0  0.38430  0.03980  0.23192  1.0000
  H   H867      1.0  0.51180  0.10043  0.05401  1.0000
  H   H868      1.0  0.45145  0.36993  0.03590  1.0000
  H   H869      1.0  0.27467  0.34267  0.16079  1.0000
  H   H870      1.0  0.27921  0.12026  0.50478  1.0000
  H   H871      1.0  0.49976  0.04459  0.18723  1.0000
  H   H872      1.0  0.50188  0.21894  0.27355  1.0000
  C   C501      1.0  0.32835  0.02550  0.06385  1.0000
  H   H873      1.0  0.50452  0.42923  0.17109  1.0000
  H   H874      1.0  0.26997  0.33740  0.11546  1.0000
  H   H875      1.0  0.34951  0.02583  0.20919  1.0000
  H   H876      1.0  0.32181  0.51829  0.10846  1.0000
  H   H877      1.0  0.51598  0.20977  0.09509  1.0000
  H   H878      1.0  0.28255  0.49497  0.05907  1.0000
  H   H879      1.0  0.48299  0.35464  0.02425  1.0000
  H   H880      1.0  0.27076  0.20917  0.27893  1.0000
  C   C502      1.0  0.41684  0.02046  0.33659  1.0000
  H   H881      1.0  0.27224  0.22638  0.44142  1.0000
  H   H882      1.0  0.51266  0.16948  0.06122  1.0000
  H   H883      1.0  0.50199  0.09485  0.17333  1.0000
  H   H884      1.0  0.27215  0.45174  0.07822  1.0000
  H   H885      1.0  0.51191  0.32783  0.09895  1.0000
  H   H886      1.0  0.51539  0.08284  0.24067  1.0000
  H   H887      1.0  0.51565  0.24945  0.27120  1.0000
  H   H888      1.0  0.32718  0.15578  0.65764  1.0000
  Fe  Fe61      1.0  0.45384  0.15308  0.62594  1.0000
  S   S116      1.0  0.45600  0.13096  0.66541  1.0000
  S   S117      1.0  0.49008  0.16308  0.59919  1.0000
  Fe  Fe62      1.0  0.39311  0.15795  0.63087  1.0000
  S   S118      1.0  0.39117  0.13673  0.67120  1.0000
  S   S119      1.0  0.35778  0.17086  0.60778  1.0000
  Fe  Fe63      1.0  0.42282  0.16003  0.67832  1.0000
  S   S120      1.0  0.42202  0.17566  0.71727  1.0000
  Fe  Fe64      1.0  0.42441  0.10956  0.65498  1.0000
  S   S121      1.0  0.42307  0.06729  0.66936  1.0000
  S   S122      1.0  0.42232  0.18415  0.63928  1.0000
  S   S123      1.0  0.42476  0.12887  0.61395  1.0000
  Fe  Fe65      1.0  0.37402  0.05181  0.88158  1.0000
  S   S124      1.0  0.41670  0.04593  0.86975  1.0000
  C   C503      1.0  0.29218  0.23123  0.84782  1.0000
  Fe  Fe66      1.0  0.37460  0.11238  0.87960  1.0000
  S   S125      1.0  0.41754  0.10972  0.86710  1.0000
  S   S126      1.0  0.35139  0.15204  0.88650  1.0000
  Fe  Fe67      1.0  0.40994  0.08102  0.84081  1.0000
  S   S127      1.0  0.43313  0.07800  0.80177  1.0000
  Fe  Fe68      1.0  0.42017  0.07502  0.89729  1.0000
  S   S128      1.0  0.45322  0.06889  0.92231  1.0000
  S   S129      1.0  0.36643  0.08562  0.85047  1.0000
  S   S130      1.0  0.37772  0.07902  0.91176  1.0000
  H   H889      1.0  0.36277  0.14472  0.72683  1.0000
  H   H890      1.0  0.27772  0.49198  0.94621  1.0000
  Fe  Fe69      1.0  0.37767  0.30131  0.88326  1.0000
  S   S131      1.0  0.33422  0.30535  0.88985  1.0000
  S   S132      1.0  0.39996  0.26051  0.88096  1.0000
  Fe  Fe70      1.0  0.37918  0.36132  0.88324  1.0000
  S   S133      1.0  0.33571  0.36890  0.88996  1.0000
  S   S134      1.0  0.40229  0.39579  0.88448  1.0000
  Fe  Fe71      1.0  0.33848  0.33312  0.91857  1.0000
  S   S135      1.0  0.31510  0.32936  0.95765  1.0000
  Fe  Fe72      1.0  0.33583  0.34071  0.86048  1.0000
  S   S136      1.0  0.30731  0.35160  0.83070  1.0000
  S   S137      1.0  0.38210  0.32697  0.91447  1.0000
  S   S138      1.0  0.37940  0.33515  0.85125  1.0000
  H   H891      1.0  0.41068  0.46796  0.94915  1.0000
  C   C504      1.0  0.31014  0.40110  0.00166  1.0000
  C   C505      1.0  0.31959  0.40255  0.97518  1.0000
  C   C506      1.0  0.32166  0.38040  0.96166  1.0000
  C   C507      1.0  0.31376  0.35695  0.97449  1.0000
  C   C508      1.0  0.30446  0.35549  0.00107  1.0000
  H   H892      1.0  0.34290  0.10545  0.68334  1.0000
  H   H893      1.0  0.32581  0.42062  0.96529  1.0000
  H   H894      1.0  0.32924  0.38159  0.94132  1.0000
  C   C509      1.0  0.45743  0.36749  0.99384  1.0000
  C   C510      1.0  0.29249  0.48822  0.96050  1.0000
  H   H895      1.0  0.37109  0.41717  0.84198  1.0000
  C   C511      1.0  0.36548  0.18149  0.88793  1.0000
  C   C512      1.0  0.34909  0.20461  0.89236  1.0000
  C   C513      1.0  0.35935  0.22881  0.89104  1.0000
  C   C514      1.0  0.38622  0.23015  0.88570  1.0000
  C   C515      1.0  0.40270  0.20673  0.88315  1.0000
  C   C516      1.0  0.39244  0.18264  0.88391  1.0000
  H   H896      1.0  0.32833  0.20373  0.89670  1.0000
  H   H897      1.0  0.34657  0.24643  0.89415  1.0000
  H   H898      1.0  0.42356  0.20716  0.88031  1.0000
  H   H899      1.0  0.40542  0.16503  0.88098  1.0000
  C   C517      1.0  0.46332  0.10009  0.92079  1.0000
  C   C518      1.0  0.44458  0.12186  0.91964  1.0000
  C   C519      1.0  0.45226  0.14703  0.91413  1.0000
  H   H900      1.0  0.35464  0.47733  0.01400  1.0000
  C   C520      1.0  0.51293  0.22186  0.65291  1.0000
  H   H901      1.0  0.28804  0.09983  0.56825  1.0000
  H   H902      1.0  0.42405  0.11924  0.92225  1.0000
  H   H903      1.0  0.43773  0.16376  0.91261  1.0000
  H   H904      1.0  0.48631  0.48623  0.78231  1.0000
  H   H905      1.0  0.47260  0.02539  0.96347  1.0000
  H   H906      1.0  0.32142  0.05666  0.57126  1.0000
  H   H907      1.0  0.27689  0.44347  0.82403  1.0000
  H   H908      1.0  0.38355  0.08736  0.77572  1.0000
  C   C521      1.0  0.32750  0.05284  0.59140  1.0000
  H   H909      1.0  0.31387  0.10487  0.65031  1.0000
  H   H910      1.0  0.38040  0.46128  0.93845  1.0000
  C   C522      1.0  0.48195  0.45104  0.90814  1.0000
  C   C523      1.0  0.42691  0.14969  0.74188  1.0000
  C   C524      1.0  0.44494  0.12804  0.73705  1.0000
  C   C525      1.0  0.44756  0.10664  0.75610  1.0000
  C   C526      1.0  0.43202  0.10668  0.78008  1.0000
  C   C527      1.0  0.41461  0.12870  0.78545  1.0000
  C   C528      1.0  0.41211  0.15019  0.76627  1.0000
  H   H911      1.0  0.45684  0.12764  0.71860  1.0000
  H   H912      1.0  0.46117  0.08973  0.75191  1.0000
  H   H913      1.0  0.40245  0.12880  0.80393  1.0000
  H   H914      1.0  0.39790  0.16674  0.76980  1.0000
  H   H915      1.0  0.37438  0.07474  0.57552  1.0000
  H   H916      1.0  0.26916  0.37211  0.93096  1.0000
  H   H917      1.0  0.46365  0.17078  0.77306  1.0000
  C   C529      1.0  0.47414  0.16763  0.79074  1.0000
  H   H918      1.0  0.42248  0.41562  0.79036  1.0000
  H   H919      1.0  0.31388  0.18010  0.57773  1.0000
  H   H920      1.0  0.51125  0.17498  0.67006  1.0000
  H   H921      1.0  0.51471  0.25112  0.69025  1.0000
  N   N26       1.0  0.32377  0.07774  0.60454  1.0000
  H   H922      1.0  0.51323  0.15111  0.79997  1.0000
  H   H923      1.0  0.46146  0.03958  0.53508  1.0000
  C   C530      1.0  0.27559  0.35356  0.84685  1.0000
  C   C531      1.0  0.49521  0.46854  0.82171  1.0000
  C   C532      1.0  0.41155  0.04903  0.64782  1.0000
  C   C533      1.0  0.41631  0.05475  0.62073  1.0000
  C   C534      1.0  0.40865  0.03833  0.60401  1.0000
  H   H924      1.0  0.28106  0.23546  0.90066  1.0000
  H   H925      1.0  0.44771  0.49167  0.80375  1.0000
  H   H926      1.0  0.42674  0.07118  0.61270  1.0000
  H   H927      1.0  0.41310  0.04223  0.58309  1.0000
  N   N27       1.0  0.38262  0.05431  0.75378  1.0000
  C   C535      1.0  0.32396  0.16804  0.61689  1.0000
  C   C536      1.0  0.39041  0.42816  0.87287  1.0000
  C   C537      1.0  0.45006  0.49217  0.82468  1.0000
  H   H928      1.0  0.42449  0.40690  0.82485  1.0000
  C   C538      1.0  0.26921  0.21426  0.85459  1.0000
  H   H929      1.0  0.36271  0.09133  0.96625  1.0000
  H   H930      1.0  0.28903  0.46913  0.97184  1.0000
  C   C539      1.0  0.30298  0.37748  0.01477  1.0000
  H   H931      1.0  0.28886  0.51241  0.78757  1.0000
  H   H932      1.0  0.30204  0.26092  0.89660  1.0000
  H   H933      1.0  0.45214  0.21087  0.99636  1.0000
  H   H934      1.0  0.27983  0.15136  0.66857  1.0000
  H   H935      1.0  0.36158  0.22380  0.99918  1.0000
  C   C540      1.0  0.30628  0.50364  0.99998  1.0000
  C   C541      1.0  0.26846  0.26882  0.82424  1.0000
  H   H936      1.0  0.33332  0.47195  0.95883  1.0000
  H   H937      1.0  0.30742  0.47572  0.81104  1.0000
  H   H938      1.0  0.30820  0.48231  0.00625  1.0000
  H   H939      1.0  0.43504  0.24047  0.83328  1.0000
  H   H940      1.0  0.40044  0.11148  0.56118  1.0000
  C   C542      1.0  0.31904  0.46655  0.92274  1.0000
  C   C543      1.0  0.48359  0.44712  0.87915  1.0000
  H   H941      1.0  0.32564  0.26994  0.97792  1.0000
  H   H942      1.0  0.30674  0.22487  0.86202  1.0000
  C   C544      1.0  0.33502  0.07214  0.63042  1.0000
  H   H943      1.0  0.33875  0.02003  0.83375  1.0000
  C   C545      1.0  0.30992  0.27339  0.84218  1.0000
  C   C546      1.0  0.32652  0.27099  0.81542  1.0000
  H   H944      1.0  0.43106  0.19383  0.02048  1.0000
  C   C547      1.0  0.35194  0.28330  0.81458  1.0000
  C   C548      1.0  0.47671  0.36506  0.91222  1.0000
  H   H945      1.0  0.30581  0.29455  0.84486  1.0000
  H   H946      1.0  0.32297  0.26505  0.85730  1.0000
  H   H947      1.0  0.31582  0.28116  0.79914  1.0000
  H   H948      1.0  0.33190  0.25028  0.81178  1.0000
  H   H949      1.0  0.41724  0.25224  0.00237  1.0000
  C   C549      1.0  0.37879  0.11473  0.56290  1.0000
  H   H950      1.0  0.30986  0.48167  0.84344  1.0000
  H   H951      1.0  0.36360  0.28129  0.79537  1.0000
  H   H952      1.0  0.34772  0.30445  0.81713  1.0000
  H   H953      1.0  0.36376  0.27346  0.83023  1.0000
  C   C550      1.0  0.41044  0.05427  0.74140  1.0000
  H   H954      1.0  0.49221  0.18770  0.69725  1.0000
  H   H955      1.0  0.32418  0.05760  0.64349  1.0000
  H   H956      1.0  0.46088  0.20881  0.74886  1.0000
  C   C551      1.0  0.47589  0.24412  0.82601  1.0000
  H   H957      1.0  0.34591  0.11106  0.63504  1.0000
  H   H958      1.0  0.50090  0.02809  0.94011  1.0000
  H   H959      1.0  0.26815  0.29033  0.91920  1.0000
  C   C552      1.0  0.33415  0.51223  0.99454  1.0000
  C   C553      1.0  0.36519  0.04655  0.73519  1.0000
  H   H960      1.0  0.41596  0.25290  0.74285  1.0000
  H   H961      1.0  0.39686  0.49134  0.88217  1.0000
  H   H962      1.0  0.43236  0.23332  0.71805  1.0000
  H   H963      1.0  0.49087  0.46891  0.91061  1.0000
  H   H964      1.0  0.47584  0.10663  0.86171  1.0000
  H   H965      1.0  0.30937  0.44865  0.92958  1.0000
  C   C554      1.0  0.36755  0.09384  0.58292  1.0000
  H   H966      1.0  0.45497  0.21310  0.84701  1.0000
  C   C555      1.0  0.37308  0.08193  0.75991  1.0000
  H   H967      1.0  0.29873  0.33728  0.01111  1.0000
  C   C556      1.0  0.38252  0.03705  0.77939  1.0000
  C   C557      1.0  0.50109  0.05747  0.85360  1.0000
  C   C558      1.0  0.45368  0.03010  0.72535  1.0000
  H   H968      1.0  0.44680  0.40797  0.98179  1.0000
  H   H969      1.0  0.47431  0.36718  0.97852  1.0000
  C   C559      1.0  0.49758  0.12885  0.91142  1.0000
  H   H970      1.0  0.32785  0.25803  0.01207  1.0000
  H   H971      1.0  0.34851  0.04527  0.58868  1.0000
  H   H972      1.0  0.37262  0.13453  0.56909  1.0000
  C   C560      1.0  0.26943  0.51392  0.85283  1.0000
  H   H973      1.0  0.33411  0.07279  0.68403  1.0000
  H   H974      1.0  0.40542  0.06167  0.96125  1.0000
  C   C561      1.0  0.39072  0.47528  0.87367  1.0000
  C   C562      1.0  0.47823  0.25495  0.85177  1.0000
  H   H975      1.0  0.36598  0.08071  0.66928  1.0000
  H   H976      1.0  0.49478  0.23285  0.82005  1.0000
  H   H977      1.0  0.46364  0.15412  0.80545  1.0000
  C   C563      1.0  0.35654  0.03906  0.79759  1.0000
  H   H978      1.0  0.45506  0.23320  0.62270  1.0000
  H   H979      1.0  0.48251  0.23871  0.86721  1.0000
  H   H980      1.0  0.31854  0.43539  0.86259  1.0000
  C   C564      1.0  0.34500  0.08808  0.67229  1.0000
  H   H981      1.0  0.27694  0.06892  0.58128  1.0000
  C   C565      1.0  0.51467  0.24964  0.74099  1.0000
  C   C566      1.0  0.51124  0.23087  0.69846  1.0000
  H   H982      1.0  0.42469  0.02389  0.00785  1.0000
  C   C567      1.0  0.44087  0.44301  0.80887  1.0000
  H   H983      1.0  0.48144  0.25342  0.61859  1.0000
  H   H984      1.0  0.32386  0.42862  0.82862  1.0000
  H   H985      1.0  0.39784  0.04183  0.79089  1.0000
  N   N28       1.0  0.27459  0.50089  0.82784  1.0000
  C   C568      1.0  0.33422  0.09601  0.64601  1.0000
  N   N29       1.0  0.40083  0.22638  0.98032  1.0000
  C   C569      1.0  0.40275  0.19734  0.97843  1.0000
  H   H986      1.0  0.49345  0.45093  0.78564  1.0000
  C   C570      1.0  0.37209  0.23632  0.98332  1.0000
  C   C571      1.0  0.41341  0.24066  0.95590  1.0000
  C   C572      1.0  0.44297  0.23285  0.94913  1.0000
  C   C573      1.0  0.39320  0.18899  0.95370  1.0000
  C   C574      1.0  0.36511  0.26508  0.98963  1.0000
  C   C575      1.0  0.31982  0.48300  0.94528  1.0000
  C   C576      1.0  0.45244  0.24402  0.92151  1.0000
  C   C577      1.0  0.39183  0.15953  0.95641  1.0000
  C   C578      1.0  0.33562  0.27146  0.99543  1.0000
  H   H987      1.0  0.48616  0.34957  0.92583  1.0000
  H   H988      1.0  0.42309  0.18794  0.97877  1.0000
  H   H989      1.0  0.48689  0.22056  0.60890  1.0000
  H   H990      1.0  0.42191  0.45537  0.81172  1.0000
  H   H991      1.0  0.47171  0.13590  0.98656  1.0000
  H   H992      1.0  0.36298  0.23511  0.96519  1.0000
  H   H993      1.0  0.40310  0.23853  0.93870  1.0000
  H   H994      1.0  0.41117  0.26205  0.95743  1.0000
  H   H995      1.0  0.44795  0.21136  0.95021  1.0000
  H   H996      1.0  0.45405  0.24099  0.96275  1.0000
  H   H997      1.0  0.37355  0.19848  0.94989  1.0000
  H   H998      1.0  0.40709  0.19397  0.93638  1.0000
  H   H999      1.0  0.37180  0.27889  0.97283  1.0000
  H   H1000     1.0  0.46347  0.03401  0.74222  1.0000
  H   H1001     1.0  0.37240  0.05313  0.71461  1.0000
  H   H1002     1.0  0.46591  0.35593  0.89904  1.0000
  H   H1003     1.0  0.47405  0.24034  0.91828  1.0000
  H   H1004     1.0  0.44433  0.23415  0.90690  1.0000
  H   H1005     1.0  0.44661  0.26541  0.91839  1.0000
  H   H1006     1.0  0.38639  0.15368  0.93799  1.0000
  H   H1007     1.0  0.41102  0.14877  0.96049  1.0000
  H   H1008     1.0  0.37680  0.15398  0.97255  1.0000
  H   H1009     1.0  0.33121  0.29173  0.00092  1.0000
  H   H1010     1.0  0.45337  0.40245  0.80189  1.0000
  H   H1011     1.0  0.37830  0.31487  0.00693  1.0000
  C   C579      1.0  0.42737  0.19706  0.81310  1.0000
  C   C580      1.0  0.40029  0.21375  0.81531  1.0000
  C   C581      1.0  0.37789  0.19654  0.81969  1.0000
  H   H1012     1.0  0.42930  0.18446  0.83194  1.0000
  H   H1013     1.0  0.42621  0.18329  0.79865  1.0000
  H   H1014     1.0  0.45985  0.26687  0.85831  1.0000
  H   H1015     1.0  0.39826  0.22578  0.83185  1.0000
  H   H1016     1.0  0.39732  0.22711  0.79731  1.0000
  H   H1017     1.0  0.44991  0.25571  0.73136  1.0000
  H   H1018     1.0  0.37389  0.19045  0.80087  1.0000
  H   H1019     1.0  0.38244  0.17872  0.83320  1.0000
  H   H1020     1.0  0.35987  0.20767  0.82824  1.0000
  C   C582      1.0  0.28157  0.25693  0.89720  1.0000
  C   C583      1.0  0.49470  0.10674  0.84915  1.0000
  C   C584      1.0  0.37478  0.33430  0.99571  1.0000
  C   C585      1.0  0.31374  0.02968  0.60638  1.0000
  N   N30       1.0  0.28872  0.50982  0.97828  1.0000
  H   H1021     1.0  0.38046  0.47430  0.96919  1.0000
  C   C586      1.0  0.45299  0.22699  0.82901  1.0000
  H   H1022     1.0  0.47989  0.04379  0.81053  1.0000
  C   C587      1.0  0.28720  0.15763  0.64868  1.0000
  H   H1023     1.0  0.27468  0.25983  0.93901  1.0000
  H   H1024     1.0  0.49442  0.26749  0.84913  1.0000
  H   H1025     1.0  0.40811  0.06335  0.99536  1.0000
  H   H1026     1.0  0.46971  0.39384  0.93984  1.0000
  H   H1027     1.0  0.50468  0.48496  0.82708  1.0000
  H   H1028     1.0  0.43482  0.02775  0.52234  1.0000
  H   H1029     1.0  0.49226  0.37527  0.90004  1.0000
  C   C588      1.0  0.29557  0.47792  0.83022  1.0000
  C   C589      1.0  0.26974  0.16343  0.62941  1.0000
  H   H1030     1.0  0.27772  0.41124  0.90128  1.0000
  H   H1031     1.0  0.30203  0.41074  0.85156  1.0000
  C   C590      1.0  0.37042  0.45922  0.83999  1.0000
  N   N31       1.0  0.46772  0.46879  0.83500  1.0000
  C   C591      1.0  0.47866  0.15052  0.90915  1.0000
  C   C592      1.0  0.37775  0.48033  0.85111  1.0000
  H   H1032     1.0  0.35551  0.06281  0.62783  1.0000
  N   N32       1.0  0.42029  0.38711  0.96473  1.0000
  C   C593      1.0  0.43547  0.37155  0.94387  1.0000
  C   C594      1.0  0.39606  0.37420  0.97512  1.0000
  C   C595      1.0  0.41131  0.41388  0.95181  1.0000
  C   C596      1.0  0.43626  0.39023  0.98655  1.0000
  H   H1033     1.0  0.30212  0.22555  0.82878  1.0000
  C   C597      1.0  0.39468  0.43313  0.96973  1.0000
  C   C598      1.0  0.40036  0.34650  0.98976  1.0000
  H   H1034     1.0  0.36019  0.34678  0.00759  1.0000
  C   C599      1.0  0.39142  0.46079  0.95565  1.0000
  H   H1035     1.0  0.42220  0.36734  0.92984  1.0000
  H   H1036     1.0  0.44348  0.35198  0.95225  1.0000
  H   H1037     1.0  0.38343  0.38596  0.98929  1.0000
  H   H1038     1.0  0.38400  0.37327  0.95882  1.0000
  H   H1039     1.0  0.39972  0.41203  0.93547  1.0000
  H   H1040     1.0  0.42838  0.42404  0.94301  1.0000
  H   H1041     1.0  0.50748  0.45062  0.82890  1.0000
  H   H1042     1.0  0.47906  0.16207  0.96163  1.0000
  N   N33       1.0  0.28505  0.26042  0.84641  1.0000
  H   H1043     1.0  0.45013  0.34813  0.99587  1.0000
  H   H1044     1.0  0.37481  0.42714  0.97541  1.0000
  H   H1045     1.0  0.41406  0.33305  0.97820  1.0000
  C   C600      1.0  0.48055  0.02990  0.82861  1.0000
  H   H1046     1.0  0.41640  0.02232  0.71651  1.0000
  H   H1047     1.0  0.29735  0.51290  0.01764  1.0000
  H   H1048     1.0  0.47554  0.42855  0.87774  1.0000
  H   H1049     1.0  0.36693  0.33161  0.97729  1.0000
  H   H1050     1.0  0.49282  0.43402  0.91871  1.0000
  H   H1051     1.0  0.40777  0.34762  0.00882  1.0000
  H   H1052     1.0  0.48255  0.05912  0.86681  1.0000
  C   C601      1.0  0.30651  0.17378  0.59760  1.0000
  C   C602      1.0  0.39807  0.02779  0.65813  1.0000
  C   C603      1.0  0.46753  0.37074  0.01970  1.0000
  H   H1053     1.0  0.33193  0.11800  0.59406  1.0000
  H   H1054     1.0  0.48425  0.08335  0.82140  1.0000
  C   C604      1.0  0.43500  0.41527  0.80640  1.0000
  H   H1055     1.0  0.29305  0.03562  0.61313  1.0000
  C   C605      1.0  0.37562  0.10363  0.73668  1.0000
  H   H1056     1.0  0.46131  0.45285  0.91691  1.0000
  H   H1057     1.0  0.48380  0.18720  0.82166  1.0000
  C   C606      1.0  0.35836  0.12881  0.74249  1.0000
  H   H1058     1.0  0.41164  0.06790  0.72322  1.0000
  C   C607      1.0  0.50130  0.15390  0.78322  1.0000
  H   H1059     1.0  0.35209  0.08339  0.76768  1.0000
  H   H1060     1.0  0.39609  0.10832  0.73288  1.0000
  H   H1061     1.0  0.33743  0.12596  0.74320  1.0000
  C   C608      1.0  0.48346  0.15264  0.98124  1.0000
  C   C609      1.0  0.48987  0.10357  0.91758  1.0000
  H   H1062     1.0  0.47254  0.26110  0.81114  1.0000
  H   H1063     1.0  0.37091  0.50642  0.01166  1.0000
  H   H1064     1.0  0.42238  0.06179  0.75467  1.0000
  H   H1065     1.0  0.47671  0.20265  0.65531  1.0000
  C   C610      1.0  0.44814  0.23136  0.78221  1.0000
  C   C611      1.0  0.28634  0.45054  0.83959  1.0000
  H   H1066     1.0  0.47809  0.48812  0.86669  1.0000
  C   C612      1.0  0.46862  0.47073  0.86379  1.0000
  H   H1067     1.0  0.26862  0.47219  0.78788  1.0000
  H   H1068     1.0  0.28541  0.07608  0.62632  1.0000
  H   H1069     1.0  0.42699  0.20736  0.76096  1.0000
  H   H1070     1.0  0.47160  0.23527  0.66499  1.0000
  H   H1071     1.0  0.35090  0.01951  0.69631  1.0000
  H   H1072     1.0  0.49956  0.13444  0.77701  1.0000
  H   H1073     1.0  0.40931  0.44564  0.90025  1.0000
  H   H1074     1.0  0.49365  0.12472  0.83533  1.0000
  H   H1075     1.0  0.32804  0.50113  0.93662  1.0000
  C   C613      1.0  0.26644  0.26902  0.92083  1.0000
  H   H1076     1.0  0.47247  0.42693  0.83218  1.0000
  H   H1077     1.0  0.42308  0.39384  0.00465  1.0000
  H   H1078     1.0  0.48964  0.23150  0.70169  1.0000
  H   H1079     1.0  0.36081  0.46288  0.82227  1.0000
  C   C614      1.0  0.43675  0.21347  0.01275  1.0000
  C   C615      1.0  0.35158  0.49879  0.01514  1.0000
  C   C616      1.0  0.42468  0.02787  0.73357  1.0000
  H   H1080     1.0  0.45034  0.40009  0.91271  1.0000
  C   C617      1.0  0.37626  0.43328  0.85112  1.0000
  C   C618      1.0  0.39420  0.06331  0.98072  1.0000
  C   C619      1.0  0.43485  0.24196  0.73614  1.0000
  H   H1081     1.0  0.33053  0.10050  0.56707  1.0000
  H   H1082     1.0  0.40401  0.43423  0.98770  1.0000
  C   C620      1.0  0.45825  0.38466  0.92737  1.0000
  C   C621      1.0  0.37787  0.08994  0.97993  1.0000
  H   H1083     1.0  0.37013  0.09737  0.71855  1.0000
  H   H1084     1.0  0.45121  0.45048  0.79009  1.0000
  H   H1085     1.0  0.35315  0.05822  0.80573  1.0000
  H   H1086     1.0  0.34515  0.05693  0.73832  1.0000
  C   C622      1.0  0.33731  0.09842  0.58686  1.0000
  C   C623      1.0  0.30919  0.43018  0.84597  1.0000
  N   N34       1.0  0.50459  0.03193  0.84162  1.0000
  C   C624      1.0  0.48317  0.22250  0.65110  1.0000
  H   H1087     1.0  0.36202  0.13496  0.76144  1.0000
  H   H1088     1.0  0.39083  0.10542  0.97326  1.0000
  H   H1089     1.0  0.44842  0.47363  0.87380  1.0000
  H   H1090     1.0  0.37343  0.02056  0.83259  1.0000
  C   C625      1.0  0.47581  0.19352  0.80251  1.0000
  H   H1091     1.0  0.46283  0.03620  0.84128  1.0000
  H   H1092     1.0  0.44286  0.43835  0.84989  1.0000
  H   H1093     1.0  0.30839  0.47819  0.90712  1.0000
  C   C626      1.0  0.39761  0.44931  0.88404  1.0000
  H   H1094     1.0  0.27679  0.13849  0.53302  1.0000
  C   C627      1.0  0.29521  0.08778  0.60939  1.0000
  H   H1095     1.0  0.43268  0.24761  0.78658  1.0000
  H   H1096     1.0  0.43004  0.49151  0.83491  1.0000
  C   C628      1.0  0.51263  0.14330  0.98071  1.0000
  S   S139      1.0  0.48740  0.18203  0.89916  1.0000
  H   H1097     1.0  0.27008  0.48056  0.88314  1.0000
  H   H1098     1.0  0.47761  0.16718  0.99557  1.0000
  C   C629      1.0  0.31409  0.16007  0.64254  1.0000
  H   H1099     1.0  0.49634  0.14719  0.72694  1.0000
  H   H1100     1.0  0.39167  0.18781  0.99594  1.0000
  H   H1101     1.0  0.39437  0.02337  0.67902  1.0000
  H   H1102     1.0  0.45635  0.04620  0.70945  1.0000
  H   H1103     1.0  0.48270  0.02472  0.89604  1.0000
  H   H1104     1.0  0.36417  0.04239  0.97135  1.0000
  H   H1105     1.0  0.49145  0.20375  0.79036  1.0000
  C   C630      1.0  0.44288  0.22014  0.75714  1.0000
  H   H1106     1.0  0.50439  0.08672  0.91826  1.0000
  H   H1107     1.0  0.29122  0.18166  0.87604  1.0000
  H   H1108     1.0  0.36820  0.09340  0.99974  1.0000
  H   H1109     1.0  0.27568  0.30388  0.99283  1.0000
  C   C631      1.0  0.45666  0.44357  0.83243  1.0000
  H   H1110     1.0  0.33923  0.46061  0.91414  1.0000
  H   H1111     1.0  0.28764  0.33567  0.88380  1.0000
  S   S140      1.0  0.30795  0.42873  0.01841  1.0000
  H   H1112     1.0  0.33965  0.03718  0.78695  1.0000
  C   C632      1.0  0.50005  0.08263  0.83420  1.0000
  N   N35       1.0  0.45092  0.21202  0.80611  1.0000
  H   H1113     1.0  0.37595  0.09460  0.60151  1.0000
  C   C633      1.0  0.27959  0.17153  0.60378  1.0000
  H   H1114     1.0  0.46620  0.24106  0.77687  1.0000
  C   C634      1.0  0.47633  0.23311  0.62363  1.0000
  C   C635      1.0  0.41239  0.23169  0.00448  1.0000
  C   C636      1.0  0.27140  0.34326  0.87300  1.0000
  H   H1115     1.0  0.51161  0.16568  0.76684  1.0000
  C   C637      1.0  0.27889  0.08890  0.58594  1.0000
  C   C638      1.0  0.49378  0.02755  0.96123  1.0000
  H   H1116     1.0  0.34386  0.50771  0.97522  1.0000
  H   H1117     1.0  0.37228  0.11381  0.54338  1.0000
  H   H1118     1.0  0.50885  0.11359  0.01240  1.0000
  S   S141      1.0  0.37415  0.51215  0.83417  1.0000
  H   H1119     1.0  0.51055  0.10720  0.86165  1.0000
  H   H1120     1.0  0.27202  0.45074  0.85716  1.0000
  H   H1121     1.0  0.36302  0.04541  0.00520  1.0000
  H   H1122     1.0  0.49386  0.25759  0.74097  1.0000
  H   H1123     1.0  0.49639  0.04642  0.96826  1.0000
  C   C639      1.0  0.37660  0.04082  0.98754  1.0000
  H   H1124     1.0  0.37394  0.26883  0.00709  1.0000
  H   H1125     1.0  0.29160  0.17875  0.84151  1.0000
  H   H1126     1.0  0.32299  0.02759  0.00517  1.0000
  H   H1127     1.0  0.29304  0.10803  0.61524  1.0000
  H   H1128     1.0  0.50456  0.44496  0.87166  1.0000
  C   C640      1.0  0.49849  0.46940  0.79156  1.0000
  C   C641      1.0  0.51257  0.18525  0.68748  1.0000
  H   H1129     1.0  0.47590  0.38962  0.01853  1.0000
  H   H1130     1.0  0.26647  0.17605  0.58872  1.0000
  H   H1131     1.0  0.38534  0.02225  0.93739  1.0000
  H   H1132     1.0  0.32352  0.02377  0.72100  1.0000
  H   H1133     1.0  0.51070  0.13146  0.69840  1.0000
  H   H1134     1.0  0.51056  0.20948  0.73755  1.0000
  H   H1135     1.0  0.26787  0.28999  0.87135  1.0000
  H   H1136     1.0  0.27871  0.30920  0.81375  1.0000
  H   H1137     1.0  0.27806  0.26116  0.80585  1.0000
  C   C642      1.0  0.26984  0.26837  0.87149  1.0000
  H   H1138     1.0  0.32395  0.02152  0.62374  1.0000
  C   C643      1.0  0.45473  0.02216  0.52844  1.0000
  C   C644      1.0  0.27937  0.18529  0.85915  1.0000
  C   C645      1.0  0.51494  0.14134  0.71511  1.0000
  H   H1139     1.0  0.42412  0.01972  0.96435  1.0000
  H   H1140     1.0  0.32394  0.51888  0.81660  1.0000
  Fe  Fe73      1.0  0.37347  0.93638  0.08260  1.0000
  S   S142      1.0  0.40359  0.93467  0.11023  1.0000
  S   S143      1.0  0.34711  0.97441  0.07422  1.0000
  Fe  Fe74      1.0  0.38746  0.87723  0.07387  1.0000
  S   S144      1.0  0.41886  0.87219  0.10067  1.0000
  S   S145      1.0  0.38066  0.84286  0.05234  1.0000
  Fe  Fe75      1.0  0.39025  0.89598  0.12685  1.0000
  S   S146      1.0  0.38275  0.88372  0.17006  1.0000
  Fe  Fe76      1.0  0.42892  0.91122  0.08139  1.0000
  S   S147      1.0  0.46987  0.92032  0.06963  1.0000
  S   S148      1.0  0.35773  0.89895  0.10134  1.0000
  S   S149      1.0  0.39981  0.91508  0.05220  1.0000
  Fe  Fe77      1.0  0.42077  0.94376  0.28067  1.0000
  S   S150      1.0  0.42422  0.90112  0.29445  1.0000
  S   S151      1.0  0.42755  0.95750  0.23794  1.0000
  Fe  Fe78      1.0  0.41273  0.95884  0.33535  1.0000
  S   S152      1.0  0.41607  0.91720  0.35378  1.0000
  S   S153      1.0  0.40718  0.99381  0.35794  1.0000
  Fe  Fe79      1.0  0.45023  0.91117  0.32284  1.0000
  S   S154      1.0  0.48838  0.88435  0.32548  1.0000
  Fe  Fe80      1.0  0.38972  0.91131  0.32372  1.0000
  S   S155      1.0  0.35672  0.88486  0.33162  1.0000
  S   S156      1.0  0.44862  0.95326  0.30703  1.0000
  S   S157      1.0  0.38439  0.95348  0.30728  1.0000
  Fe  Fe81      1.0  0.39147  0.68676  0.06925  1.0000
  H   H1141     1.0  0.41247  0.00292  0.30185  1.0000
  S   S158      1.0  0.40810  0.72006  0.08516  1.0000
  Fe  Fe82      1.0  0.38083  0.62796  0.07432  1.0000
  H   H1142     1.0  0.35854  0.99245  0.22050  1.0000
  S   S159      1.0  0.37973  0.58728  0.09707  1.0000
  H   H1143     1.0  0.47419  0.74895  0.22698  1.0000
  Fe  Fe83      1.0  0.34257  0.67148  0.05086  1.0000
  H   H1144     1.0  0.26741  0.54128  0.13118  1.0000
  S   S160      1.0  0.41566  0.64933  0.05830  1.0000
  S   S161      1.0  0.35872  0.66452  0.08967  1.0000
  C   C646      1.0  0.38536  0.55630  0.08432  1.0000
  C   C647      1.0  0.37725  0.53417  0.10014  1.0000
  C   C648      1.0  0.39842  0.55293  0.05947  1.0000
  H   H1145     1.0  0.36757  0.53643  0.11953  1.0000
  H   H1146     1.0  0.40486  0.56969  0.04712  1.0000
  H   H1147     1.0  0.46977  0.79058  0.02597  1.0000
  S   S162      1.0  0.37395  0.69544  0.03131  1.0000
  H   H1148     1.0  0.47897  0.85992  0.08266  1.0000
  H   H1149     1.0  0.48392  0.70036  0.03939  1.0000
  H   H1150     1.0  0.32473  0.98782  0.37549  1.0000
  C   C649      1.0  0.50512  0.94322  0.26409  1.0000
  C   C650      1.0  0.48170  0.78963  0.21686  1.0000
  C   C651      1.0  0.31403  0.56542  0.06634  1.0000
  C   C652      1.0  0.32262  0.89405  0.33811  1.0000
  C   C653      1.0  0.31166  0.92018  0.33600  1.0000
  H   H1151     1.0  0.28039  0.72222  0.09671  1.0000
  C   C654      1.0  0.30589  0.87431  0.34429  1.0000
  H   H1152     1.0  0.32426  0.93561  0.33161  1.0000
  H   H1153     1.0  0.31420  0.85408  0.34636  1.0000
  C   C655      1.0  0.38720  0.80886  0.06295  1.0000
  C   C656      1.0  0.37936  0.79040  0.04843  1.0000
  C   C657      1.0  0.38492  0.76329  0.05545  1.0000
  C   C658      1.0  0.39876  0.75413  0.07694  1.0000
  C   C659      1.0  0.40662  0.77257  0.09151  1.0000
  C   C660      1.0  0.40075  0.79974  0.08470  1.0000
  H   H1154     1.0  0.31130  0.01748  0.05940  1.0000
  H   H1155     1.0  0.37879  0.74949  0.04400  1.0000
  H   H1156     1.0  0.41736  0.76578  0.10814  1.0000
  H   H1157     1.0  0.40695  0.81361  0.09608  1.0000
  C   C661      1.0  0.39596  0.90357  0.18903  1.0000
  C   C662      1.0  0.41575  0.91875  0.17805  1.0000
  C   C663      1.0  0.42553  0.93522  0.19323  1.0000
  C   C664      1.0  0.41577  0.93628  0.21946  1.0000
  C   C665      1.0  0.39661  0.92047  0.23072  1.0000
  C   C666      1.0  0.38658  0.90422  0.21545  1.0000
  H   H1158     1.0  0.42389  0.91750  0.15804  1.0000
  H   H1159     1.0  0.44095  0.94686  0.18480  1.0000
  H   H1160     1.0  0.38940  0.92100  0.25115  1.0000
  H   H1161     1.0  0.37151  0.89224  0.22408  1.0000
  H   H1162     1.0  0.45121  0.69313  0.04103  1.0000
  H   H1163     1.0  0.30006  0.52674  0.16513  1.0000
  C   C667      1.0  0.48951  0.89410  0.14217  1.0000
  H   H1164     1.0  0.46049  0.79997  0.25309  1.0000
  C   C668      1.0  0.29295  0.81577  0.31216  1.0000
  H   H1165     1.0  0.45119  0.84105  0.05519  1.0000
  C   C669      1.0  0.41652  0.98693  0.02897  1.0000
  H   H1166     1.0  0.40346  0.97205  0.15699  1.0000
  H   H1167     1.0  0.48420  0.88723  0.25005  1.0000
  H   H1168     1.0  0.30026  0.85706  0.18270  1.0000
  Fe  Fe84      1.0  0.39563  0.65711  0.02178  1.0000
  C   C670      1.0  0.46451  0.57490  0.03280  1.0000
  H   H1169     1.0  0.46469  0.99248  0.12215  1.0000
  H   H1170     1.0  0.49365  0.76100  0.24885  1.0000
  H   H1171     1.0  0.47618  0.64779  0.05808  1.0000
  H   H1172     1.0  0.43940  0.97954  0.10826  1.0000
  C   C671      1.0  0.45392  0.52731  0.10382  1.0000
  H   H1173     1.0  0.48064  0.88422  0.15996  1.0000
  H   H1174     1.0  0.27609  0.71033  0.13086  1.0000
  C   C672      1.0  0.27848  0.85501  0.28097  1.0000
  H   H1175     1.0  0.43330  0.84877  0.27283  1.0000
  H   H1176     1.0  0.45553  0.99476  0.03517  1.0000
  C   C673      1.0  0.48783  0.85346  0.06361  1.0000
  C   C674      1.0  0.31571  0.86784  0.18810  1.0000
  H   H1177     1.0  0.31605  0.85223  0.24026  1.0000
  H   H1178     1.0  0.31422  0.99989  0.34388  1.0000
  H   H1179     1.0  0.40034  0.99024  0.19580  1.0000
  C   C675      1.0  0.33007  0.99947  0.35662  1.0000
  H   H1180     1.0  0.49674  0.92655  0.27635  1.0000
  C   C676      1.0  0.39217  0.84602  0.27943  1.0000
  C   C677      1.0  0.29026  0.63990  0.03350  1.0000
  H   H1181     1.0  0.27940  0.87933  0.42248  1.0000
  H   H1182     1.0  0.36887  0.79715  0.03161  1.0000
  C   C678      1.0  0.46579  0.85436  0.04621  1.0000
  H   H1183     1.0  0.44762  0.81485  0.14481  1.0000
  H   H1184     1.0  0.42439  0.81602  0.27685  1.0000
  C   C679      1.0  0.28428  0.92634  0.33902  1.0000
  H   H1185     1.0  0.43834  0.78412  0.04252  1.0000
  H   H1186     1.0  0.32480  0.54442  0.14551  1.0000
  C   C680      1.0  0.47502  0.90169  0.12079  1.0000
  C   C681      1.0  0.51572  0.89856  0.14010  1.0000
  C   C682      1.0  0.27365  0.62256  0.02759  1.0000
  H   H1187     1.0  0.48709  0.81294  0.07688  1.0000
  H   H1188     1.0  0.37746  0.83363  0.27530  1.0000
  C   C683      1.0  0.39892  0.99201  0.14711  1.0000
  H   H1189     1.0  0.30992  0.80193  0.31784  1.0000
  C   C684      1.0  0.43719  0.98966  0.04691  1.0000
  H   H1190     1.0  0.48799  0.74571  0.03449  1.0000
  H   H1191     1.0  0.44095  0.78832  0.23227  1.0000
  C   C685      1.0  0.42552  0.00333  0.14031  1.0000
  S   S163      1.0  0.30010  0.68643  0.04902  1.0000
  C   C686      1.0  0.47917  0.89218  0.22963  1.0000
  H   H1192     1.0  0.34697  0.58113  0.04278  1.0000
  H   H1193     1.0  0.47895  0.78908  0.19604  1.0000
  C   C687      1.0  0.27854  0.88047  0.34745  1.0000
  H   H1194     1.0  0.47242  0.91340  0.22684  1.0000
  C   C688      1.0  0.35343  0.99446  0.16542  1.0000
  C   C689      1.0  0.29670  0.54282  0.06729  1.0000
  H   H1195     1.0  0.44024  0.88205  0.23814  1.0000
  H   H1196     1.0  0.39200  0.84534  0.30099  1.0000
  C   C690      1.0  0.30346  0.91055  0.41569  1.0000
  H   H1197     1.0  0.27601  0.94658  0.33687  1.0000
  H   H1198     1.0  0.51142  0.95637  0.27702  1.0000
  H   H1199     1.0  0.39161  0.98920  0.12837  1.0000
  C   C691      1.0  0.34943  0.00867  0.07265  1.0000
  C   C692      1.0  0.42735  0.81363  0.18435  1.0000
  H   H1200     1.0  0.32389  0.95591  0.25590  1.0000
  H   H1201     1.0  0.32177  0.88166  0.17100  1.0000
  H   H1202     1.0  0.46360  0.83124  0.18254  1.0000
  H   H1203     1.0  0.44928  0.96539  0.13964  1.0000
  C   C693      1.0  0.33430  0.56548  0.04241  1.0000
  H   H1204     1.0  0.40654  0.82227  0.23441  1.0000
  H   H1205     1.0  0.30999  0.82332  0.27298  1.0000
  C   C694      1.0  0.27988  0.66326  0.04365  1.0000
  H   H1206     1.0  0.47201  0.84197  0.24858  1.0000
  H   H1207     1.0  0.28909  0.89723  0.20561  1.0000
  H   H1208     1.0  0.31100  0.63547  0.02941  1.0000
  H   H1209     1.0  0.32476  0.56319  0.08395  1.0000
  H   H1210     1.0  0.43471  0.79290  0.18951  1.0000
  H   H1211     1.0  0.48956  0.95425  0.25287  1.0000
  H   H1212     1.0  0.45296  0.88272  0.20420  1.0000
  C   C695      1.0  0.38744  0.00837  0.19024  1.0000
  H   H1213     1.0  0.49816  0.80113  0.21782  1.0000
  C   C696      1.0  0.45639  0.80145  0.23229  1.0000
  C   C697      1.0  0.46627  0.84681  0.22835  1.0000
  H   H1214     1.0  0.33299  0.85380  0.19253  1.0000
  H   H1215     1.0  0.31738  0.95860  0.16681  1.0000
  C   C698      1.0  0.42745  0.81789  0.15465  1.0000
  H   H1216     1.0  0.43022  0.00494  0.06023  1.0000
  H   H1217     1.0  0.33735  0.00434  0.17795  1.0000
  H   H1218     1.0  0.38664  0.86661  0.27160  1.0000
  H   H1219     1.0  0.28871  0.54423  0.04807  1.0000
  H   H1220     1.0  0.34618  0.99634  0.14573  1.0000
  H   H1221     1.0  0.39401  0.00605  0.24325  1.0000
  N   N36       1.0  0.44675  0.82927  0.22305  1.0000
  H   H1222     1.0  0.38770  0.00691  0.08525  1.0000
  C   C699      1.0  0.32611  0.93464  0.26243  1.0000
  C   C700      1.0  0.48687  0.91331  0.09729  1.0000
  H   H1223     1.0  0.30261  0.91333  0.39418  1.0000
  C   C701      1.0  0.30298  0.89335  0.26957  1.0000
  H   H1224     1.0  0.30254  0.58488  0.06517  1.0000
  H   H1225     1.0  0.31743  0.84535  0.29496  1.0000
  H   H1226     1.0  0.50609  0.84670  0.11240  1.0000
  H   H1227     1.0  0.46127  0.73815  0.05832  1.0000
  N   N37       1.0  0.27462  0.54176  0.08909  1.0000
  H   H1228     1.0  0.32354  0.88419  0.26645  1.0000
  H   H1229     1.0  0.34334  0.92539  0.25087  1.0000
  H   H1230     1.0  0.29909  0.89370  0.29111  1.0000
  C   C702      1.0  0.36626  0.01146  0.21391  1.0000
  H   H1231     1.0  0.41560  0.80392  0.14809  1.0000
  H   H1232     1.0  0.45490  0.89800  0.12239  1.0000
  C   C703      1.0  0.45759  0.87656  0.22449  1.0000
  H   H1233     1.0  0.32125  0.89713  0.41976  1.0000
  N   N38       1.0  0.28478  0.87683  0.25988  1.0000
  H   H1234     1.0  0.32949  0.93187  0.28338  1.0000
  H   H1235     1.0  0.48472  0.84345  0.21528  1.0000
  C   C704      1.0  0.30512  0.52042  0.12379  1.0000
  C   C705      1.0  0.40390  0.52769  0.05097  1.0000
  H   H1236     1.0  0.49946  0.81384  0.11870  1.0000
  C   C706      1.0  0.44408  0.83267  0.19408  1.0000
  C   C707      1.0  0.42027  0.83622  0.23745  1.0000
  H   H1237     1.0  0.32181  0.89360  0.21549  1.0000
  H   H1238     1.0  0.49681  0.88820  0.21571  1.0000
  H   H1239     1.0  0.46562  0.78269  0.06110  1.0000
  C   C708      1.0  0.35612  0.96486  0.17528  1.0000
  C   C709      1.0  0.30178  0.92259  0.25812  1.0000
  H   H1240     1.0  0.40672  0.81692  0.19286  1.0000
  C   C710      1.0  0.32958  0.95490  0.18339  1.0000
  C   C711      1.0  0.29758  0.86434  0.23595  1.0000
  H   H1241     1.0  0.41866  0.83800  0.14874  1.0000
  C   C712      1.0  0.44588  0.98395  0.12681  1.0000
  H   H1242     1.0  0.48385  0.57792  0.03837  1.0000
  C   C713      1.0  0.41945  0.83614  0.26752  1.0000
  C   C714      1.0  0.30561  0.88302  0.21153  1.0000
  H   H1243     1.0  0.45061  0.59267  0.03582  1.0000
  H   H1244     1.0  0.29995  0.92549  0.23691  1.0000
  S   S164      1.0  0.36231  0.63408  0.03697  1.0000
  C   C715      1.0  0.51532  0.82627  0.11120  1.0000
  H   H1245     1.0  0.36602  0.95337  0.15938  1.0000
  H   H1246     1.0  0.36782  0.96061  0.19216  1.0000
  C   C716      1.0  0.46654  0.74945  0.03918  1.0000
  C   C717      1.0  0.30175  0.83516  0.28913  1.0000
  H   H1247     1.0  0.41139  0.85560  0.22920  1.0000
  H   H1248     1.0  0.43490  0.85273  0.18810  1.0000
  H   H1249     1.0  0.50843  0.65685  0.04622  1.0000
  H   H1250     1.0  0.33249  0.93349  0.18906  1.0000
  H   H1251     1.0  0.31934  0.96453  0.20038  1.0000
  H   H1252     1.0  0.28462  0.85082  0.23018  1.0000
  C   C718      1.0  0.51272  0.91868  0.09566  1.0000
  H   H1253     1.0  0.34843  0.98962  0.34720  1.0000
  N   N39       1.0  0.37810  0.00752  0.16379  1.0000
  H   H1254     1.0  0.43316  0.00786  0.15821  1.0000
  H   H1255     1.0  0.30510  0.92965  0.42274  1.0000
  H   H1256     1.0  0.43168  0.73716  0.02784  1.0000
  C   C719      1.0  0.27927  0.89876  0.42952  1.0000
  H   H1257     1.0  0.31038  0.52463  0.06824  1.0000
  H   H1258     1.0  0.41458  0.52530  0.03200  1.0000
  H   H1259     1.0  0.28458  0.82607  0.32938  1.0000
  H   H1260     1.0  0.28468  0.93405  0.26788  1.0000
  H   H1261     1.0  0.40003  0.97848  0.04137  1.0000
  H   H1262     1.0  0.49663  0.62980  0.03412  1.0000
  H   H1263     1.0  0.45711  0.55825  0.04585  1.0000
  H   H1264     1.0  0.50784  0.75357  0.21673  1.0000
  C   C720      1.0  0.48974  0.76158  0.22813  1.0000
  H   H1265     1.0  0.50799  0.81867  0.04772  1.0000
  H   H1266     1.0  0.50352  0.77366  0.09177  1.0000
  C   C721      1.0  0.50216  0.82545  0.06742  1.0000
  H   H1267     1.0  0.29114  0.56169  0.11659  1.0000
  C   C722      1.0  0.26757  0.90651  0.34438  1.0000
  C   C723      1.0  0.49082  0.64953  0.04067  1.0000
  H   H1268     1.0  0.34696  0.54662  0.04257  1.0000
  H   H1269     1.0  0.47363  0.84873  0.02652  1.0000
  H   H1270     1.0  0.45568  0.87453  0.04384  1.0000
  H   H1271     1.0  0.51001  0.83671  0.16298  1.0000
  H   H1272     1.0  0.46924  0.54083  0.10175  1.0000
  C   C724      1.0  0.46928  0.69529  0.02730  1.0000
  H   H1273     1.0  0.44144  0.97085  0.05903  1.0000
  C   C725      1.0  0.45966  0.77852  0.04231  1.0000
  H   H1274     1.0  0.44001  0.53157  0.12122  1.0000
  C   C726      1.0  0.28392  0.54251  0.11548  1.0000
  H   H1275     1.0  0.44296  0.53098  0.08638  1.0000
  C   C727      1.0  0.31584  0.52575  0.14868  1.0000
  H   H1276     1.0  0.50117  0.86778  0.05424  1.0000
  H   H1277     1.0  0.28131  0.89557  0.45071  1.0000
  H   H1278     1.0  0.51388  0.80144  0.16286  1.0000
  H   H1279     1.0  0.32471  0.56931  0.02407  1.0000
  H   H1280     1.0  0.27797  0.80440  0.30669  1.0000
  H   H1281     1.0  0.26949  0.86321  0.29927  1.0000
  C   C728      1.0  0.26633  0.72209  0.11468  1.0000
  H   H1282     1.0  0.46793  0.01594  0.51124  1.0000
  H   H1283     1.0  0.36344  0.99530  0.02162  1.0000
  Fe  Fe85      1.0  0.36355  0.90407  0.62636  1.0000
  S   S165      1.0  0.34886  0.94348  0.63926  1.0000
  S   S166      1.0  0.33538  0.88119  0.60975  1.0000
  Fe  Fe86      1.0  0.41990  0.90653  0.64145  1.0000
  S   S167      1.0  0.40787  0.94596  0.65520  1.0000
  S   S168      1.0  0.46075  0.89175  0.65349  1.0000
  Fe  Fe87      1.0  0.37136  0.92993  0.67363  1.0000
  S   S169      1.0  0.35521  0.93696  0.71459  1.0000
  Fe  Fe88      1.0  0.38690  0.95528  0.61931  1.0000
  S   S170      1.0  0.38394  0.88958  0.66247  1.0000
  S   S171      1.0  0.40095  0.91678  0.60385  1.0000
  Fe  Fe89      1.0  0.36351  0.83245  0.82241  1.0000
  S   S172      1.0  0.34861  0.82767  0.86503  1.0000
  S   S173      1.0  0.33541  0.83695  0.79203  1.0000
  Fe  Fe90      1.0  0.41898  0.83001  0.83373  1.0000
  S   S174      1.0  0.40854  0.82465  0.87710  1.0000
  S   S175      1.0  0.46107  0.82948  0.81812  1.0000
  Fe  Fe91      1.0  0.38225  0.79584  0.86820  1.0000
  S   S176      1.0  0.38046  0.75563  0.89199  1.0000
  Fe  Fe92      1.0  0.37634  0.85704  0.86928  1.0000
  S   S177      1.0  0.36492  0.89098  0.89465  1.0000
  S   S178      1.0  0.39535  0.79920  0.82524  1.0000
  S   S179      1.0  0.38852  0.86376  0.82639  1.0000
  Fe  Fe93      1.0  0.31455  0.58012  0.87632  1.0000
  S   S180      1.0  0.34172  0.58492  0.83966  1.0000
  H   H1284     1.0  0.47988  0.83608  0.65016  1.0000
  Fe  Fe94      1.0  0.35958  0.56715  0.90947  1.0000
  S   S181      1.0  0.39012  0.57082  0.87517  1.0000
  S   S182      1.0  0.37054  0.55552  0.94993  1.0000
  Fe  Fe95      1.0  0.36400  0.60747  0.86285  1.0000
  S   S183      1.0  0.37711  0.64704  0.84485  1.0000
  Fe  Fe96      1.0  0.36439  0.54804  0.85641  1.0000
  H   H1285     1.0  0.38071  0.97394  0.00000  1.0000
  S   S184      1.0  0.33501  0.60469  0.89860  1.0000
  S   S185      1.0  0.33579  0.54231  0.89169  1.0000
  H   H1286     1.0  0.46315  0.01161  0.71796  1.0000
  H   H1287     1.0  0.43868  0.93859  0.85802  1.0000
  H   H1288     1.0  0.28691  0.98047  0.80012  1.0000
  H   H1289     1.0  0.34836  0.00758  0.96580  1.0000
  C   C729      1.0  0.49403  0.72335  0.84327  1.0000
  H   H1290     1.0  0.28187  0.53769  0.94451  1.0000
  S   S186      1.0  0.35145  0.01598  0.89191  1.0000
  H   H1291     1.0  0.47955  0.89986  0.88239  1.0000
  C   C730      1.0  0.45083  0.72873  0.82515  1.0000
  H   H1292     1.0  0.42411  0.69944  0.94333  1.0000
  C   C731      1.0  0.38571  0.58113  0.95842  1.0000
  C   C732      1.0  0.39096  0.58149  0.98422  1.0000
  C   C733      1.0  0.40150  0.60293  0.99130  1.0000
  C   C734      1.0  0.40676  0.62392  0.97264  1.0000
  C   C735      1.0  0.40270  0.62299  0.94660  1.0000
  C   C736      1.0  0.39201  0.60166  0.93951  1.0000
  H   H1293     1.0  0.38632  0.56554  0.99884  1.0000
  H   H1294     1.0  0.46088  0.66693  0.93459  1.0000
  H   H1295     1.0  0.40681  0.63921  0.93215  1.0000
  H   H1296     1.0  0.38816  0.60145  0.91951  1.0000
  H   H1297     1.0  0.47526  0.75814  0.96615  1.0000
  H   H1298     1.0  0.32141  0.68151  0.85644  1.0000
  H   H1299     1.0  0.27708  0.68004  0.84600  1.0000
  C   C737      1.0  0.45146  0.74073  0.01813  1.0000
  H   H1300     1.0  0.29083  0.60652  0.82742  1.0000
  C   C738      1.0  0.37873  0.72564  0.87876  1.0000
  C   C739      1.0  0.37787  0.70223  0.89560  1.0000
  C   C740      1.0  0.37640  0.67815  0.88579  1.0000
  C   C741      1.0  0.37651  0.67705  0.85886  1.0000
  C   C742      1.0  0.37738  0.70046  0.84210  1.0000
  C   C743      1.0  0.37815  0.72458  0.85196  1.0000
  H   H1301     1.0  0.37838  0.70268  0.91637  1.0000
  H   H1302     1.0  0.37589  0.66035  0.89896  1.0000
  H   H1303     1.0  0.37744  0.69991  0.82125  1.0000
  H   H1304     1.0  0.37851  0.74234  0.83873  1.0000
  C   C744      1.0  0.47339  0.85939  0.81908  1.0000
  C   C745      1.0  0.45731  0.88312  0.81703  1.0000
  C   C746      1.0  0.46780  0.90680  0.81731  1.0000
  S   S187      1.0  0.41694  0.65189  0.98222  1.0000
  H   H1305     1.0  0.32985  0.97510  0.92508  1.0000
  H   H1306     1.0  0.45438  0.52636  0.92617  1.0000
  H   H1307     1.0  0.43697  0.88336  0.81458  1.0000
  H   H1308     1.0  0.45540  0.92512  0.81529  1.0000
  C   C747      1.0  0.45637  0.74939  0.86371  1.0000
  H   H1309     1.0  0.31428  0.75277  0.95249  1.0000
  C   C748      1.0  0.49281  0.89592  0.63832  1.0000
  H   H1310     1.0  0.31868  0.63357  0.96570  1.0000
  C   C749      1.0  0.49992  0.85947  0.82126  1.0000
  H   H1311     1.0  0.30544  0.99079  0.60070  1.0000
  H   H1312     1.0  0.27052  0.51976  0.90549  1.0000
  C   C750      1.0  0.35050  0.90702  0.73291  1.0000
  C   C751      1.0  0.37156  0.89136  0.74327  1.0000
  C   C752      1.0  0.36713  0.86927  0.76095  1.0000
  C   C753      1.0  0.34172  0.86261  0.76782  1.0000
  C   C754      1.0  0.32086  0.87752  0.75639  1.0000
  C   C755      1.0  0.32522  0.89988  0.73916  1.0000
  H   H1313     1.0  0.39112  0.89688  0.73840  1.0000
  H   H1314     1.0  0.38328  0.85767  0.76962  1.0000
  H   H1315     1.0  0.30122  0.87234  0.76163  1.0000
  H   H1316     1.0  0.30898  0.91196  0.73109  1.0000
  H   H1317     1.0  0.50977  0.98518  0.91375  1.0000
  C   C756      1.0  0.30093  0.88992  0.61121  1.0000
  H   H1318     1.0  0.43942  0.96459  0.87796  1.0000
  H   H1319     1.0  0.29953  0.92097  0.63565  1.0000
  H   H1320     1.0  0.47552  0.98246  0.92054  1.0000
  N   N40       1.0  0.46417  0.71688  0.00556  1.0000
  N   N41       1.0  0.46479  0.72536  0.84954  1.0000
  C   C757      1.0  0.45669  0.70178  0.86754  1.0000
  H   H1321     1.0  0.44589  0.98355  0.54329  1.0000
  H   H1322     1.0  0.32438  0.89537  0.84844  1.0000
  C   C758      1.0  0.51147  0.81934  0.73905  1.0000
  C   C759      1.0  0.41631  0.81464  0.73928  1.0000
  C   C760      1.0  0.43602  0.72771  0.96645  1.0000
  C   C761      1.0  0.45007  0.67811  0.85465  1.0000
  C   C762      1.0  0.44645  0.65438  0.87474  1.0000
  C   C763      1.0  0.28073  0.67599  0.86686  1.0000
  H   H1323     1.0  0.46313  0.65873  0.01249  1.0000
  H   H1324     1.0  0.29592  0.80134  0.68014  1.0000
  H   H1325     1.0  0.42935  0.73112  0.83068  1.0000
  C   C764      1.0  0.30115  0.96800  0.78791  1.0000
  H   H1326     1.0  0.47199  0.69442  0.88075  1.0000
  H   H1327     1.0  0.43870  0.70738  0.88067  1.0000
  H   H1328     1.0  0.42508  0.97273  0.01505  1.0000
  C   C765      1.0  0.47078  0.98474  0.60711  1.0000
  C   C766      1.0  0.46328  0.98493  0.65654  1.0000
  H   H1329     1.0  0.31443  0.67192  0.99013  1.0000
  H   H1330     1.0  0.42706  0.74660  0.97319  1.0000
  S   S188      1.0  0.39027  0.99350  0.59430  1.0000
  C   C767      1.0  0.27131  0.60204  0.82619  1.0000
  H   H1331     1.0  0.42916  0.97790  0.92699  1.0000
  C   C768      1.0  0.51153  0.90215  0.65347  1.0000
  C   C769      1.0  0.47416  0.96874  0.63406  1.0000
  H   H1332     1.0  0.43148  0.68339  0.84570  1.0000
  H   H1333     1.0  0.46533  0.67199  0.83912  1.0000
  H   H1334     1.0  0.36278  0.74237  0.98517  1.0000
  H   H1335     1.0  0.46550  0.64583  0.88143  1.0000
  H   H1336     1.0  0.43264  0.65983  0.89180  1.0000
  H   H1337     1.0  0.48719  0.95550  0.77372  1.0000
  C   C770      1.0  0.48246  0.66268  0.93261  1.0000
  H   H1338     1.0  0.27445  0.90952  0.68355  1.0000
  H   H1339     1.0  0.49777  0.80175  0.77844  1.0000
  H   H1340     1.0  0.29496  0.82379  0.70344  1.0000
  H   H1341     1.0  0.51109  0.84781  0.90539  1.0000
  H   H1342     1.0  0.34925  0.64230  0.94849  1.0000
  H   H1343     1.0  0.43463  0.75267  0.86682  1.0000
  H   H1344     1.0  0.40538  0.60336  0.01129  1.0000
  H   H1345     1.0  0.31465  0.64817  0.85770  1.0000
  C   C771      1.0  0.29138  0.72616  0.92775  1.0000
  C   C772      1.0  0.48142  0.99110  0.55950  1.0000
  H   H1346     1.0  0.37928  0.99556  0.64960  1.0000
  H   H1347     1.0  0.34669  0.63279  0.98326  1.0000
  H   H1348     1.0  0.48145  0.80450  0.68981  1.0000
  C   C773      1.0  0.37983  0.94100  0.87461  1.0000
  C   C774      1.0  0.30026  0.74875  0.88160  1.0000
  H   H1349     1.0  0.39275  0.83795  0.97215  1.0000
  C   C775      1.0  0.31176  0.83705  0.66442  1.0000
  C   C776      1.0  0.44722  0.92564  0.89804  1.0000
  C   C777      1.0  0.47943  0.66788  0.01850  1.0000
  H   H1350     1.0  0.45192  0.77095  0.81243  1.0000
  H   H1351     1.0  0.42015  0.54116  0.82265  1.0000
  H   H1352     1.0  0.31714  0.99482  0.01904  1.0000
  H   H1353     1.0  0.46369  0.95110  0.63628  1.0000
  H   H1354     1.0  0.28020  0.93542  0.80262  1.0000
  H   H1355     1.0  0.44573  0.95604  0.58148  1.0000
  H   H1356     1.0  0.43001  0.55367  0.91925  1.0000
  H   H1357     1.0  0.29331  0.76849  0.88770  1.0000
  H   H1358     1.0  0.29528  0.86041  0.58698  1.0000
  C   C778      1.0  0.27879  0.71164  0.97348  1.0000
  H   H1359     1.0  0.46291  0.77299  0.92298  1.0000
  H   H1360     1.0  0.33482  0.00055  0.58212  1.0000
  C   C779      1.0  0.28573  0.87569  0.59845  1.0000
  H   H1361     1.0  0.31348  0.53632  0.95408  1.0000
  H   H1362     1.0  0.50015  0.74212  0.83309  1.0000
  H   H1363     1.0  0.46809  0.93449  0.59868  1.0000
  H   H1364     1.0  0.42130  0.75511  0.78625  1.0000
  C   C780      1.0  0.29921  0.94461  0.84679  1.0000
  H   H1365     1.0  0.30986  0.92635  0.78398  1.0000
  H   H1366     1.0  0.39637  0.92288  0.81282  1.0000
  C   C781      1.0  0.28824  0.90982  0.62572  1.0000
  H   H1367     1.0  0.31495  0.66298  0.88774  1.0000
  H   H1368     1.0  0.35191  0.92783  0.83816  1.0000
  C   C782      1.0  0.28852  0.98372  0.87319  1.0000
  H   H1369     1.0  0.49088  0.67904  0.93941  1.0000
  H   H1370     1.0  0.35161  0.93660  0.77786  1.0000
  H   H1371     1.0  0.31553  0.58328  0.95887  1.0000
  H   H1372     1.0  0.35365  0.83727  0.65662  1.0000
  H   H1373     1.0  0.49344  0.99668  0.80567  1.0000
  H   H1374     1.0  0.34418  0.95770  0.81898  1.0000
  H   H1375     1.0  0.34352  0.80546  0.66777  1.0000
  H   H1376     1.0  0.38835  0.95416  0.79430  1.0000
  H   H1377     1.0  0.42134  0.79661  0.72924  1.0000
  C   C783      1.0  0.44271  0.75223  0.78063  1.0000
  H   H1378     1.0  0.38450  0.98743  0.94672  1.0000
  H   H1379     1.0  0.49363  0.70764  0.97381  1.0000
  H   H1380     1.0  0.45354  0.90071  0.57213  1.0000
  C   C784      1.0  0.34678  0.93852  0.91141  1.0000
  H   H1381     1.0  0.47987  0.55059  0.00249  1.0000
  H   H1382     1.0  0.39870  0.71208  0.96697  1.0000
  C   C785      1.0  0.40904  0.00588  0.96924  1.0000
  C   C786      1.0  0.44517  0.70809  0.98935  1.0000
  C   C787      1.0  0.45948  0.89774  0.89203  1.0000
  C   C788      1.0  0.39612  0.01642  0.61449  1.0000
  C   C789      1.0  0.47892  0.88352  0.93279  1.0000
  H   H1383     1.0  0.32402  0.53847  0.77002  1.0000
  C   C790      1.0  0.38993  0.01180  0.64148  1.0000
  C   C791      1.0  0.39692  0.00369  0.94389  1.0000
  H   H1384     1.0  0.44940  0.98994  0.60649  1.0000
  N   N42       1.0  0.48712  0.83575  0.73064  1.0000
  H   H1385     1.0  0.32751  0.71360  0.99973  1.0000
  C   C792      1.0  0.48378  0.86084  0.74365  1.0000
  H   H1386     1.0  0.45597  0.79094  0.89229  1.0000
  C   C793      1.0  0.46419  0.82034  0.73931  1.0000
  C   C794      1.0  0.43726  0.83325  0.73166  1.0000
  C   C795      1.0  0.29287  0.97207  0.76022  1.0000
  H   H1387     1.0  0.30309  0.54716  0.82680  1.0000
  C   C796      1.0  0.46980  0.88560  0.72906  1.0000
  C   C797      1.0  0.46206  0.90726  0.74704  1.0000
  H   H1388     1.0  0.28487  0.70631  0.99343  1.0000
  H   H1389     1.0  0.51349  0.79978  0.73175  1.0000
  H   H1390     1.0  0.47883  0.98820  0.75916  1.0000
  H   H1391     1.0  0.48784  0.81776  0.86747  1.0000
  H   H1392     1.0  0.47395  0.85350  0.69370  1.0000
  H   H1393     1.0  0.47339  0.85773  0.76368  1.0000
  H   H1394     1.0  0.36061  0.99830  0.81422  1.0000
  C   C798      1.0  0.46704  0.74922  0.89056  1.0000
  H   H1395     1.0  0.26754  0.85789  0.85217  1.0000
  H   H1396     1.0  0.46795  0.80070  0.73214  1.0000
  H   H1397     1.0  0.46167  0.81649  0.76101  1.0000
  H   H1398     1.0  0.43760  0.83901  0.71033  1.0000
  H   H1399     1.0  0.43094  0.85065  0.74239  1.0000
  H   H1400     1.0  0.42750  0.70253  0.00222  1.0000
  H   H1401     1.0  0.50391  0.88961  0.97600  1.0000
  C   C799      1.0  0.32022  0.73212  0.96013  1.0000
  H   H1402     1.0  0.33558  0.55947  0.79036  1.0000
  H   H1403     1.0  0.48323  0.89321  0.71243  1.0000
  H   H1404     1.0  0.45202  0.88182  0.72096  1.0000
  H   H1405     1.0  0.47928  0.91166  0.75591  1.0000
  H   H1406     1.0  0.45384  0.92526  0.73562  1.0000
  H   H1407     1.0  0.44690  0.90125  0.76284  1.0000
  C   C800      1.0  0.34232  0.93656  0.82055  1.0000
  H   H1408     1.0  0.39730  0.82436  0.73334  1.0000
  C   C801      1.0  0.28740  0.86433  0.84916  1.0000
  H   H1409     1.0  0.51257  0.84124  0.82278  1.0000
  H   H1410     1.0  0.28376  0.74022  0.87527  1.0000
  C   C802      1.0  0.45394  0.99988  0.55056  1.0000
  H   H1411     1.0  0.30935  0.85826  0.66663  1.0000
  H   H1412     1.0  0.43482  0.00833  0.82375  1.0000
  C   C803      1.0  0.45832  0.51944  0.82737  1.0000
  H   H1413     1.0  0.48952  0.00912  0.56304  1.0000
  H   H1414     1.0  0.30298  0.56666  0.78075  1.0000
  C   C804      1.0  0.43255  0.87748  0.92910  1.0000
  H   H1415     1.0  0.32423  0.89099  0.81500  1.0000
  H   H1416     1.0  0.49314  0.59882  0.99323  1.0000
  H   H1417     1.0  0.44707  0.56057  0.81601  1.0000
  S   S189      1.0  0.50694  0.93625  0.82240  1.0000
  H   H1418     1.0  0.39346  0.93144  0.86036  1.0000
  C   C805      1.0  0.42445  0.85178  0.94483  1.0000
  C   C806      1.0  0.39852  0.85672  0.96180  1.0000
  C   C807      1.0  0.41559  0.71712  0.95281  1.0000
  H   H1419     1.0  0.38936  0.98024  0.86021  1.0000
  H   H1420     1.0  0.45499  0.84779  0.89025  1.0000
  C   C808      1.0  0.32245  0.73326  0.98960  1.0000
  C   C809      1.0  0.45061  0.54553  0.91441  1.0000
  H   H1421     1.0  0.41789  0.88257  0.91466  1.0000
  H   H1422     1.0  0.44850  0.89186  0.87678  1.0000
  N   N43       1.0  0.31409  0.93124  0.82407  1.0000
  C   C810      1.0  0.46675  0.56890  0.00435  1.0000
  H   H1423     1.0  0.27766  0.89284  0.81735  1.0000
  H   H1424     1.0  0.50451  0.98650  0.96912  1.0000
  H   H1425     1.0  0.45347  0.54233  0.89337  1.0000
  C   C811      1.0  0.46693  0.94904  0.58121  1.0000
  H   H1426     1.0  0.47752  0.94658  0.53864  1.0000
  H   H1427     1.0  0.49486  0.66918  0.00182  1.0000
  C   C812      1.0  0.50655  0.70072  0.82734  1.0000
  H   H1428     1.0  0.42177  0.83762  0.93108  1.0000
  H   H1429     1.0  0.44217  0.99104  0.65563  1.0000
  H   H1430     1.0  0.34344  0.97624  0.98145  1.0000
  H   H1431     1.0  0.33470  0.92719  0.92584  1.0000
  H   H1432     1.0  0.38286  0.86556  0.94954  1.0000
  H   H1433     1.0  0.50315  0.86662  0.74654  1.0000
  H   H1434     1.0  0.47864  0.75012  0.79763  1.0000
  C   C813      1.0  0.36414  0.92578  0.89295  1.0000
  C   C814      1.0  0.49263  0.74941  0.97575  1.0000
  H   H1435     1.0  0.44774  0.75763  0.00335  1.0000
  H   H1436     1.0  0.44965  0.98344  0.80346  1.0000
  H   H1437     1.0  0.45050  0.01756  0.79146  1.0000
  S   S190      1.0  0.27094  0.58079  0.87783  1.0000
  C   C815      1.0  0.33949  0.82660  0.67035  1.0000
  H   H1438     1.0  0.28819  0.97051  0.89174  1.0000
  H   H1439     1.0  0.31024  0.83458  0.64367  1.0000
  C   C816      1.0  0.49703  0.81766  0.68522  1.0000
  C   C817      1.0  0.31818  0.55065  0.78646  1.0000
  H   H1440     1.0  0.49687  0.70022  0.80948  1.0000
  H   H1441     1.0  0.30327  0.01412  0.57210  1.0000
  H   H1442     1.0  0.34241  0.82969  0.69064  1.0000
  H   H1443     1.0  0.48712  0.88383  0.60126  1.0000
  H   H1444     1.0  0.39897  0.92546  0.77762  1.0000
  H   H1445     1.0  0.49451  0.59043  0.85727  1.0000
  C   C818      1.0  0.45378  0.77230  0.90481  1.0000
  C   C819      1.0  0.30106  0.93905  0.79936  1.0000
  C   C820      1.0  0.31638  0.68762  0.94832  1.0000
  C   C821      1.0  0.32827  0.67186  0.97217  1.0000
  H   H1446     1.0  0.31542  0.75095  0.86467  1.0000
  C   C822      1.0  0.31210  0.73116  0.90400  1.0000
  H   H1447     1.0  0.51434  0.99092  0.85485  1.0000
  H   H1448     1.0  0.26925  0.67116  0.97864  1.0000
  H   H1449     1.0  0.45385  0.69022  0.98022  1.0000
  C   C823      1.0  0.44881  0.94500  0.87343  1.0000
  H   H1450     1.0  0.43184  0.01252  0.91829  1.0000
  H   H1451     1.0  0.45275  0.73093  0.95154  1.0000
  H   H1452     1.0  0.34035  0.72735  0.95047  1.0000
  C   C824      1.0  0.30710  0.97138  0.85175  1.0000
  H   H1453     1.0  0.30366  0.74191  0.99934  1.0000
  H   H1454     1.0  0.30359  0.67541  0.94038  1.0000
  H   H1455     1.0  0.33305  0.68966  0.93294  1.0000
  H   H1456     1.0  0.32066  0.97486  0.78687  1.0000
  H   H1457     1.0  0.34068  0.99186  0.71759  1.0000
  C   C825      1.0  0.28617  0.89240  0.83614  1.0000
  H   H1458     1.0  0.51418  0.83960  0.65009  1.0000
  H   H1459     1.0  0.32039  0.71242  0.89637  1.0000
  H   H1460     1.0  0.42010  0.98653  0.97417  1.0000
  H   H1461     1.0  0.44810  0.76854  0.76595  1.0000
  H   H1462     1.0  0.35947  0.90554  0.79610  1.0000
  H   H1463     1.0  0.43914  0.84235  0.95775  1.0000
  H   H1464     1.0  0.46581  0.97297  0.67552  1.0000
  C   C826      1.0  0.29122  0.82243  0.68292  1.0000
  H   H1465     1.0  0.26969  0.63656  0.87371  1.0000
  C   C827      1.0  0.37756  0.96869  0.87462  1.0000
  C   C828      1.0  0.31370  0.90207  0.83091  1.0000
  H   H1466     1.0  0.40917  0.99641  0.90372  1.0000
  H   H1467     1.0  0.48593  0.96185  0.73876  1.0000
  C   C829      1.0  0.49422  0.90672  0.82047  1.0000
  N   N44       1.0  0.48299  0.58806  0.95673  1.0000
  C   C830      1.0  0.46531  0.56997  0.94878  1.0000
  C   C831      1.0  0.47627  0.59217  0.98538  1.0000
  C   C832      1.0  0.47805  0.61419  0.94071  1.0000
  H   H1468     1.0  0.48832  0.75102  0.88773  1.0000
  C   C833      1.0  0.46928  0.56447  0.91970  1.0000
  C   C834      1.0  0.49080  0.63720  0.94889  1.0000
  H   H1469     1.0  0.47361  0.00261  0.65567  1.0000
  C   C835      1.0  0.41820  0.99725  0.92192  1.0000
  H   H1470     1.0  0.26865  0.65275  0.90230  1.0000
  H   H1471     1.0  0.48944  0.55544  0.91451  1.0000
  H   H1472     1.0  0.44457  0.57804  0.95316  1.0000
  H   H1473     1.0  0.44705  0.56524  0.00027  1.0000
  C   C836      1.0  0.33620  0.64341  0.96702  1.0000
  H   H1474     1.0  0.46002  0.60820  0.98768  1.0000
  H   H1475     1.0  0.45670  0.62029  0.94127  1.0000
  H   H1476     1.0  0.48525  0.61278  0.91972  1.0000
  H   H1477     1.0  0.29213  0.99311  0.75277  1.0000
  C   C837      1.0  0.48970  0.72134  0.98921  1.0000
  C   C838      1.0  0.34307  0.01294  0.71657  1.0000
  N   N45       1.0  0.45997  0.87697  0.91520  1.0000
  C   C839      1.0  0.49116  0.84163  0.70124  1.0000
  H   H1478     1.0  0.50375  0.72052  0.86155  1.0000
  C   C840      1.0  0.37089  0.99424  0.00070  1.0000
  N   N46       1.0  0.48245  0.97133  0.58335  1.0000
  H   H1479     1.0  0.49521  0.54316  0.85571  1.0000
  C   C841      1.0  0.28416  0.56041  0.97633  1.0000
  C   C842      1.0  0.46839  0.85094  0.90462  1.0000
  H   H1480     1.0  0.45465  0.71101  0.81462  1.0000
  H   H1481     1.0  0.50570  0.90668  0.67327  1.0000
  C   C843      1.0  0.35924  0.98129  0.89274  1.0000
  C   C844      1.0  0.35919  0.92683  0.79613  1.0000
  H   H1482     1.0  0.45754  0.93319  0.91262  1.0000
  H   H1483     1.0  0.29501  0.86296  0.86851  1.0000
  C   C845      1.0  0.45751  0.75185  0.80452  1.0000
  C   C846      1.0  0.34414  0.96583  0.91110  1.0000
  H   H1484     1.0  0.30746  0.98545  0.83397  1.0000
  H   H1485     1.0  0.40031  0.86996  0.97675  1.0000
  C   C847      1.0  0.30965  0.66645  0.86735  1.0000
  H   H1486     1.0  0.41398  0.80938  0.76081  1.0000
  H   H1487     1.0  0.30009  0.85093  0.83662  1.0000
  H   H1488     1.0  0.50755  0.85392  0.69572  1.0000
  C   C848      1.0  0.50097  0.88976  0.61281  1.0000
  H   H1489     1.0  0.51118  0.83221  0.77822  1.0000
  C   C849      1.0  0.49675  0.84698  0.89131  1.0000
  H   H1490     1.0  0.26702  0.73108  0.97444  1.0000
  H   H1491     1.0  0.42629  0.92580  0.90562  1.0000
  C   C850      1.0  0.48435  0.86346  0.95666  1.0000
  H   H1492     1.0  0.42888  0.89323  0.94242  1.0000
  H   H1493     1.0  0.40840  0.73216  0.93746  1.0000
  H   H1494     1.0  0.43673  0.92560  0.55060  1.0000
  H   H1495     1.0  0.47186  0.90227  0.94102  1.0000
  H   H1496     1.0  0.44776  0.73367  0.77146  1.0000
  H   H1497     1.0  0.46269  0.76723  0.85177  1.0000
  H   H1498     1.0  0.28180  0.60480  0.01923  1.0000
  H   H1499     1.0  0.33329  0.53367  0.99504  1.0000
  C   C851      1.0  0.51020  0.88300  0.82225  1.0000
  H   H1500     1.0  0.46719  0.55063  0.96047  1.0000
  C   C852      1.0  0.38743  0.93276  0.79528  1.0000
  C   C853      1.0  0.49179  0.98358  0.90469  1.0000
  H   H1501     1.0  0.28749  0.58692  0.94038  1.0000
  H   H1502     1.0  0.27714  0.69460  0.87590  1.0000
  H   H1503     1.0  0.49470  0.92177  0.55943  1.0000
  H   H1504     1.0  0.49555  0.76244  0.99045  1.0000
  H   H1505     1.0  0.46540  0.58265  0.90648  1.0000
  H   H1506     1.0  0.27792  0.71389  0.92112  1.0000
  H   H1507     1.0  0.30137  0.93197  0.86561  1.0000
  H   H1508     1.0  0.32681  0.96859  0.85849  1.0000
  N   N47       1.0  0.30193  0.71398  0.95297  1.0000
  H   H1509     1.0  0.32828  0.74083  0.90931  1.0000
  H   H1510     1.0  0.43836  0.63920  0.86559  1.0000
  H   H1511     1.0  0.46946  0.94671  0.86590  1.0000
  C   C854      1.0  0.49124  0.96961  0.75629  1.0000
  H   H1512     1.0  0.46679  0.83441  0.92015  1.0000
  C   C855      1.0  0.51195  0.55055  0.86156  1.0000
  C   C856      1.0  0.29390  0.58467  0.96035  1.0000
  H   H1513     1.0  0.46377  0.73109  0.90357  1.0000
  C   C857      1.0  0.31439  0.00751  0.58919  1.0000
  H   H1514     1.0  0.28570  0.60230  0.97009  1.0000
  H   H1515     1.0  0.46720  0.86441  0.97163  1.0000
  H   H1516     1.0  0.43267  0.77035  0.91003  1.0000
  H   H1517     1.0  0.51084  0.85538  0.98686  1.0000
  H   H1518     1.0  0.35260  0.00955  0.75581  1.0000
  H   H1519     1.0  0.48887  0.84324  0.95120  1.0000
  H   H1520     1.0  0.34605  0.68024  0.97580  1.0000
  H   H1521     1.0  0.30714  0.96085  0.74682  1.0000
  C   C858      1.0  0.47558  0.93353  0.55715  1.0000
  H   H1522     1.0  0.47869  0.00375  0.60710  1.0000
  C   C859      1.0  0.32138  0.00753  0.00055  1.0000
  H   H1523     1.0  0.50643  0.71629  0.00122  1.0000
  C   C860      1.0  0.47738  0.00269  0.82054  1.0000
  H   H1524     1.0  0.48972  0.66120  0.91176  1.0000
  C   C861      1.0  0.50240  0.82030  0.88076  1.0000
  H   H1525     1.0  0.50022  0.86207  0.87474  1.0000
  H   H1526     1.0  0.49431  0.96536  0.89495  1.0000
  H   H1527     1.0  0.27950  0.74518  0.93102  1.0000
  C   C862      1.0  0.51147  0.57841  0.95096  1.0000
  C   C863      1.0  0.49889  0.82616  0.65582  1.0000
  H   H1528     1.0  0.38797  0.01622  0.77619  1.0000
  H   H1529     1.0  0.47739  0.98751  0.83745  1.0000
  C   C864      1.0  0.51318  0.81382  0.76898  1.0000
  H   H1530     1.0  0.29153  0.55833  0.99581  1.0000
  H   H1531     1.0  0.27791  0.94742  0.84472  1.0000
  H   H1532     1.0  0.49489  0.96234  0.63658  1.0000
  C   C865      1.0  0.51055  0.96061  0.58555  1.0000
  C   C866      1.0  0.29279  0.53553  0.96208  1.0000
  H   H1533     1.0  0.48493  0.64033  0.96965  1.0000
  C   C867      1.0  0.34646  0.99629  0.98525  1.0000
  H   H1534     1.0  0.27255  0.90455  0.84914  1.0000
  C   C868      1.0  0.30803  0.53401  0.81105  1.0000
  C   C869      1.0  0.45149  0.00312  0.80906  1.0000
  H   H1535     1.0  0.50409  0.80877  0.64483  1.0000
  H   H1536     1.0  0.30475  0.00836  0.98871  1.0000
  H   H1537     1.0  0.51240  0.63370  0.94584  1.0000
  H   H1538     1.0  0.50561  0.68178  0.83973  1.0000
  H   H1539     1.0  0.49794  0.88698  0.92122  1.0000
  H   H1540     1.0  0.33866  0.77074  0.98390  1.0000
  C   C870      1.0  0.34321  0.75059  0.99342  1.0000
  H   H1541     1.0  0.49419  0.98372  0.54249  1.0000
  C   C871      1.0  0.45597  0.91466  0.55425  1.0000
  C   C872      1.0  0.36150  0.01712  0.73631  1.0000
  H   H1542     1.0  0.34366  0.75172  0.01466  1.0000
  H   H1543     1.0  0.38022  0.00494  0.73204  1.0000
  H   H1544     1.0  0.51398  0.73747  0.93935  1.0000
  C   C873      1.0  0.40694  0.01391  0.01476  1.0000
  H   H1545     1.0  0.26846  0.98800  0.86721  1.0000
  C   C874      1.0  0.51154  0.57752  0.86252  1.0000
  H   H1546     1.0  0.28400  0.86636  0.70740  1.0000
  C   C875      1.0  0.44067  0.54135  0.81375  1.0000
  N   N48       1.0  0.39057  0.01367  0.99245  1.0000
  H   H1547     1.0  0.26780  0.53729  0.80292  1.0000
  H   H1548     1.0  0.27324  0.96570  0.76004  1.0000
  H   H1549     1.0  0.27043  0.61918  0.78614  1.0000
  H   H1550     1.0  0.50848  0.53605  0.96040  1.0000
  H   H1551     1.0  0.46304  0.90330  0.53740  1.0000
  H   H1552     1.0  0.50241  0.80433  0.89707  1.0000
  C   C876      1.0  0.50761  0.86968  0.96950  1.0000
  H   H1553     1.0  0.46749  0.00526  0.87701  1.0000
  C   C877      1.0  0.48591  0.00734  0.88500  1.0000
  H   H1554     1.0  0.42335  0.01197  0.74977  1.0000
  H   H1555     1.0  0.51191  0.94392  0.60107  1.0000
  H   H1556     1.0  0.29533  0.00235  0.87687  1.0000
  H   H1557     1.0  0.44160  0.53925  0.79254  1.0000
  C   C878      1.0  0.35744  0.01810  0.82089  1.0000
  H   H1558     1.0  0.26612  0.77854  0.70439  1.0000
  H   H1559     1.0  0.28788  0.51926  0.85866  1.0000
  H   H1560     1.0  0.44027  0.00683  0.56691  1.0000
  C   C879      1.0  0.50886  0.01001  0.86307  1.0000
  H   H1561     1.0  0.26903  0.83457  0.63677  1.0000
  H   H1562     1.0  0.47862  0.52123  0.81853  1.0000
  H   H1563     1.0  0.45668  0.52301  0.84824  1.0000
  H   H1564     1.0  0.49945  0.00432  0.99746  1.0000
  C   C880      1.0  0.28379  0.52116  0.80639  1.0000
  C   C881      1.0  0.50827  0.00460  0.97686  1.0000
  H   H1565     1.0  0.26758  0.87036  0.66104  1.0000
  Fe  Fe97      1.0  0.61439  0.15879  0.10340  1.0000
  S   S191      1.0  0.59960  0.15578  0.14594  1.0000
  S   S192      1.0  0.61890  0.19930  0.08123  1.0000
  Fe  Fe98      1.0  0.61270  0.09843  0.10081  1.0000
  S   S193      1.0  0.59725  0.09271  0.14305  1.0000
  S   S194      1.0  0.61622  0.06611  0.07339  1.0000
  Fe  Fe99      1.0  0.57183  0.13033  0.13513  1.0000
  H   H1566     1.0  0.76428  0.32967  0.15034  1.0000
  Fe  Fe100     1.0  0.62698  0.11888  0.14903  1.0000
  S   S195      1.0  0.65099  0.10700  0.18263  1.0000
  S   S196      1.0  0.58500  0.13466  0.09229  1.0000
  S   S197      1.0  0.64419  0.12306  0.10701  1.0000
  Fe  Fe101     1.0  0.70999  0.17653  0.33050  1.0000
  S   S198      1.0  0.72149  0.15916  0.29268  1.0000
  S   S199      1.0  0.73990  0.19096  0.35310  1.0000
  Fe  Fe102     1.0  0.65208  0.16561  0.33168  1.0000
  S   S200      1.0  0.65999  0.14676  0.29455  1.0000
  S   S201      1.0  0.61186  0.17004  0.35487  1.0000
  Fe  Fe103     1.0  0.69687  0.12767  0.31026  1.0000
  S   S202      1.0  0.71427  0.08717  0.30252  1.0000
  Fe  Fe104     1.0  0.68381  0.17989  0.28030  1.0000
  S   S203      1.0  0.67977  0.19884  0.23948  1.0000
  S   S204      1.0  0.68732  0.14345  0.34912  1.0000
  S   S205      1.0  0.67379  0.20046  0.31660  1.0000
  Fe  Fe105     1.0  0.59282  0.40805  0.11687  1.0000
  S   S206      1.0  0.60360  0.41542  0.07383  1.0000
  S   S207      1.0  0.58663  0.44283  0.14122  1.0000
  Fe  Fe106     1.0  0.59585  0.34749  0.11455  1.0000
  S   S208      1.0  0.60705  0.35165  0.07143  1.0000
  S   S209      1.0  0.59149  0.30624  0.13477  1.0000
  Fe  Fe107     1.0  0.63317  0.38047  0.07932  1.0000
  S   S210      1.0  0.67412  0.37946  0.05958  1.0000
  Fe  Fe108     1.0  0.57627  0.38587  0.07084  1.0000
  H   H1567     1.0  0.71358  0.51529  0.03897  1.0000
  S   S211      1.0  0.62436  0.37437  0.12287  1.0000
  S   S212      1.0  0.56296  0.38052  0.11361  1.0000
  C   C882      1.0  0.58557  0.47662  0.12910  1.0000
  C   C883      1.0  0.58180  0.49541  0.14710  1.0000
  H   H1568     1.0  0.74516  0.22901  0.26195  1.0000
  H   H1569     1.0  0.71636  0.37206  0.10900  1.0000
  C   C884      1.0  0.58772  0.48526  0.10231  1.0000
  H   H1570     1.0  0.57982  0.48908  0.16784  1.0000
  H   H1571     1.0  0.59073  0.47112  0.08818  1.0000
  C   C885      1.0  0.68847  0.40677  0.06555  1.0000
  H   H1572     1.0  0.62518  0.08690  0.24832  1.0000
  C   C886      1.0  0.67499  0.42497  0.08163  1.0000
  H   H1573     1.0  0.74898  0.31774  0.43240  1.0000
  H   H1574     1.0  0.65556  0.42221  0.09078  1.0000
  H   H1575     1.0  0.62550  0.07774  0.34767  1.0000
  C   C887      1.0  0.75995  0.31611  0.29537  1.0000
  H   H1576     1.0  0.74616  0.30523  0.28729  1.0000
  H   H1577     1.0  0.64562  0.49949  0.19498  1.0000
  H   H1578     1.0  0.56257  0.23168  0.22891  1.0000
  H   H1579     1.0  0.76271  0.42348  0.37158  1.0000
  C   C888      1.0  0.61254  0.22889  0.09652  1.0000
  C   C889      1.0  0.60525  0.22892  0.12342  1.0000
  C   C890      1.0  0.59877  0.25268  0.13466  1.0000
  C   C891      1.0  0.60018  0.27686  0.11939  1.0000
  C   C892      1.0  0.60778  0.27689  0.09248  1.0000
  C   C893      1.0  0.61381  0.25307  0.08114  1.0000
  H   H1580     1.0  0.60446  0.21061  0.13562  1.0000
  H   H1581     1.0  0.59264  0.25231  0.15535  1.0000
  H   H1582     1.0  0.60903  0.29521  0.08039  1.0000
  H   H1583     1.0  0.61959  0.25334  0.06035  1.0000
  H   H1584     1.0  0.69101  0.50233  0.19539  1.0000
  C   C894      1.0  0.63193  0.08524  0.30510  1.0000
  C   C895      1.0  0.75015  0.42767  0.14170  1.0000
  C   C896      1.0  0.56979  0.15993  0.32865  1.0000
  C   C897      1.0  0.66165  0.13296  0.19589  1.0000
  C   C898      1.0  0.67513  0.12743  0.21806  1.0000
  C   C899      1.0  0.68215  0.14774  0.23039  1.0000
  C   C900      1.0  0.67536  0.17376  0.22091  1.0000
  C   C901      1.0  0.66312  0.17939  0.19787  1.0000
  C   C902      1.0  0.65615  0.15897  0.18540  1.0000
  H   H1585     1.0  0.67985  0.10743  0.22597  1.0000
  H   H1586     1.0  0.69275  0.14316  0.24738  1.0000
  H   H1587     1.0  0.65846  0.19947  0.19004  1.0000
  H   H1588     1.0  0.64645  0.16338  0.16782  1.0000
  C   C903      1.0  0.62781  0.05702  0.30035  1.0000
  H   H1589     1.0  0.56481  0.30684  0.05794  1.0000
  H   H1590     1.0  0.52389  0.30366  0.03883  1.0000
  H   H1591     1.0  0.71012  0.04611  0.21154  1.0000
  H   H1592     1.0  0.60866  0.02522  0.11933  1.0000
  H   H1593     1.0  0.62555  0.05228  0.21718  1.0000
  C   C904      1.0  0.70283  0.04885  0.23220  1.0000
  H   H1594     1.0  0.53873  0.16367  0.09898  1.0000
  H   H1595     1.0  0.56211  0.21551  0.09099  1.0000
  H   H1596     1.0  0.56735  0.45246  0.03617  1.0000
  H   H1597     1.0  0.72761  0.50344  0.14342  1.0000
  C   C905      1.0  0.57855  0.17164  0.34875  1.0000
  C   C906      1.0  0.72257  0.49694  0.16442  1.0000
  H   H1598     1.0  0.71989  0.03276  0.29818  1.0000
  H   H1599     1.0  0.58379  0.14867  0.31608  1.0000
  C   C907      1.0  0.67345  0.04529  0.36082  1.0000
  C   C908      1.0  0.69439  0.50823  0.17394  1.0000
  H   H1600     1.0  0.55502  0.21864  0.13376  1.0000
  H   H1601     1.0  0.62688  0.02973  0.03601  1.0000
  C   C909      1.0  0.76591  0.36499  0.08941  1.0000
  C   C910      1.0  0.71364  0.41044  0.05397  1.0000
  H   H1602     1.0  0.63977  0.04319  0.31362  1.0000
  H   H1603     1.0  0.65303  0.08697  0.30479  1.0000
  H   H1604     1.0  0.62344  0.11181  0.33528  1.0000
  H   H1605     1.0  0.58070  0.22687  0.33426  1.0000
  H   H1606     1.0  0.57193  0.08392  0.22886  1.0000
  H   H1607     1.0  0.60713  0.05450  0.30755  1.0000
  H   H1608     1.0  0.74060  0.41220  0.10799  1.0000
  H   H1609     1.0  0.51895  0.26854  0.14647  1.0000
  H   H1610     1.0  0.60388  0.38971  0.02783  1.0000
  H   H1611     1.0  0.63870  0.45891  0.18049  1.0000
  C   C911      1.0  0.52433  0.17612  0.34254  1.0000
  H   H1612     1.0  0.56632  0.19387  0.38147  1.0000
  H   H1613     1.0  0.67835  0.33818  0.13316  1.0000
  H   H1614     1.0  0.71808  0.36130  0.16091  1.0000
  C   C912      1.0  0.60829  0.05794  0.23088  1.0000
  H   H1615     1.0  0.74024  0.21974  0.29665  1.0000
  C   C913      1.0  0.56586  0.23064  0.24986  1.0000
  H   H1616     1.0  0.56980  0.22723  0.04378  1.0000
  H   H1617     1.0  0.74899  0.08739  0.34717  1.0000
  C   C914      1.0  0.53919  0.08176  0.07972  1.0000
  H   H1618     1.0  0.58939  0.14567  0.03558  1.0000
  H   H1619     1.0  0.57036  0.33558  0.03689  1.0000
  H   H1620     1.0  0.56996  0.20157  0.17733  1.0000
  H   H1621     1.0  0.72120  0.40276  0.13766  1.0000
  H   H1622     1.0  0.58861  0.28213  0.02875  1.0000
  H   H1623     1.0  0.53321  0.42457  0.14822  1.0000
  C   C915      1.0  0.63054  0.02189  0.27226  1.0000
  C   C916      1.0  0.61616  0.06854  0.25534  1.0000
  H   H1624     1.0  0.74576  0.13331  0.35114  1.0000
  C   C917      1.0  0.61866  0.09229  0.33172  1.0000
  H   H1625     1.0  0.68997  0.46460  0.14421  1.0000
  H   H1626     1.0  0.72496  0.25065  0.28277  1.0000
  H   H1627     1.0  0.54137  0.03240  0.16128  1.0000
  H   H1628     1.0  0.61590  0.22544  0.32859  1.0000
  H   H1629     1.0  0.69072  0.49477  0.03048  1.0000
  H   H1630     1.0  0.75088  0.32222  0.31451  1.0000
  C   C918      1.0  0.64709  0.50988  0.17483  1.0000
  C   C919      1.0  0.54267  0.16214  0.32553  1.0000
  C   C920      1.0  0.67598  0.47100  0.16088  1.0000
  H   H1631     1.0  0.70806  0.06792  0.23657  1.0000
  H   H1632     1.0  0.71263  0.03295  0.24512  1.0000
  C   C921      1.0  0.59722  0.23733  0.32461  1.0000
  H   H1633     1.0  0.56221  0.25127  0.25451  1.0000
  C   C922      1.0  0.54960  0.19732  0.18379  1.0000
  H   H1634     1.0  0.55217  0.06360  0.16399  1.0000
  H   H1635     1.0  0.67680  0.37168  0.14059  1.0000
  C   C923      1.0  0.70676  0.50678  0.02260  1.0000
  H   H1636     1.0  0.74882  0.45054  0.38950  1.0000
  H   H1637     1.0  0.53214  0.19603  0.13593  1.0000
  C   C924      1.0  0.72523  0.43240  0.05815  1.0000
  H   H1638     1.0  0.68027  0.08575  0.35145  1.0000
  H   H1639     1.0  0.63902  0.46486  0.14578  1.0000
  H   H1640     1.0  0.54608  0.26305  0.12313  1.0000
  H   H1641     1.0  0.59713  0.09311  0.33231  1.0000
  C   C925      1.0  0.74283  0.23648  0.28144  1.0000
  H   H1642     1.0  0.54730  0.17726  0.17955  1.0000
  H   H1643     1.0  0.59985  0.09626  0.20921  1.0000
  C   C926      1.0  0.74250  0.50583  0.18000  1.0000
  H   H1644     1.0  0.54678  0.48009  0.07073  1.0000
  H   H1645     1.0  0.54631  0.21164  0.28636  1.0000
  H   H1646     1.0  0.53338  0.23690  0.17510  1.0000
  C   C927      1.0  0.53324  0.32209  0.03526  1.0000
  C   C928      1.0  0.68473  0.06617  0.34572  1.0000
  H   H1647     1.0  0.68480  0.46199  0.17889  1.0000
  H   H1648     1.0  0.76279  0.10595  0.30456  1.0000
  C   C929      1.0  0.52165  0.31169  0.11164  1.0000
  H   H1649     1.0  0.67661  0.46034  0.09916  1.0000
  C   C930      1.0  0.66219  0.05414  0.26423  1.0000
  H   H1650     1.0  0.57272  0.48618  0.02754  1.0000
  H   H1651     1.0  0.64001  0.41814  0.16017  1.0000
  C   C931      1.0  0.76503  0.34418  0.07042  1.0000
  S   S213      1.0  0.52971  0.13697  0.15092  1.0000
  H   H1652     1.0  0.54377  0.19664  0.25698  1.0000
  H   H1653     1.0  0.58465  0.07034  0.19887  1.0000
  C   C932      1.0  0.54402  0.21540  0.26519  1.0000
  C   C933      1.0  0.70127  0.06162  0.32299  1.0000
  H   H1654     1.0  0.66041  0.04881  0.37827  1.0000
  N   N49       1.0  0.67277  0.50060  0.16011  1.0000
  C   C934      1.0  0.71213  0.45018  0.07487  1.0000
  H   H1655     1.0  0.72419  0.39633  0.04168  1.0000
  H   H1656     1.0  0.66578  0.07469  0.26532  1.0000
  H   H1657     1.0  0.75107  0.27602  0.39491  1.0000
  H   H1658     1.0  0.57041  0.10694  0.04383  1.0000
  H   H1659     1.0  0.53573  0.07626  0.03968  1.0000
  N   N50       1.0  0.63389  0.05041  0.27240  1.0000
  H   H1660     1.0  0.66071  0.33180  0.02760  1.0000
  H   H1661     1.0  0.54462  0.13093  0.05287  1.0000
  H   H1662     1.0  0.64630  0.49445  0.11588  1.0000
  H   H1663     1.0  0.66935  0.41837  0.17558  1.0000
  H   H1664     1.0  0.54590  0.19804  0.20525  1.0000
  H   H1665     1.0  0.67440  0.50991  0.07797  1.0000
  C   C935      1.0  0.51995  0.15647  0.10109  1.0000
  H   H1666     1.0  0.52400  0.33537  0.04991  1.0000
  C   C936      1.0  0.54847  0.23118  0.08192  1.0000
  H   H1667     1.0  0.67457  0.34552  0.16671  1.0000
  C   C937      1.0  0.76006  0.38000  0.13301  1.0000
  H   H1668     1.0  0.53596  0.15298  0.31024  1.0000
  H   H1669     1.0  0.69312  0.50369  0.12111  1.0000
  C   C938      1.0  0.70701  0.03628  0.31572  1.0000
  C   C939      1.0  0.54989  0.11454  0.04048  1.0000
  H   H1670     1.0  0.66952  0.02856  0.23197  1.0000
  C   C940      1.0  0.56002  0.18504  0.36569  1.0000
  H   H1671     1.0  0.73923  0.49825  0.20098  1.0000
  H   H1672     1.0  0.52453  0.44212  0.05637  1.0000
  H   H1673     1.0  0.74503  0.26895  0.31719  1.0000
  H   H1674     1.0  0.62403  0.10003  0.28995  1.0000
  C   C941      1.0  0.74137  0.40558  0.12897  1.0000
  N   N51       1.0  0.51695  0.23615  0.12416  1.0000
  C   C942      1.0  0.67825  0.02008  0.35283  1.0000
  H   H1675     1.0  0.59747  0.07487  0.26697  1.0000
  H   H1676     1.0  0.72449  0.33816  0.10799  1.0000
  H   H1677     1.0  0.74436  0.43549  0.04846  1.0000
  H   H1678     1.0  0.52352  0.04477  0.27426  1.0000
  H   H1679     1.0  0.63046  0.50476  0.16552  1.0000
  H   H1680     1.0  0.71990  0.32778  0.15453  1.0000
  H   H1681     1.0  0.73744  0.44595  0.13676  1.0000
  C   C943      1.0  0.65815  0.42772  0.15930  1.0000
  C   C944      1.0  0.58531  0.51232  0.09377  1.0000
  C   C945      1.0  0.65107  0.45695  0.16162  1.0000
  H   H1682     1.0  0.76039  0.36802  0.39725  1.0000
  H   H1683     1.0  0.61806  0.31332  0.02788  1.0000
  C   C946      1.0  0.65240  0.51399  0.11605  1.0000
  C   C947      1.0  0.68684  0.44665  0.08630  1.0000
  C   C948      1.0  0.71358  0.34826  0.14696  1.0000
  H   H1684     1.0  0.59754  0.04061  0.23641  1.0000
  H   H1685     1.0  0.53654  0.09761  0.09283  1.0000
  N   N52       1.0  0.59363  0.21963  0.25358  1.0000
  C   C949      1.0  0.59889  0.21695  0.28193  1.0000
  C   C950      1.0  0.60040  0.19361  0.24245  1.0000
  C   C951      1.0  0.61148  0.23851  0.23869  1.0000
  H   H1686     1.0  0.75876  0.37366  0.15438  1.0000
  C   C952      1.0  0.72729  0.35459  0.11902  1.0000
  C   C953      1.0  0.59526  0.24270  0.29523  1.0000
  C   C954      1.0  0.61160  0.24206  0.20844  1.0000
  C   C955      1.0  0.59498  0.16861  0.26091  1.0000
  C   C956      1.0  0.59805  0.14458  0.24584  1.0000
  C   C957      1.0  0.55762  0.47238  0.03081  1.0000
  H   H1687     1.0  0.67459  0.04187  0.27811  1.0000
  C   C958      1.0  0.63294  0.25876  0.19573  1.0000
  H   H1688     1.0  0.61936  0.20796  0.28379  1.0000
  H   H1689     1.0  0.58657  0.20322  0.29416  1.0000
  H   H1690     1.0  0.59044  0.19349  0.22457  1.0000
  H   H1691     1.0  0.62168  0.19052  0.23595  1.0000
  H   H1692     1.0  0.63194  0.23243  0.24325  1.0000
  H   H1693     1.0  0.60629  0.25846  0.24496  1.0000
  C   C959      1.0  0.53277  0.09261  0.05217  1.0000
  H   H1694     1.0  0.72490  0.47533  0.16714  1.0000
  H   H1695     1.0  0.54320  0.20740  0.05128  1.0000
  H   H1696     1.0  0.59633  0.25607  0.33326  1.0000
  H   H1697     1.0  0.61076  0.25523  0.28707  1.0000
  C   C960      1.0  0.56249  0.31658  0.03788  1.0000
  H   H1698     1.0  0.59265  0.25216  0.20286  1.0000
  H   H1699     1.0  0.61522  0.22314  0.19991  1.0000
  H   H1700     1.0  0.60916  0.16500  0.27572  1.0000
  H   H1701     1.0  0.57524  0.17018  0.27149  1.0000
  H   H1702     1.0  0.61839  0.14102  0.23653  1.0000
  H   H1703     1.0  0.59362  0.12720  0.25955  1.0000
  H   H1704     1.0  0.58441  0.14719  0.23050  1.0000
  H   H1705     1.0  0.66463  0.06316  0.22172  1.0000
  H   H1706     1.0  0.57593  0.25378  0.29261  1.0000
  C   C961      1.0  0.68402  0.35106  0.14677  1.0000
  H   H1707     1.0  0.72614  0.34680  0.42721  1.0000
  C   C962      1.0  0.52451  0.26300  0.12628  1.0000
  H   H1708     1.0  0.66987  0.42452  0.14035  1.0000
  H   H1709     1.0  0.62964  0.27850  0.20269  1.0000
  H   H1710     1.0  0.65247  0.24922  0.20035  1.0000
  H   H1711     1.0  0.63280  0.26111  0.17414  1.0000
  C   C963      1.0  0.67326  0.04813  0.23622  1.0000
  C   C964      1.0  0.73613  0.11585  0.39015  1.0000
  S   S214      1.0  0.72790  0.47576  0.08288  1.0000
  S   S215      1.0  0.54842  0.39265  0.04031  1.0000
  C   C965      1.0  0.53339  0.18752  0.36244  1.0000
  C   C966      1.0  0.59007  0.07844  0.21613  1.0000
  H   H1712     1.0  0.55958  0.07231  0.07926  1.0000
  H   H1713     1.0  0.51888  0.13072  0.21084  1.0000
  H   H1714     1.0  0.52740  0.04653  0.20499  1.0000
  H   H1715     1.0  0.51785  0.28249  0.08688  1.0000
  C   C967      1.0  0.53694  0.48054  0.05280  1.0000
  H   H1716     1.0  0.54308  0.31109  0.10638  1.0000
  H   H1717     1.0  0.75166  0.40927  0.41836  1.0000
  C   C968      1.0  0.54943  0.22680  0.05313  1.0000
  H   H1718     1.0  0.72780  0.13515  0.39656  1.0000
  C   C969      1.0  0.74370  0.33508  0.41849  1.0000
  C   C970      1.0  0.67571  0.51333  0.13228  1.0000
  H   H1719     1.0  0.76479  0.31592  0.12064  1.0000
  H   H1720     1.0  0.52888  0.50101  0.04710  1.0000
  H   H1721     1.0  0.71991  0.10560  0.38557  1.0000
  C   C971      1.0  0.53026  0.21740  0.17004  1.0000
  C   C972      1.0  0.51711  0.23056  0.26267  1.0000
  H   H1722     1.0  0.73884  0.32816  0.40033  1.0000
  C   C973      1.0  0.53475  0.05332  0.16343  1.0000
  H   H1723     1.0  0.55565  0.25030  0.08276  1.0000
  H   H1724     1.0  0.75592  0.37346  0.44569  1.0000
  C   C974      1.0  0.53419  0.21627  0.13997  1.0000
  H   H1725     1.0  0.52517  0.09321  0.19573  1.0000
  H   H1726     1.0  0.52597  0.06687  0.08797  1.0000
  H   H1727     1.0  0.75953  0.05034  0.33133  1.0000
  H   H1728     1.0  0.58612  0.51875  0.07307  1.0000
  H   H1729     1.0  0.76251  0.49818  0.17228  1.0000
  H   H1730     1.0  0.52236  0.47144  0.11057  1.0000
  H   H1731     1.0  0.75830  0.29172  0.34770  1.0000
  C   C975      1.0  0.61758  0.03110  0.07742  1.0000
  H   H1732     1.0  0.51959  0.19820  0.37577  1.0000
  H   H1733     1.0  0.74442  0.35267  0.27490  1.0000
  H   H1734     1.0  0.52135  0.45691  0.15728  1.0000
  C   C976      1.0  0.52058  0.22990  0.09614  1.0000
  H   H1735     1.0  0.75453  0.38296  0.08114  1.0000
  H   H1736     1.0  0.74454  0.34182  0.06790  1.0000
  H   H1737     1.0  0.52470  0.06187  0.14607  1.0000
  C   C977      1.0  0.75582  0.11994  0.36606  1.0000
  H   H1738     1.0  0.52935  0.44011  0.09965  1.0000
  H   H1739     1.0  0.53666  0.24240  0.04272  1.0000
  H   H1740     1.0  0.74577  0.10423  0.40647  1.0000
  H   H1741     1.0  0.58759  0.02943  0.28113  1.0000
  H   H1742     1.0  0.74892  0.42312  0.16329  1.0000
  N   N53       1.0  0.75583  0.35810  0.11761  1.0000
  C   C978      1.0  0.76488  0.25863  0.31270  1.0000
  H   H1743     1.0  0.76533  0.24045  0.32638  1.0000
  C   C979      1.0  0.76361  0.34092  0.27681  1.0000
  C   C980      1.0  0.51635  0.05572  0.18859  1.0000
  H   H1744     1.0  0.51696  0.31601  0.13230  1.0000
  Fe  Fe109     1.0  0.70041  0.15987  0.63889  1.0000
  S   S216      1.0  0.70154  0.11985  0.66093  1.0000
  S   S217      1.0  0.73556  0.18378  0.62994  1.0000
  Fe  Fe110     1.0  0.64146  0.16028  0.63105  1.0000
  S   S218      1.0  0.63913  0.12039  0.65198  1.0000
  S   S219      1.0  0.60653  0.18287  0.61268  1.0000
  Fe  Fe111     1.0  0.66221  0.13409  0.68069  1.0000
  S   S220      1.0  0.65171  0.12330  0.72373  1.0000
  Fe  Fe112     1.0  0.67833  0.11016  0.63015  1.0000
  S   S221      1.0  0.68769  0.07395  0.60923  1.0000
  S   S222      1.0  0.66239  0.17512  0.66120  1.0000
  S   S223      1.0  0.67932  0.14924  0.60664  1.0000
  Fe  Fe113     1.0  0.57659  0.20723  0.87105  1.0000
  S   S224      1.0  0.54002  0.21472  0.85126  1.0000
  S   S225      1.0  0.59528  0.24257  0.88076  1.0000
  Fe  Fe114     1.0  0.57842  0.14623  0.86933  1.0000
  S   S226      1.0  0.54191  0.15117  0.84938  1.0000
  S   S227      1.0  0.60090  0.10517  0.87360  1.0000
  Fe  Fe115     1.0  0.55876  0.18482  0.82489  1.0000
  S   S228      1.0  0.55820  0.19233  0.78112  1.0000
  C   C981      1.0  0.57571  0.03484  0.80738  1.0000
  S   S229      1.0  0.59641  0.17881  0.84293  1.0000
  S   S230      1.0  0.56307  0.17384  0.89986  1.0000
  Fe  Fe116     1.0  0.55997  0.46199  0.86892  1.0000
  S   S231      1.0  0.60180  0.46367  0.87334  1.0000
  S   S232      1.0  0.53123  0.49914  0.86696  1.0000
  Fe  Fe117     1.0  0.56797  0.40099  0.86835  1.0000
  S   S233      1.0  0.61052  0.39925  0.87261  1.0000
  S   S234      1.0  0.54811  0.36388  0.86739  1.0000
  Fe  Fe118     1.0  0.59808  0.42821  0.90182  1.0000
  S   S235      1.0  0.61912  0.42565  0.93746  1.0000
  Fe  Fe119     1.0  0.61035  0.43503  0.84348  1.0000
  S   S236      1.0  0.64275  0.44359  0.81168  1.0000
  S   S237      1.0  0.55519  0.42792  0.89985  1.0000
  S   S238      1.0  0.56833  0.43525  0.83670  1.0000
  H   H1745     1.0  0.62183  0.02721  0.58836  1.0000
  C   C982      1.0  0.52920  0.16527  0.70528  1.0000
  C   C983      1.0  0.58984  0.14627  0.01404  1.0000
  H   H1746     1.0  0.74211  0.21038  0.68458  1.0000
  C   C984      1.0  0.56753  0.40241  0.01159  1.0000
  C   C985      1.0  0.59890  0.41791  0.96604  1.0000
  C   C986      1.0  0.61034  0.40646  0.98823  1.0000
  H   H1747     1.0  0.56278  0.43227  0.95016  1.0000
  H   H1748     1.0  0.63130  0.40326  0.98777  1.0000
  C   C987      1.0  0.67344  0.43501  0.82315  1.0000
  C   C988      1.0  0.69593  0.44326  0.80840  1.0000
  C   C989      1.0  0.72049  0.43624  0.81768  1.0000
  C   C990      1.0  0.72244  0.42049  0.84142  1.0000
  C   C991      1.0  0.69998  0.41250  0.85610  1.0000
  C   C992      1.0  0.67556  0.42012  0.84723  1.0000
  H   H1749     1.0  0.69431  0.45523  0.78997  1.0000
  C   C993      1.0  0.51949  0.13121  0.00821  1.0000
  H   H1750     1.0  0.70151  0.40022  0.87433  1.0000
  H   H1751     1.0  0.65848  0.41408  0.85897  1.0000
  C   C994      1.0  0.58181  0.27624  0.87695  1.0000
  C   C995      1.0  0.59691  0.29587  0.88128  1.0000
  C   C996      1.0  0.58708  0.32267  0.87836  1.0000
  C   C997      1.0  0.56181  0.33032  0.87123  1.0000
  C   C998      1.0  0.54661  0.31067  0.86729  1.0000
  C   C999      1.0  0.55651  0.28391  0.87000  1.0000
  H   H1752     1.0  0.61648  0.29032  0.88665  1.0000
  H   H1753     1.0  0.59907  0.33740  0.88155  1.0000
  H   H1754     1.0  0.52702  0.31619  0.86191  1.0000
  H   H1755     1.0  0.54449  0.26924  0.86677  1.0000
  C   C1000     1.0  0.62418  0.14136  0.73861  1.0000
  C   C1001     1.0  0.61526  0.13401  0.76475  1.0000
  C   C1002     1.0  0.59471  0.14934  0.77780  1.0000
  C   C1003     1.0  0.58294  0.17207  0.76469  1.0000
  C   C1004     1.0  0.59154  0.17914  0.73842  1.0000
  C   C1005     1.0  0.61201  0.16377  0.72530  1.0000
  H   H1756     1.0  0.62458  0.11666  0.77513  1.0000
  H   H1757     1.0  0.58818  0.14366  0.79808  1.0000
  H   H1758     1.0  0.58314  0.19711  0.72858  1.0000
  H   H1759     1.0  0.61883  0.16964  0.70517  1.0000
  H   H1760     1.0  0.56852  0.08745  0.66980  1.0000
  C   C1006     1.0  0.76243  0.48425  0.72797  1.0000
  C   C1007     1.0  0.65930  0.04993  0.65115  1.0000
  C   C1008     1.0  0.67182  0.04802  0.62593  1.0000
  H   H1761     1.0  0.66040  0.45378  0.98798  1.0000
  H   H1762     1.0  0.58340  0.37274  0.92146  1.0000
  H   H1763     1.0  0.59331  0.18813  0.00822  1.0000
  H   H1764     1.0  0.66040  0.06691  0.66106  1.0000
  H   H1765     1.0  0.69156  0.23341  0.75925  1.0000
  H   H1766     1.0  0.69253  0.47161  0.86827  1.0000
  C   C1009     1.0  0.60563  0.05151  0.87292  1.0000
  C   C1010     1.0  0.58904  0.07376  0.87994  1.0000
  C   C1011     1.0  0.56446  0.07013  0.89335  1.0000
  H   H1767     1.0  0.62471  0.05394  0.86266  1.0000
  H   H1768     1.0  0.55148  0.08697  0.89897  1.0000
  H   H1769     1.0  0.60139  0.12809  0.00802  1.0000
  C   C1012     1.0  0.57460  0.17485  0.61028  1.0000
  C   C1013     1.0  0.74497  0.45567  0.90723  1.0000
  C   C1014     1.0  0.68941  0.41085  0.96636  1.0000
  H   H1770     1.0  0.62126  0.26498  0.93378  1.0000
  H   H1771     1.0  0.70541  0.18582  0.79876  1.0000
  H   H1772     1.0  0.60619  0.17063  0.98026  1.0000
  H   H1773     1.0  0.56895  0.34717  0.99188  1.0000
  H   H1774     1.0  0.61888  0.24063  0.96191  1.0000
  H   H1775     1.0  0.55696  0.25011  0.67947  1.0000
  N   N54       1.0  0.52233  0.21167  0.67916  1.0000
  H   H1776     1.0  0.73972  0.44343  0.75270  1.0000
  C   C1015     1.0  0.57389  0.02236  0.89366  1.0000
  H   H1777     1.0  0.56033  0.19994  0.69324  1.0000
  C   C1016     1.0  0.57252  0.11154  0.96728  1.0000
  H   H1778     1.0  0.68671  0.50011  0.88548  1.0000
  H   H1779     1.0  0.68039  0.02422  0.59398  1.0000
  H   H1780     1.0  0.57119  0.05121  0.79215  1.0000
  H   H1781     1.0  0.56231  0.28886  0.00956  1.0000
  H   H1782     1.0  0.57641  0.09063  0.00510  1.0000
  C   C1017     1.0  0.69707  0.51077  0.82809  1.0000
  C   C1018     1.0  0.61452  0.32395  0.00836  1.0000
  H   H1783     1.0  0.60485  0.35942  0.96104  1.0000
  C   C1019     1.0  0.66255  0.46990  0.90050  1.0000
  C   C1020     1.0  0.53612  0.18360  0.58658  1.0000
  H   H1784     1.0  0.74817  0.23069  0.70876  1.0000
  C   C1021     1.0  0.55720  0.04462  0.90062  1.0000
  C   C1022     1.0  0.52067  0.22548  0.72608  1.0000
  H   H1785     1.0  0.74130  0.40365  0.97419  1.0000
  H   H1786     1.0  0.56107  0.24189  0.64616  1.0000
  H   H1787     1.0  0.60302  0.21435  0.65553  1.0000
  C   C1023     1.0  0.74919  0.22913  0.68744  1.0000
  H   H1788     1.0  0.58906  0.10877  0.62878  1.0000
  H   H1789     1.0  0.57709  0.26513  0.97877  1.0000
  H   H1790     1.0  0.61551  0.11921  0.53840  1.0000
  C   C1024     1.0  0.62019  0.03768  0.56855  1.0000
  C   C1025     1.0  0.67051  0.35769  0.91342  1.0000
  C   C1026     1.0  0.71427  0.39916  0.76266  1.0000
  C   C1027     1.0  0.58333  0.08897  0.62870  1.0000
  H   H1791     1.0  0.73858  0.37373  0.73643  1.0000
  H   H1792     1.0  0.59448  0.03739  0.81459  1.0000
  C   C1028     1.0  0.59414  0.23009  0.66764  1.0000
  C   C1029     1.0  0.69187  0.38224  0.76472  1.0000
  H   H1793     1.0  0.59461  0.24524  0.93914  1.0000
  C   C1030     1.0  0.53498  0.15392  0.62622  1.0000
  C   C1031     1.0  0.76350  0.40911  0.68478  1.0000
  H   H1794     1.0  0.76226  0.44256  0.90015  1.0000
  C   C1032     1.0  0.52774  0.03053  0.82109  1.0000
  H   H1795     1.0  0.72192  0.40205  0.72101  1.0000
  H   H1796     1.0  0.54868  0.47249  0.01232  1.0000
  C   C1033     1.0  0.60407  0.16963  0.00196  1.0000
  H   H1797     1.0  0.56435  0.07738  0.94994  1.0000
  H   H1798     1.0  0.65992  0.38112  0.94507  1.0000
  H   H1799     1.0  0.70559  0.41279  0.00302  1.0000
  H   H1800     1.0  0.64896  0.36156  0.00880  1.0000
  H   H1801     1.0  0.70549  0.41980  0.76184  1.0000
  H   H1802     1.0  0.73095  0.24906  0.77129  1.0000
  H   H1803     1.0  0.57171  0.20108  0.57506  1.0000
  H   H1804     1.0  0.64816  0.11312  0.54753  1.0000
  C   C1034     1.0  0.56116  0.15777  0.62880  1.0000
  C   C1035     1.0  0.58293  0.07593  0.65682  1.0000
  C   C1036     1.0  0.55182  0.20905  0.67537  1.0000
  H   H1805     1.0  0.51808  0.13151  0.90780  1.0000
  H   H1806     1.0  0.52410  0.04489  0.80380  1.0000
  H   H1807     1.0  0.72328  0.49375  0.01386  1.0000
  H   H1808     1.0  0.57066  0.14815  0.64540  1.0000
  N   N55       1.0  0.60676  0.08476  0.58181  1.0000
  H   H1809     1.0  0.67818  0.38625  0.78236  1.0000
  H   H1810     1.0  0.68088  0.38685  0.74729  1.0000
  H   H1811     1.0  0.69937  0.36117  0.76661  1.0000
  H   H1812     1.0  0.52325  0.20990  0.63745  1.0000
  C   C1037     1.0  0.62939  0.15183  0.55236  1.0000
  C   C1038     1.0  0.67093  0.02557  0.61359  1.0000
  C   C1039     1.0  0.57719  0.29845  0.01754  1.0000
  H   H1813     1.0  0.67681  0.45129  0.01721  1.0000
  H   H1814     1.0  0.62355  0.29767  0.96467  1.0000
  C   C1040     1.0  0.73446  0.38806  0.96462  1.0000
  H   H1815     1.0  0.52697  0.26507  0.73189  1.0000
  H   H1816     1.0  0.52473  0.14066  0.64034  1.0000
  H   H1817     1.0  0.51884  0.08396  0.82173  1.0000
  H   H1818     1.0  0.62151  0.06915  0.61831  1.0000
  C   C1041     1.0  0.55418  0.03471  0.83017  1.0000
  C   C1042     1.0  0.60252  0.07299  0.60989  1.0000
  H   H1819     1.0  0.52654  0.09876  0.57392  1.0000
  H   H1820     1.0  0.72934  0.02567  0.62906  1.0000
  C   C1043     1.0  0.61825  0.11028  0.58102  1.0000
  H   H1821     1.0  0.67805  0.34212  0.99664  1.0000
  H   H1822     1.0  0.53848  0.04219  0.91161  1.0000
  H   H1823     1.0  0.72400  0.39429  0.78084  1.0000
  H   H1824     1.0  0.55318  0.05345  0.83878  1.0000
  H   H1825     1.0  0.52622  0.13229  0.56007  1.0000
  H   H1826     1.0  0.61981  0.27488  0.99269  1.0000
  C   C1044     1.0  0.53771  0.11272  0.56046  1.0000
  C   C1045     1.0  0.65836  0.34127  0.00747  1.0000
  H   H1827     1.0  0.60474  0.33179  0.94280  1.0000
  H   H1828     1.0  0.75817  0.03230  0.66064  1.0000
  H   H1829     1.0  0.59887  0.22458  0.68807  1.0000
  H   H1830     1.0  0.76278  0.41028  0.77623  1.0000
  H   H1831     1.0  0.56072  0.12027  0.58987  1.0000
  S   S239      1.0  0.75242  0.40985  0.85342  1.0000
  H   H1832     1.0  0.65274  0.30589  0.99244  1.0000
  H   H1833     1.0  0.55936  0.37530  0.94936  1.0000
  C   C1046     1.0  0.59470  0.39875  0.01095  1.0000
  C   C1047     1.0  0.59247  0.34558  0.95515  1.0000
  C   C1048     1.0  0.74977  0.43790  0.73358  1.0000
  C   C1049     1.0  0.64208  0.32576  0.99340  1.0000
  H   H1834     1.0  0.60299  0.24827  0.65991  1.0000
  H   H1835     1.0  0.60075  0.25226  0.78022  1.0000
  H   H1836     1.0  0.72783  0.37367  0.98109  1.0000
  H   H1837     1.0  0.67813  0.39536  0.97739  1.0000
  C   C1050     1.0  0.62816  0.12243  0.55328  1.0000
  H   H1838     1.0  0.64104  0.33533  0.97321  1.0000
  H   H1839     1.0  0.58986  0.09489  0.93199  1.0000
  C   C1051     1.0  0.52682  0.47202  0.78058  1.0000
  H   H1840     1.0  0.56127  0.34823  0.92981  1.0000
  H   H1841     1.0  0.60241  0.07515  0.66393  1.0000
  H   H1842     1.0  0.55917  0.19528  0.66058  1.0000
  H   H1843     1.0  0.57989  0.03294  0.98007  1.0000
  H   H1844     1.0  0.69717  0.19831  0.72716  1.0000
  H   H1845     1.0  0.54192  0.22000  0.72551  1.0000
  H   H1846     1.0  0.60655  0.34419  0.01232  1.0000
  N   N56       1.0  0.75776  0.40879  0.73533  1.0000
  C   C1052     1.0  0.64511  0.02986  0.66364  1.0000
  C   C1053     1.0  0.56174  0.18773  0.58938  1.0000
  H   H1847     1.0  0.68467  0.13113  0.79925  1.0000
  H   H1848     1.0  0.62457  0.25274  0.75185  1.0000
  C   C1054     1.0  0.57831  0.33145  0.97980  1.0000
  H   H1849     1.0  0.56319  0.09023  0.62316  1.0000
  C   C1055     1.0  0.70286  0.37544  0.93837  1.0000
  H   H1850     1.0  0.70637  0.24716  0.79891  1.0000
  H   H1851     1.0  0.54783  0.15826  0.69402  1.0000
  C   C1056     1.0  0.73927  0.02484  0.66821  1.0000
  H   H1852     1.0  0.64540  0.48209  0.90932  1.0000
  N   N57       1.0  0.71193  0.39847  0.94894  1.0000
  H   H1853     1.0  0.65856  0.42544  0.01201  1.0000
  C   C1057     1.0  0.61212  0.51583  0.79133  1.0000
  C   C1058     1.0  0.72025  0.04816  0.67610  1.0000
  C   C1059     1.0  0.60761  0.25545  0.94908  1.0000
  H   H1854     1.0  0.69100  0.15166  0.82300  1.0000
  H   H1855     1.0  0.59634  0.07460  0.96158  1.0000
  H   H1856     1.0  0.70924  0.44140  0.98065  1.0000
  C   C1060     1.0  0.60870  0.28999  0.97984  1.0000
  C   C1061     1.0  0.57170  0.42234  0.96682  1.0000
  H   H1857     1.0  0.70146  0.04156  0.68543  1.0000
  Fe  Fe120     1.0  0.52761  0.18027  0.87808  1.0000
  H   H1858     1.0  0.76591  0.13365  0.64631  1.0000
  H   H1859     1.0  0.75681  0.43030  0.68197  1.0000
  C   C1062     1.0  0.69601  0.42646  0.98807  1.0000
  N   N58       1.0  0.59497  0.31126  0.99581  1.0000
  C   C1063     1.0  0.57284  0.36140  0.93801  1.0000
  H   H1860     1.0  0.53400  0.17382  0.72247  1.0000
  H   H1861     1.0  0.64423  0.23350  0.79233  1.0000
  H   H1862     1.0  0.67278  0.39850  0.91526  1.0000
  H   H1863     1.0  0.73782  0.44266  0.80640  1.0000
  H   H1864     1.0  0.53320  0.49018  0.78601  1.0000
  H   H1865     1.0  0.56169  0.32266  0.97385  1.0000
  H   H1866     1.0  0.75179  0.47396  0.91177  1.0000
  C   C1064     1.0  0.56158  0.14887  0.00626  1.0000
  H   H1867     1.0  0.67564  0.46329  0.91593  1.0000
  H   H1868     1.0  0.70360  0.42397  0.91400  1.0000
  C   C1065     1.0  0.55594  0.41430  0.98954  1.0000
  H   H1869     1.0  0.63515  0.10761  0.59291  1.0000
  H   H1870     1.0  0.53942  0.02621  0.98254  1.0000
  C   C1066     1.0  0.58177  0.08768  0.56884  1.0000
  H   H1871     1.0  0.75450  0.35911  0.93854  1.0000
  H   H1872     1.0  0.51662  0.05823  0.86651  1.0000
  C   C1067     1.0  0.62687  0.06621  0.56765  1.0000
  H   H1873     1.0  0.71444  0.45640  0.93885  1.0000
  H   H1874     1.0  0.54014  0.10664  0.54036  1.0000
  H   H1875     1.0  0.74490  0.43809  0.94657  1.0000
  H   H1876     1.0  0.60954  0.16216  0.55652  1.0000
  C   C1068     1.0  0.72015  0.41727  0.92576  1.0000
  C   C1069     1.0  0.59800  0.02608  0.87935  1.0000
  H   H1877     1.0  0.74672  0.39809  0.68367  1.0000
  C   C1070     1.0  0.65820  0.49777  0.85713  1.0000
  H   H1878     1.0  0.65273  0.48067  0.84866  1.0000
  H   H1879     1.0  0.62082  0.20991  0.79802  1.0000
  C   C1071     1.0  0.56034  0.10290  0.99542  1.0000
  H   H1880     1.0  0.73193  0.46049  0.89143  1.0000
  H   H1881     1.0  0.58600  0.08499  0.54764  1.0000
  H   H1882     1.0  0.70240  0.35838  0.95363  1.0000
  H   H1883     1.0  0.67134  0.11224  0.84376  1.0000
  C   C1072     1.0  0.73346  0.39506  0.73776  1.0000
  H   H1884     1.0  0.65591  0.45241  0.89391  1.0000
  H   H1885     1.0  0.52325  0.16040  0.97332  1.0000
  H   H1886     1.0  0.53492  0.41761  0.99012  1.0000
  H   H1887     1.0  0.59009  0.12154  0.96792  1.0000
  C   C1073     1.0  0.56459  0.23463  0.66663  1.0000
  H   H1888     1.0  0.67962  0.21011  0.80611  1.0000
  H   H1889     1.0  0.58031  0.28975  0.95121  1.0000
  H   H1890     1.0  0.52972  0.33181  0.01553  1.0000
  H   H1891     1.0  0.52676  0.19362  0.57002  1.0000
  H   H1892     1.0  0.63504  0.03162  0.68300  1.0000
  C   C1074     1.0  0.67703  0.48541  0.87753  1.0000
  H   H1893     1.0  0.64609  0.06533  0.57552  1.0000
  H   H1894     1.0  0.71691  0.36874  0.92188  1.0000
  H   H1895     1.0  0.60422  0.12516  0.59045  1.0000
  C   C1075     1.0  0.71141  0.16104  0.71404  1.0000
  H   H1896     1.0  0.66034  0.49684  0.80390  1.0000
  C   C1076     1.0  0.59119  0.27576  0.96507  1.0000
  H   H1897     1.0  0.67228  0.17970  0.72070  1.0000
  H   H1898     1.0  0.60152  0.22859  0.75729  1.0000
  H   H1899     1.0  0.60010  0.03721  0.56347  1.0000
  C   C1077     1.0  0.58120  0.08804  0.95189  1.0000
  H   H1900     1.0  0.67245  0.33878  0.92597  1.0000
  H   H1901     1.0  0.64957  0.18019  0.81620  1.0000
  C   C1078     1.0  0.67136  0.44009  0.00204  1.0000
  H   H1902     1.0  0.63032  0.07355  0.54659  1.0000
  H   H1903     1.0  0.71951  0.20879  0.75703  1.0000
  H   H1904     1.0  0.73494  0.40708  0.91193  1.0000
  H   H1905     1.0  0.59478  0.05378  0.61114  1.0000
  H   H1906     1.0  0.67552  0.42369  0.95429  1.0000
  H   H1907     1.0  0.62557  0.03597  0.98588  1.0000
  H   H1908     1.0  0.63765  0.15956  0.53261  1.0000
  C   C1079     1.0  0.67537  0.38007  0.92835  1.0000
  H   H1909     1.0  0.68448  0.35652  0.89550  1.0000
  H   H1910     1.0  0.55888  0.12519  0.95600  1.0000
  H   H1911     1.0  0.57739  0.05575  0.65812  1.0000
  H   H1912     1.0  0.64320  0.12120  0.82606  1.0000
  H   H1913     1.0  0.70582  0.14086  0.71559  1.0000
  H   H1914     1.0  0.64991  0.14133  0.85022  1.0000
  H   H1915     1.0  0.71305  0.16891  0.69307  1.0000
  H   H1916     1.0  0.52867  0.47290  0.75891  1.0000
  H   H1917     1.0  0.73615  0.24535  0.67823  1.0000
  N   N59       1.0  0.67182  0.18493  0.77805  1.0000
  C   C1080     1.0  0.65088  0.20297  0.76506  1.0000
  C   C1081     1.0  0.68667  0.16711  0.75884  1.0000
  C   C1082     1.0  0.65830  0.16819  0.80024  1.0000
  C   C1083     1.0  0.69013  0.19969  0.78967  1.0000
  C   C1084     1.0  0.70497  0.21943  0.77060  1.0000
  C   C1085     1.0  0.63281  0.22134  0.78276  1.0000
  C   C1086     1.0  0.67543  0.14479  0.81350  1.0000
  C   C1087     1.0  0.69089  0.17849  0.72966  1.0000
  H   H1918     1.0  0.56962  0.07181  0.57721  1.0000
  C   C1088     1.0  0.72001  0.23544  0.78541  1.0000
  C   C1089     1.0  0.61383  0.23984  0.76693  1.0000
  C   C1090     1.0  0.65892  0.12902  0.83464  1.0000
  H   H1919     1.0  0.63811  0.19112  0.75662  1.0000
  H   H1920     1.0  0.65923  0.21558  0.74817  1.0000
  H   H1921     1.0  0.70601  0.15917  0.76544  1.0000
  H   H1922     1.0  0.67617  0.14967  0.75840  1.0000
  H   H1923     1.0  0.64176  0.16012  0.79336  1.0000
  H   H1924     1.0  0.64193  0.15603  0.56693  1.0000
  H   H1925     1.0  0.51915  0.24438  0.76156  1.0000
  H   H1926     1.0  0.63986  0.50633  0.86786  1.0000
  H   H1927     1.0  0.65040  0.36121  0.90744  1.0000
  H   H1928     1.0  0.57347  0.12994  0.55718  1.0000
  H   H1929     1.0  0.73079  0.16039  0.72129  1.0000
  H   H1930     1.0  0.74429  0.50024  0.79813  1.0000
  N   N60       1.0  0.66824  0.51757  0.83555  1.0000
  H   H1931     1.0  0.75433  0.48751  0.74832  1.0000
  C   C1091     1.0  0.73083  0.44227  0.93177  1.0000
  H   H1932     1.0  0.70847  0.51085  0.84489  1.0000
  H   H1933     1.0  0.73507  0.44385  0.71938  1.0000
  H   H1934     1.0  0.72859  0.05836  0.69033  1.0000
  H   H1935     1.0  0.56216  0.15647  0.98528  1.0000
  H   H1936     1.0  0.54584  0.08914  0.99390  1.0000
  C   C1092     1.0  0.56422  0.11417  0.56994  1.0000
  N   N61       1.0  0.54806  0.12433  0.01192  1.0000
  H   H1937     1.0  0.71656  0.06222  0.65868  1.0000
  H   H1938     1.0  0.53990  0.45491  0.78814  1.0000
  H   H1939     1.0  0.70073  0.49036  0.82287  1.0000
  H   H1940     1.0  0.62386  0.16752  0.00865  1.0000
  C   C1093     1.0  0.52234  0.16704  0.60502  1.0000
  H   H1941     1.0  0.75994  0.36205  0.77216  1.0000
  H   H1942     1.0  0.52731  0.12727  0.72759  1.0000
  H   H1943     1.0  0.61626  0.50546  0.83189  1.0000
  H   H1944     1.0  0.55022  0.16485  0.01684  1.0000
  H   H1945     1.0  0.73420  0.22242  0.79686  1.0000
  H   H1946     1.0  0.76484  0.51077  0.95183  1.0000
  C   C1094     1.0  0.65428  0.51604  0.81181  1.0000
  H   H1947     1.0  0.74720  0.49085  0.71452  1.0000
  C   C1095     1.0  0.75912  0.37505  0.94915  1.0000
  H   H1948     1.0  0.61813  0.49573  0.78577  1.0000
  H   H1949     1.0  0.63718  0.03080  0.52900  1.0000
  H   H1950     1.0  0.76176  0.13330  0.55521  1.0000
  H   H1951     1.0  0.51787  0.24214  0.64690  1.0000
  H   H1952     1.0  0.69216  0.51911  0.98555  1.0000
  H   H1953     1.0  0.65952  0.02225  0.55379  1.0000
  C   C1096     1.0  0.63906  0.02225  0.54949  1.0000
  H   H1954     1.0  0.51693  0.12834  0.96667  1.0000
  H   H1955     1.0  0.59048  0.51855  0.79497  1.0000
  Fe  Fe121     1.0  0.66490  0.95811  0.35042  1.0000
  S   S240      1.0  0.66472  0.91895  0.37400  1.0000
  S   S241      1.0  0.66283  0.99441  0.37094  1.0000
  Fe  Fe122     1.0  0.66759  0.93473  0.29932  1.0000
  S   S242      1.0  0.66837  0.89371  0.31911  1.0000
  S   S243      1.0  0.66850  0.94747  0.25608  1.0000
  Fe  Fe123     1.0  0.63610  0.91112  0.34705  1.0000
  S   S244      1.0  0.60071  0.88988  0.36257  1.0000
  Fe  Fe124     1.0  0.69690  0.90575  0.34375  1.0000
  S   S245      1.0  0.73435  0.88062  0.35400  1.0000
  S   S246      1.0  0.63397  0.95141  0.32595  1.0000
  S   S247      1.0  0.69844  0.94527  0.32177  1.0000
  Fe  Fe125     1.0  0.61691  0.90418  0.10687  1.0000
  S   S248      1.0  0.60573  0.90590  0.14987  1.0000
  S   S249      1.0  0.62273  0.94077  0.07810  1.0000
  Fe  Fe126     1.0  0.61336  0.84340  0.11119  1.0000
  S   S250      1.0  0.60162  0.84204  0.15413  1.0000
  S   S251      1.0  0.61597  0.80591  0.09066  1.0000
  Fe  Fe127     1.0  0.57621  0.87931  0.14514  1.0000
  S   S252      1.0  0.53529  0.88517  0.16468  1.0000
  Fe  Fe128     1.0  0.63251  0.86859  0.15455  1.0000
  S   S253      1.0  0.65803  0.85730  0.18704  1.0000
  S   S254      1.0  0.58553  0.87924  0.10166  1.0000
  S   S255      1.0  0.64629  0.86814  0.11178  1.0000
  Fe  Fe129     1.0  0.60337  0.65338  0.12634  1.0000
  S   S256      1.0  0.64528  0.65061  0.10998  1.0000
  S   S257      1.0  0.58873  0.69247  0.14264  1.0000
  Fe  Fe130     1.0  0.59627  0.59821  0.11027  1.0000
  S   S258      1.0  0.63741  0.59375  0.09192  1.0000
  S   S259      1.0  0.57462  0.56492  0.10086  1.0000
  Fe  Fe131     1.0  0.64738  0.60891  0.12774  1.0000
  S   S260      1.0  0.68184  0.58581  0.14517  1.0000
  Fe  Fe132     1.0  0.63093  0.63575  0.07618  1.0000
  H   H1956     1.0  0.53511  0.97196  0.06970  1.0000
  S   S261      1.0  0.60638  0.61201  0.14739  1.0000
  S   S262      1.0  0.58863  0.63980  0.09157  1.0000
  C   C1097     1.0  0.70139  0.60518  0.15812  1.0000
  C   C1098     1.0  0.69210  0.63080  0.16292  1.0000
  H   H1957     1.0  0.67233  0.63853  0.15959  1.0000
  C   C1099     1.0  0.67409  0.80142  0.13442  1.0000
  C   C1100     1.0  0.73904  0.87597  0.28692  1.0000
  H   H1958     1.0  0.66770  0.54317  0.08611  1.0000
  H   H1959     1.0  0.52182  0.92789  0.07765  1.0000
  C   C1101     1.0  0.51909  0.88845  0.33576  1.0000
  H   H1960     1.0  0.59516  0.67673  0.05012  1.0000
  H   H1961     1.0  0.67882  0.70400  0.19102  1.0000
  H   H1962     1.0  0.69950  0.62710  0.05994  1.0000
  C   C1102     1.0  0.73708  0.97303  0.38864  1.0000
  C   C1103     1.0  0.61010  0.77422  0.10628  1.0000
  C   C1104     1.0  0.61703  0.75228  0.09223  1.0000
  C   C1105     1.0  0.61118  0.72709  0.10320  1.0000
  C   C1106     1.0  0.59796  0.72354  0.12836  1.0000
  C   C1107     1.0  0.59130  0.74546  0.14249  1.0000
  C   C1108     1.0  0.59764  0.77051  0.13172  1.0000
  H   H1963     1.0  0.62686  0.75481  0.07266  1.0000
  H   H1964     1.0  0.61637  0.71053  0.09197  1.0000
  H   H1965     1.0  0.58113  0.74303  0.16196  1.0000
  H   H1966     1.0  0.59241  0.78702  0.14297  1.0000
  H   H1967     1.0  0.54525  0.88583  0.22282  1.0000
  H   H1968     1.0  0.59432  0.99342  0.25308  1.0000
  H   H1969     1.0  0.71727  0.98388  0.39026  1.0000
  H   H1970     1.0  0.72383  0.93573  0.26252  1.0000
  H   H1971     1.0  0.63222  0.94257  0.45474  1.0000
  H   H1972     1.0  0.74956  0.72599  0.12570  1.0000
  H   H1973     1.0  0.54659  0.91690  0.11624  1.0000
  C   C1109     1.0  0.58046  0.85968  0.22160  1.0000
  H   H1974     1.0  0.75935  0.89092  0.43785  1.0000
  C   C1110     1.0  0.53361  0.86599  0.34637  1.0000
  C   C1111     1.0  0.61938  0.57448  0.02332  1.0000
  H   H1975     1.0  0.73347  0.57482  0.16063  1.0000
  H   H1976     1.0  0.64570  0.00929  0.28301  1.0000
  C   C1112     1.0  0.56976  0.89054  0.35068  1.0000
  C   C1113     1.0  0.55571  0.91323  0.33935  1.0000
  H   H1977     1.0  0.74887  0.98055  0.40203  1.0000
  C   C1114     1.0  0.55833  0.86712  0.35421  1.0000
  H   H1978     1.0  0.56412  0.93154  0.33685  1.0000
  H   H1979     1.0  0.56877  0.84955  0.36306  1.0000
  C   C1115     1.0  0.66579  0.92246  0.23672  1.0000
  C   C1116     1.0  0.66857  0.89629  0.24714  1.0000
  C   C1117     1.0  0.66662  0.87643  0.23159  1.0000
  C   C1118     1.0  0.66108  0.88266  0.20566  1.0000
  C   C1119     1.0  0.65828  0.90884  0.19507  1.0000
  C   C1120     1.0  0.66104  0.92871  0.21050  1.0000
  H   H1980     1.0  0.67266  0.89121  0.26704  1.0000
  H   H1981     1.0  0.66895  0.85619  0.23979  1.0000
  H   H1982     1.0  0.65450  0.91374  0.17487  1.0000
  H   H1983     1.0  0.65920  0.94892  0.20219  1.0000
  H   H1984     1.0  0.65031  0.97045  0.45263  1.0000
  H   H1985     1.0  0.58621  0.74385  0.05015  1.0000
  C   C1121     1.0  0.61305  0.01575  0.10155  1.0000
  C   C1122     1.0  0.59587  0.67218  0.03024  1.0000
  C   C1123     1.0  0.74492  0.93233  0.26537  1.0000
  C   C1124     1.0  0.52404  0.81934  0.15893  1.0000
  H   H1986     1.0  0.59107  0.85713  0.04687  1.0000
  H   H1987     1.0  0.69890  0.99656  0.32390  1.0000
  C   C1125     1.0  0.70823  0.64620  0.17281  1.0000
  H   H1988     1.0  0.73541  0.75703  0.13653  1.0000
  C   C1126     1.0  0.62466  0.99101  0.05571  1.0000
  C   C1127     1.0  0.62037  0.97544  0.07950  1.0000
  C   C1128     1.0  0.61435  0.98797  0.10258  1.0000
  H   H1989     1.0  0.70079  0.66559  0.17738  1.0000
  H   H1990     1.0  0.62946  0.98179  0.03780  1.0000
  H   H1991     1.0  0.61096  0.97631  0.12115  1.0000
  H   H1992     1.0  0.62100  0.71543  0.18178  1.0000
  N   N62       1.0  0.69293  0.72590  0.13643  1.0000
  H   H1993     1.0  0.72023  0.70267  0.16062  1.0000
  C   C1129     1.0  0.66939  0.71347  0.15032  1.0000
  C   C1130     1.0  0.70344  0.71075  0.11346  1.0000
  C   C1131     1.0  0.68521  0.75387  0.12603  1.0000
  C   C1132     1.0  0.53865  0.79453  0.08132  1.0000
  C   C1133     1.0  0.59134  0.94491  0.22390  1.0000
  C   C1134     1.0  0.68389  0.70882  0.09340  1.0000
  C   C1135     1.0  0.66317  0.71534  0.18020  1.0000
  C   C1136     1.0  0.74319  0.61076  0.17223  1.0000
  H   H1994     1.0  0.69394  0.80667  0.12707  1.0000
  C   C1137     1.0  0.73969  0.73584  0.14267  1.0000
  H   H1995     1.0  0.54091  0.90431  0.27604  1.0000
  H   H1996     1.0  0.53626  0.86136  0.07737  1.0000
  C   C1138     1.0  0.58860  0.74570  0.02845  1.0000
  H   H1997     1.0  0.65149  0.72167  0.14096  1.0000
  H   H1998     1.0  0.67151  0.69212  0.14818  1.0000
  H   H1999     1.0  0.71119  0.69044  0.12069  1.0000
  H   H2000     1.0  0.72014  0.71963  0.10186  1.0000
  H   H2001     1.0  0.66909  0.75499  0.11343  1.0000
  H   H2002     1.0  0.59808  0.85344  0.23188  1.0000
  H   H2003     1.0  0.70158  0.76176  0.11284  1.0000
  H   H2004     1.0  0.75858  0.66488  0.09966  1.0000
  C   C1139     1.0  0.53719  0.74536  0.08992  1.0000
  C   C1140     1.0  0.69510  0.01570  0.33029  1.0000
  H   H2005     1.0  0.76287  0.60292  0.17588  1.0000
  H   H2006     1.0  0.73314  0.85443  0.40884  1.0000
  H   H2007     1.0  0.74046  0.97607  0.29431  1.0000
  C   C1141     1.0  0.74760  0.59730  0.06186  1.0000
  C   C1142     1.0  0.60366  0.01366  0.28474  1.0000
  C   C1143     1.0  0.67532  0.77308  0.14671  1.0000
  C   C1144     1.0  0.74783  0.93626  0.48958  1.0000
  C   C1145     1.0  0.54443  0.84117  0.07320  1.0000
  H   H2008     1.0  0.70990  0.89763  0.44085  1.0000
  H   H2009     1.0  0.54786  0.83915  0.12792  1.0000
  C   C1146     1.0  0.59807  0.59542  0.03262  1.0000
  H   H2010     1.0  0.60534  0.60691  0.04645  1.0000
  H   H2011     1.0  0.74262  0.57920  0.05490  1.0000
  C   C1147     1.0  0.71440  0.72363  0.15421  1.0000
  H   H2012     1.0  0.52367  0.77257  0.11793  1.0000
  H   H2013     1.0  0.61187  0.88703  0.24740  1.0000
  C   C1148     1.0  0.69997  0.60976  0.07478  1.0000
  H   H2014     1.0  0.58448  0.96544  0.03069  1.0000
  H   H2015     1.0  0.75097  0.74299  0.18034  1.0000
  H   H2016     1.0  0.52055  0.92097  0.23238  1.0000
  C   C1149     1.0  0.55449  0.84164  0.04373  1.0000
  C   C1150     1.0  0.75997  0.91635  0.22165  1.0000
  H   H2017     1.0  0.67976  0.55367  0.03157  1.0000
  C   C1151     1.0  0.55023  0.91779  0.26029  1.0000
  H   H2018     1.0  0.55810  0.94512  0.03402  1.0000
  H   H2019     1.0  0.72262  0.84416  0.31191  1.0000
  H   H2020     1.0  0.61340  0.97308  0.27622  1.0000
  H   H2021     1.0  0.76271  0.53176  0.12586  1.0000
  C   C1152     1.0  0.73776  0.94125  0.44233  1.0000
  H   H2022     1.0  0.52697  0.72970  0.10190  1.0000
  H   H2023     1.0  0.55560  0.68695  0.02670  1.0000
  C   C1153     1.0  0.61617  0.54619  0.19426  1.0000
  H   H2024     1.0  0.66173  0.80456  0.11801  1.0000
  H   H2025     1.0  0.60909  0.85225  0.31544  1.0000
  H   H2026     1.0  0.59967  0.53962  0.18600  1.0000
  H   H2027     1.0  0.58234  0.82120  0.20835  1.0000
  H   H2028     1.0  0.64083  0.55091  0.15798  1.0000
  C   C1154     1.0  0.72544  0.85106  0.29071  1.0000
  H   H2029     1.0  0.51928  0.92976  0.32392  1.0000
  H   H2030     1.0  0.60946  0.94072  0.23375  1.0000
  H   H2031     1.0  0.54225  0.79042  0.06049  1.0000
  H   H2032     1.0  0.72169  0.90816  0.21184  1.0000
  H   H2033     1.0  0.69465  0.52983  0.17165  1.0000
  H   H2034     1.0  0.72696  0.89042  0.29872  1.0000
  H   H2035     1.0  0.75758  0.96516  0.23746  1.0000
  H   H2036     1.0  0.61226  0.95029  0.18484  1.0000
  H   H2037     1.0  0.68105  0.68858  0.05957  1.0000
  C   C1155     1.0  0.63776  0.70389  0.19071  1.0000
  H   H2038     1.0  0.67908  0.72818  0.08237  1.0000
  H   H2039     1.0  0.59990  0.91132  0.26824  1.0000
  C   C1156     1.0  0.73396  0.63649  0.17685  1.0000
  C   C1157     1.0  0.53639  0.82212  0.13064  1.0000
  H   H2040     1.0  0.67971  0.53399  0.13185  1.0000
  C   C1158     1.0  0.55650  0.97054  0.06404  1.0000
  H   H2041     1.0  0.75882  0.93416  0.43827  1.0000
  H   H2042     1.0  0.71960  0.98245  0.26799  1.0000
  H   H2043     1.0  0.56487  0.82236  0.03938  1.0000
  C   C1159     1.0  0.72841  0.93171  0.47099  1.0000
  H   H2044     1.0  0.56429  0.88183  0.03966  1.0000
  H   H2045     1.0  0.70022  0.66992  0.08355  1.0000
  H   H2046     1.0  0.70600  0.85481  0.28324  1.0000
  H   H2047     1.0  0.66132  0.73573  0.18507  1.0000
  H   H2048     1.0  0.55777  0.74280  0.09440  1.0000
  C   C1160     1.0  0.72672  0.60344  0.08469  1.0000
  C   C1161     1.0  0.72149  0.90513  0.42278  1.0000
  H   H2049     1.0  0.56593  0.95443  0.07701  1.0000
  C   C1162     1.0  0.69548  0.68980  0.07351  1.0000
  H   H2050     1.0  0.73034  0.62051  0.09423  1.0000
  H   H2051     1.0  0.57917  0.98248  0.28504  1.0000
  H   H2052     1.0  0.55054  0.86858  0.25353  1.0000
  H   H2053     1.0  0.61245  0.56767  0.19499  1.0000
  H   H2054     1.0  0.75815  0.87108  0.29490  1.0000
  H   H2055     1.0  0.63432  0.70439  0.21224  1.0000
  H   H2056     1.0  0.64133  0.95963  0.42323  1.0000
  C   C1163     1.0  0.56064  0.87938  0.23613  1.0000
  N   N63       1.0  0.72251  0.93427  0.42156  1.0000
  H   H2057     1.0  0.65717  0.54660  0.18726  1.0000
  C   C1164     1.0  0.69518  0.94860  0.42346  1.0000
  H   H2058     1.0  0.56381  0.98906  0.06726  1.0000
  H   H2059     1.0  0.52545  0.84750  0.34904  1.0000
  H   H2060     1.0  0.73325  0.85320  0.44391  1.0000
  H   H2061     1.0  0.71106  0.90076  0.40642  1.0000
  N   N64       1.0  0.75819  0.90980  0.25099  1.0000
  C   C1165     1.0  0.67321  0.93480  0.44064  1.0000
  H   H2062     1.0  0.68805  0.77127  0.16268  1.0000
  S   S263      1.0  0.64595  0.64987  0.03511  1.0000
  C   C1166     1.0  0.59758  0.96140  0.19793  1.0000
  H   H2063     1.0  0.73748  0.83538  0.28041  1.0000
  H   H2064     1.0  0.72614  0.91056  0.47364  1.0000
  H   H2065     1.0  0.69522  0.96825  0.43017  1.0000
  H   H2066     1.0  0.68812  0.95260  0.40374  1.0000
  C   C1167     1.0  0.56796  0.83508  0.21881  1.0000
  H   H2067     1.0  0.72221  0.94117  0.21945  1.0000
  H   H2068     1.0  0.65521  0.76956  0.15512  1.0000
  C   C1168     1.0  0.73366  0.92475  0.20985  1.0000
  H   H2069     1.0  0.54793  0.00501  0.02347  1.0000
  H   H2070     1.0  0.70957  0.94297  0.47719  1.0000
  H   H2071     1.0  0.72678  0.93607  0.37927  1.0000
  C   C1169     1.0  0.74192  0.88720  0.25772  1.0000
  H   H2072     1.0  0.55854  0.79249  0.08790  1.0000
  H   H2073     1.0  0.66917  0.91751  0.43159  1.0000
  H   H2074     1.0  0.67838  0.92799  0.46061  1.0000
  H   H2075     1.0  0.73716  0.96283  0.44168  1.0000
  H   H2076     1.0  0.55012  0.80439  0.12783  1.0000
  H   H2077     1.0  0.58684  0.86864  0.20172  1.0000
  H   H2078     1.0  0.72584  0.58617  0.09948  1.0000
  C   C1170     1.0  0.74011  0.98033  0.27282  1.0000
  H   H2079     1.0  0.58103  0.58605  0.04284  1.0000
  H   H2080     1.0  0.56561  0.92354  0.20591  1.0000
  H   H2081     1.0  0.74958  0.00126  0.35674  1.0000
  H   H2082     1.0  0.62411  0.56056  0.04057  1.0000
  C   C1171     1.0  0.62318  0.01834  0.05468  1.0000
  H   H2083     1.0  0.55082  0.84018  0.20753  1.0000
  H   H2084     1.0  0.59757  0.90784  0.20839  1.0000
  H   H2085     1.0  0.57965  0.96727  0.18794  1.0000
  H   H2086     1.0  0.61714  0.88509  0.30630  1.0000
  H   H2087     1.0  0.70760  0.73266  0.17253  1.0000
  H   H2088     1.0  0.69442  0.59278  0.06630  1.0000
  C   C1172     1.0  0.75931  0.73294  0.16293  1.0000
  H   H2089     1.0  0.72165  0.89304  0.25277  1.0000
  H   H2090     1.0  0.68562  0.61431  0.09155  1.0000
  H   H2091     1.0  0.65296  0.59361  0.02687  1.0000
  N   N65       1.0  0.52516  0.82190  0.08329  1.0000
  H   H2092     1.0  0.74472  0.61264  0.04521  1.0000
  H   H2093     1.0  0.58552  0.85449  0.27660  1.0000
  H   H2094     1.0  0.75715  0.64707  0.05838  1.0000
  H   H2095     1.0  0.73819  0.97315  0.34643  1.0000
  H   H2096     1.0  0.71347  0.69651  0.06230  1.0000
  H   H2097     1.0  0.71891  0.93904  0.17273  1.0000
  H   H2098     1.0  0.53659  0.74311  0.06893  1.0000
  C   C1173     1.0  0.64776  0.95306  0.44293  1.0000
  C   C1174     1.0  0.52691  0.91186  0.11727  1.0000
  H   H2099     1.0  0.53955  0.81764  0.17226  1.0000
  H   H2100     1.0  0.66548  0.81466  0.14933  1.0000
  C   C1175     1.0  0.72663  0.59493  0.16349  1.0000
  C   C1176     1.0  0.59730  0.98914  0.27410  1.0000
  H   H2101     1.0  0.74907  0.91779  0.16988  1.0000
  H   H2102     1.0  0.53503  0.95037  0.23274  1.0000
  H   H2103     1.0  0.63875  0.68325  0.18641  1.0000
  C   C1177     1.0  0.53021  0.91226  0.33223  1.0000
  H   H2104     1.0  0.75468  0.92991  0.33231  1.0000
  H   H2105     1.0  0.57234  0.87982  0.29680  1.0000
  H   H2106     1.0  0.60572  0.97932  0.20157  1.0000
  C   C1178     1.0  0.74954  0.97974  0.36080  1.0000
  C   C1179     1.0  0.73621  0.94302  0.39509  1.0000
  H   H2107     1.0  0.76332  0.84670  0.42336  1.0000
  C   C1180     1.0  0.73808  0.93373  0.18063  1.0000
  H   H2108     1.0  0.74995  0.87089  0.24581  1.0000
  H   H2109     1.0  0.56205  0.83673  0.08397  1.0000
  H   H2110     1.0  0.74531  0.92736  0.28680  1.0000
  C   C1181     1.0  0.52804  0.93321  0.24524  1.0000
  H   H2111     1.0  0.55833  0.93186  0.27099  1.0000
  C   C1182     1.0  0.61304  0.86711  0.29859  1.0000
  C   C1183     1.0  0.58931  0.87310  0.28325  1.0000
  C   C1184     1.0  0.64187  0.53964  0.17749  1.0000
  H   H2112     1.0  0.56170  0.82520  0.23837  1.0000
  H   H2113     1.0  0.63045  0.85945  0.28597  1.0000
  H   H2114     1.0  0.57695  0.95696  0.23624  1.0000
  N   N66       1.0  0.57157  0.90265  0.24392  1.0000
  C   C1185     1.0  0.59416  0.89424  0.25995  1.0000
  C   C1186     1.0  0.58110  0.91905  0.21947  1.0000
  H   H2115     1.0  0.66547  0.70189  0.10309  1.0000
  C   C1187     1.0  0.75661  0.95867  0.25870  1.0000
  C   C1188     1.0  0.56316  0.96505  0.03547  1.0000
  C   C1189     1.0  0.74413  0.85879  0.42468  1.0000
  H   H2116     1.0  0.53828  0.84657  0.03125  1.0000
  C   C1190     1.0  0.57370  0.86200  0.03582  1.0000
  H   H2117     1.0  0.76008  0.89189  0.40288  1.0000
  C   C1191     1.0  0.74812  0.88779  0.42176  1.0000
  C   C1192     1.0  0.52394  0.77212  0.09650  1.0000
  H   H2118     1.0  0.75050  0.95734  0.48824  1.0000
  H   H2119     1.0  0.75684  0.93409  0.39303  1.0000
  H   H2120     1.0  0.57551  0.53658  0.15259  1.0000
  H   H2121     1.0  0.61712  0.53668  0.21456  1.0000
  S   S264      1.0  0.75423  0.65686  0.18751  1.0000
  H   H2122     1.0  0.62917  0.75116  0.02520  1.0000
  H   H2123     1.0  0.76495  0.71195  0.16918  1.0000
  H   H2124     1.0  0.74896  0.95119  0.17723  1.0000
  H   H2125     1.0  0.76024  0.57963  0.12155  1.0000
  H   H2126     1.0  0.74823  0.99922  0.26663  1.0000
  C   C1193     1.0  0.58145  0.53110  0.11185  1.0000
  H   H2127     1.0  0.74036  0.92984  0.51005  1.0000
  H   H2128     1.0  0.64197  0.52679  0.07686  1.0000
  H   H2129     1.0  0.63552  0.52709  0.12389  1.0000
  H   H2130     1.0  0.74114  0.52751  0.17835  1.0000
  H   H2131     1.0  0.60398  0.00943  0.30629  1.0000
  C   C1194     1.0  0.57975  0.52240  0.13855  1.0000
  C   C1195     1.0  0.65962  0.52415  0.08749  1.0000
  H   H2132     1.0  0.63408  0.01596  0.25213  1.0000
  H   H2133     1.0  0.52665  0.98118  0.02248  1.0000
  H   H2134     1.0  0.62245  0.71762  0.02858  1.0000
  H   H2135     1.0  0.57550  0.73300  0.02181  1.0000
  Fe  Fe133     1.0  0.57346  0.89387  0.88150  1.0000
  S   S265      1.0  0.57468  0.89651  0.83788  1.0000
  S   S266      1.0  0.56953  0.85464  0.90652  1.0000
  Fe  Fe134     1.0  0.57150  0.95482  0.88082  1.0000
  S   S267      1.0  0.57180  0.96058  0.83719  1.0000
  S   S268      1.0  0.56464  0.99038  0.90462  1.0000
  Fe  Fe135     1.0  0.54384  0.93031  0.84222  1.0000
  C   C1196     1.0  0.67043  0.58062  0.86969  1.0000
  Fe  Fe136     1.0  0.60264  0.92612  0.83736  1.0000
  S   S269      1.0  0.63768  0.92888  0.80760  1.0000
  S   S270      1.0  0.54086  0.92657  0.88593  1.0000
  S   S271      1.0  0.60414  0.92160  0.88103  1.0000
  Fe  Fe137     1.0  0.61342  0.90312  0.62583  1.0000
  S   S272      1.0  0.60722  0.91483  0.66647  1.0000
  S   S273      1.0  0.57921  0.89629  0.60418  1.0000
  Fe  Fe138     1.0  0.67337  0.90592  0.62235  1.0000
  S   S274      1.0  0.67087  0.91809  0.66279  1.0000
  S   S275      1.0  0.71185  0.90258  0.59556  1.0000
  Fe  Fe139     1.0  0.64313  0.88772  0.67390  1.0000
  S   S276      1.0  0.64129  0.86205  0.71219  1.0000
  Fe  Fe140     1.0  0.63520  0.94414  0.65196  1.0000
  H   H2136     1.0  0.59150  0.60892  0.01578  1.0000
  S   S277      1.0  0.64783  0.87322  0.63409  1.0000
  S   S278      1.0  0.63930  0.93473  0.61044  1.0000
  Fe  Fe141     1.0  0.57274  0.70593  0.87896  1.0000
  S   S279      1.0  0.59607  0.69670  0.91321  1.0000
  S   S280      1.0  0.56987  0.74679  0.85690  1.0000
  Fe  Fe142     1.0  0.55556  0.64980  0.88440  1.0000
  S   S281      1.0  0.57688  0.63719  0.91945  1.0000
  S   S282      1.0  0.52947  0.62256  0.87130  1.0000
  Fe  Fe143     1.0  0.56181  0.67654  0.93202  1.0000
  S   S283      1.0  0.54737  0.68167  0.97358  1.0000
  Fe  Fe144     1.0  0.60912  0.65834  0.89715  1.0000
  S   S284      1.0  0.64876  0.63577  0.89835  1.0000
  S   S285      1.0  0.53736  0.68811  0.89898  1.0000
  S   S286      1.0  0.58886  0.66873  0.86070  1.0000
  C   C1197     1.0  0.57487  0.67381  0.99066  1.0000
  C   C1198     1.0  0.59842  0.66334  0.97787  1.0000
  C   C1199     1.0  0.51623  0.74967  0.95505  1.0000
  H   H2137     1.0  0.59968  0.65963  0.95772  1.0000
  C   C1200     1.0  0.52071  0.55102  0.96410  1.0000
  C   C1201     1.0  0.69361  0.69295  0.90465  1.0000
  C   C1202     1.0  0.67209  0.68003  0.90154  1.0000
  C   C1203     1.0  0.67419  0.65270  0.90452  1.0000
  C   C1204     1.0  0.69745  0.63837  0.91137  1.0000
  H   H2138     1.0  0.65423  0.69112  0.89601  1.0000
  H   H2139     1.0  0.69919  0.61722  0.91368  1.0000
  H   H2140     1.0  0.66237  0.71073  0.00960  1.0000
  C   C1205     1.0  0.53263  0.58795  0.87034  1.0000
  C   C1206     1.0  0.55459  0.57070  0.87704  1.0000
  C   C1207     1.0  0.54759  0.96739  0.66647  1.0000
  H   H2141     1.0  0.57106  0.57844  0.88313  1.0000
  C   C1208     1.0  0.57073  0.82451  0.89256  1.0000
  C   C1209     1.0  0.57501  0.82323  0.86550  1.0000
  C   C1210     1.0  0.57488  0.79931  0.85501  1.0000
  C   C1211     1.0  0.57081  0.77620  0.87136  1.0000
  C   C1212     1.0  0.56689  0.77731  0.89849  1.0000
  C   C1213     1.0  0.56679  0.80133  0.90899  1.0000
  H   H2142     1.0  0.57823  0.84068  0.85253  1.0000
  H   H2143     1.0  0.57795  0.79876  0.83402  1.0000
  H   H2144     1.0  0.56374  0.75971  0.91134  1.0000
  H   H2145     1.0  0.56354  0.80199  0.92993  1.0000
  H   H2146     1.0  0.64238  0.55696  0.92228  1.0000
  H   H2147     1.0  0.70234  0.52578  0.78636  1.0000
  H   H2148     1.0  0.61829  0.97990  0.77930  1.0000
  H   H2149     1.0  0.63453  0.00166  0.55146  1.0000
  C   C1214     1.0  0.56234  0.91193  0.97270  1.0000
  C   C1215     1.0  0.64019  0.90886  0.78201  1.0000
  C   C1216     1.0  0.65337  0.91696  0.75781  1.0000
  C   C1217     1.0  0.65374  0.90266  0.73637  1.0000
  C   C1218     1.0  0.64190  0.87954  0.73925  1.0000
  C   C1219     1.0  0.62992  0.87063  0.76383  1.0000
  C   C1220     1.0  0.62878  0.88543  0.78512  1.0000
  H   H2150     1.0  0.66257  0.93485  0.75542  1.0000
  H   H2151     1.0  0.66339  0.90945  0.71768  1.0000
  H   H2152     1.0  0.62103  0.85257  0.76628  1.0000
  H   H2153     1.0  0.61939  0.87852  0.80395  1.0000
  H   H2154     1.0  0.54424  0.68639  0.80827  1.0000
  C   C1221     1.0  0.54611  0.89614  0.61783  1.0000
  H   H2155     1.0  0.69821  0.75268  0.95556  1.0000
  C   C1222     1.0  0.62596  0.56662  0.93466  1.0000
  H   H2156     1.0  0.76057  0.79676  0.62354  1.0000
  H   H2157     1.0  0.70996  0.98153  0.69076  1.0000
  H   H2158     1.0  0.57196  0.53011  0.88095  1.0000
  C   C1223     1.0  0.74400  0.90090  0.60484  1.0000
  C   C1224     1.0  0.53945  0.79891  0.77493  1.0000
  H   H2159     1.0  0.73273  0.89935  0.64629  1.0000
  H   H2160     1.0  0.73727  0.60352  0.87376  1.0000
  N   N67       1.0  0.56539  0.95054  0.73861  1.0000
  C   C1225     1.0  0.54882  0.54215  0.95373  1.0000
  C   C1226     1.0  0.58145  0.92401  0.74077  1.0000
  C   C1227     1.0  0.57810  0.96843  0.75313  1.0000
  C   C1228     1.0  0.56549  0.96214  0.71041  1.0000
  H   H2161     1.0  0.52202  0.98976  0.60881  1.0000
  H   H2162     1.0  0.72830  0.81597  0.67499  1.0000
  C   C1229     1.0  0.60615  0.97391  0.74164  1.0000
  C   C1230     1.0  0.56835  0.89938  0.73694  1.0000
  C   C1231     1.0  0.55788  0.88454  0.76268  1.0000
  H   H2163     1.0  0.64094  0.54879  0.85031  1.0000
  C   C1232     1.0  0.53357  0.53312  0.86810  1.0000
  H   H2164     1.0  0.52565  0.86838  0.95557  1.0000
  H   H2165     1.0  0.54014  0.98823  0.66800  1.0000
  H   H2166     1.0  0.70792  0.00925  0.65250  1.0000
  H   H2167     1.0  0.59915  0.92408  0.72634  1.0000
  H   H2168     1.0  0.58965  0.92000  0.75997  1.0000
  H   H2169     1.0  0.57868  0.96036  0.77406  1.0000
  H   H2170     1.0  0.56655  0.98795  0.75343  1.0000
  H   H2171     1.0  0.56110  0.98380  0.70919  1.0000
  H   H2172     1.0  0.58545  0.95894  0.70005  1.0000
  H   H2173     1.0  0.71161  0.79664  0.95509  1.0000
  H   H2174     1.0  0.54489  0.96356  0.95807  1.0000
  H   H2175     1.0  0.74821  0.52496  0.81885  1.0000
  H   H2176     1.0  0.69203  0.66261  0.98151  1.0000
  H   H2177     1.0  0.60586  0.98534  0.72215  1.0000
  H   H2178     1.0  0.61906  0.95557  0.73935  1.0000
  H   H2179     1.0  0.67067  0.54046  0.88416  1.0000
  C   C1233     1.0  0.64421  0.58686  0.01058  1.0000
  H   H2180     1.0  0.57310  0.88018  0.77642  1.0000
  H   H2181     1.0  0.54054  0.89567  0.77227  1.0000
  H   H2182     1.0  0.55203  0.86563  0.75864  1.0000
  H   H2183     1.0  0.74154  0.67703  0.74286  1.0000
  H   H2184     1.0  0.54505  0.01029  0.95350  1.0000
  C   C1234     1.0  0.53795  0.00743  0.97471  1.0000
  H   H2185     1.0  0.63135  0.77464  0.93909  1.0000
  H   H2186     1.0  0.71467  0.53938  0.99472  1.0000
  H   H2187     1.0  0.53510  0.95901  0.65441  1.0000
  H   H2188     1.0  0.61269  0.55196  0.94348  1.0000
  C   C1235     1.0  0.54727  0.98522  0.01737  1.0000
  H   H2189     1.0  0.56779  0.96618  0.65643  1.0000
  C   C1236     1.0  0.73334  0.98905  0.59244  1.0000
  H   H2190     1.0  0.63513  0.73824  0.89541  1.0000
  C   C1237     1.0  0.73939  0.52118  0.80135  1.0000
  C   C1238     1.0  0.73898  0.69760  0.77774  1.0000
  H   H2191     1.0  0.65310  0.69376  0.98496  1.0000
  H   H2192     1.0  0.72377  0.67330  0.98147  1.0000
  C   C1239     1.0  0.66204  0.54495  0.84340  1.0000
  H   H2193     1.0  0.70069  0.67460  0.01043  1.0000
  C   C1240     1.0  0.65234  0.55888  0.97377  1.0000
  H   H2194     1.0  0.58351  0.88558  0.72717  1.0000
  H   H2195     1.0  0.57899  0.89630  0.97151  1.0000
  H   H2196     1.0  0.73950  0.59188  0.97678  1.0000
  H   H2197     1.0  0.69721  0.97747  0.58177  1.0000
  C   C1241     1.0  0.69633  0.78982  0.97037  1.0000
  H   H2198     1.0  0.67621  0.59333  0.85166  1.0000
  H   H2199     1.0  0.74898  0.71040  0.73664  1.0000
  H   H2200     1.0  0.70618  0.54929  0.80842  1.0000
  H   H2201     1.0  0.52041  0.55170  0.98547  1.0000
  H   H2202     1.0  0.65850  0.53412  0.02096  1.0000
  H   H2203     1.0  0.63862  0.64883  0.98122  1.0000
  C   C1242     1.0  0.67429  0.54671  0.01361  1.0000
  C   C1243     1.0  0.58291  0.98998  0.98060  1.0000
  C   C1244     1.0  0.62053  0.65700  0.99128  1.0000
  H   H2204     1.0  0.74244  0.71597  0.82611  1.0000
  H   H2205     1.0  0.71979  0.98802  0.55448  1.0000
  H   H2206     1.0  0.61662  0.53969  0.82117  1.0000
  C   C1245     1.0  0.51995  0.97448  0.75254  1.0000
  C   C1246     1.0  0.63740  0.75692  0.90296  1.0000
  C   C1247     1.0  0.73783  0.60156  0.85253  1.0000
  H   H2207     1.0  0.61903  0.58916  0.96732  1.0000
  H   H2208     1.0  0.72663  0.58526  0.85015  1.0000
  H   H2209     1.0  0.74291  0.69687  0.85664  1.0000
  H   H2210     1.0  0.72348  0.92184  0.69357  1.0000
  H   H2211     1.0  0.66526  0.55960  0.82613  1.0000
  C   C1248     1.0  0.61908  0.66071  0.01771  1.0000
  H   H2212     1.0  0.53350  0.88501  0.58292  1.0000
  C   C1249     1.0  0.75125  0.69223  0.75025  1.0000
  H   H2213     1.0  0.74849  0.71372  0.78353  1.0000
  C   C1250     1.0  0.74886  0.89954  0.63101  1.0000
  H   H2214     1.0  0.63821  0.60503  0.99819  1.0000
  H   H2215     1.0  0.76177  0.90217  0.56496  1.0000
  C   C1251     1.0  0.70496  0.68222  0.83104  1.0000
  H   H2216     1.0  0.67502  0.77735  0.94204  1.0000
  C   C1252     1.0  0.69387  0.71152  0.82945  1.0000
  C   C1253     1.0  0.66410  0.71479  0.83049  1.0000
  S   S287      1.0  0.74391  0.69463  0.91511  1.0000
  H   H2217     1.0  0.69468  0.67226  0.81800  1.0000
  H   H2218     1.0  0.69811  0.67432  0.85131  1.0000
  C   C1254     1.0  0.57192  0.93716  0.97857  1.0000
  H   H2219     1.0  0.75133  0.94612  0.65936  1.0000
  H   H2220     1.0  0.61120  0.00928  0.87395  1.0000
  H   H2221     1.0  0.52999  0.99631  0.57405  1.0000
  H   H2222     1.0  0.70555  0.63072  0.84613  1.0000
  H   H2223     1.0  0.69905  0.72040  0.84643  1.0000
  H   H2224     1.0  0.70165  0.72285  0.81138  1.0000
  H   H2225     1.0  0.65659  0.73579  0.83072  1.0000
  H   H2226     1.0  0.65786  0.70762  0.81306  1.0000
  H   H2227     1.0  0.65527  0.70385  0.84843  1.0000
  H   H2228     1.0  0.60768  0.00967  0.75942  1.0000
  C   C1255     1.0  0.53796  0.90225  0.64333  1.0000
  H   H2229     1.0  0.69888  0.93987  0.71401  1.0000
  H   H2230     1.0  0.65625  0.98803  0.61660  1.0000
  C   C1256     1.0  0.63620  0.57942  0.95596  1.0000
  C   C1257     1.0  0.66083  0.75935  0.98101  1.0000
  H   H2231     1.0  0.55337  0.93136  0.69053  1.0000
  C   C1258     1.0  0.64394  0.00758  0.65118  1.0000
  H   H2232     1.0  0.76052  0.52416  0.90011  1.0000
  N   N68       1.0  0.55477  0.98522  0.98830  1.0000
  C   C1259     1.0  0.71862  0.65127  0.91519  1.0000
  C   C1260     1.0  0.57364  0.67846  0.01683  1.0000
  N   N69       1.0  0.64873  0.73556  0.97595  1.0000
  C   C1261     1.0  0.64810  0.73340  0.94719  1.0000
  C   C1262     1.0  0.66302  0.71076  0.98806  1.0000
  C   C1263     1.0  0.62085  0.73720  0.98854  1.0000
  H   H2233     1.0  0.58771  0.94202  0.96292  1.0000
  H   H2234     1.0  0.62430  0.77271  0.89321  1.0000
  C   C1264     1.0  0.63022  0.75520  0.93259  1.0000
  H   H2235     1.0  0.61494  0.58182  0.92197  1.0000
  C   C1265     1.0  0.69230  0.70485  0.97847  1.0000
  H   H2236     1.0  0.63895  0.99179  0.75113  1.0000
  H   H2237     1.0  0.52390  0.59201  0.95728  1.0000
  H   H2238     1.0  0.75153  0.84425  0.62358  1.0000
  H   H2239     1.0  0.64146  0.71434  0.94435  1.0000
  H   H2240     1.0  0.66793  0.73299  0.93668  1.0000
  C   C1266     1.0  0.53534  0.70341  0.81866  1.0000
  H   H2241     1.0  0.56208  0.55647  0.95695  1.0000
  H   H2242     1.0  0.61103  0.72058  0.98383  1.0000
  H   H2243     1.0  0.61834  0.53026  0.77487  1.0000
  N   N70       1.0  0.66413  0.56939  0.99516  1.0000
  C   C1267     1.0  0.71819  0.97695  0.57421  1.0000
  H   H2244     1.0  0.55676  0.95212  0.60998  1.0000
  H   H2245     1.0  0.59649  0.97373  0.98886  1.0000
  H   H2246     1.0  0.60958  0.75090  0.93660  1.0000
  H   H2247     1.0  0.70909  0.97510  0.62669  1.0000
  H   H2248     1.0  0.73641  0.63996  0.92061  1.0000
  H   H2249     1.0  0.76285  0.66379  0.79422  1.0000
  H   H2250     1.0  0.69588  0.70633  0.95691  1.0000
  H   H2251     1.0  0.55397  0.91486  0.95363  1.0000
  C   C1268     1.0  0.54951  0.95998  0.97881  1.0000
  N   N71       1.0  0.74371  0.98546  0.64078  1.0000
  C   C1269     1.0  0.71676  0.96358  0.68101  1.0000
  H   H2252     1.0  0.68119  0.58512  0.88563  1.0000
  H   H2253     1.0  0.53939  0.94012  0.77278  1.0000
  C   C1270     1.0  0.75427  0.83195  0.64231  1.0000
  H   H2254     1.0  0.65978  0.53124  0.79578  1.0000
  H   H2255     1.0  0.70999  0.57964  0.01572  1.0000
  C   C1271     1.0  0.70233  0.59539  0.00133  1.0000
  H   H2256     1.0  0.61095  0.56382  0.00962  1.0000
  C   C1272     1.0  0.62393  0.51970  0.81609  1.0000
  H   H2257     1.0  0.55535  0.52288  0.96411  1.0000
  H   H2258     1.0  0.73957  0.65235  0.86245  1.0000
  H   H2259     1.0  0.71665  0.81694  0.64316  1.0000
  H   H2260     1.0  0.72631  0.95632  0.57232  1.0000
  H   H2261     1.0  0.60944  0.75530  0.98039  1.0000
  H   H2262     1.0  0.51692  0.57871  0.92945  1.0000
  H   H2263     1.0  0.66796  0.54892  0.96059  1.0000
  H   H2264     1.0  0.69244  0.71402  0.90125  1.0000
  S   S288      1.0  0.62485  0.98354  0.66660  1.0000
  C   C1273     1.0  0.67684  0.55180  0.86545  1.0000
  H   H2265     1.0  0.52184  0.81880  0.86934  1.0000
  N   N72       1.0  0.73424  0.67579  0.82568  1.0000
  H   H2266     1.0  0.70178  0.96065  0.66841  1.0000
  C   C1274     1.0  0.54700  0.95198  0.69355  1.0000
  H   H2267     1.0  0.55218  0.90668  0.65528  1.0000
  H   H2268     1.0  0.73731  0.95377  0.61910  1.0000
  H   H2269     1.0  0.71797  0.70404  0.77639  1.0000
  H   H2270     1.0  0.64828  0.59467  0.94610  1.0000
  H   H2271     1.0  0.74814  0.53329  0.78418  1.0000
  H   H2272     1.0  0.58739  0.99041  0.95891  1.0000
  C   C1275     1.0  0.72584  0.60724  0.98603  1.0000
  H   H2273     1.0  0.69906  0.57403  0.96825  1.0000
  C   C1276     1.0  0.71822  0.94059  0.70236  1.0000
  H   H2274     1.0  0.76339  0.84315  0.65507  1.0000
  H   H2275     1.0  0.73645  0.61630  0.99937  1.0000
  H   H2276     1.0  0.72600  0.01004  0.59225  1.0000
  H   H2277     1.0  0.52296  0.98769  0.73426  1.0000
  H   H2278     1.0  0.53998  0.79515  0.79647  1.0000
  H   H2279     1.0  0.64574  0.77655  0.98243  1.0000
  H   H2280     1.0  0.55016  0.54001  0.93250  1.0000
  H   H2281     1.0  0.72681  0.62351  0.81719  1.0000
  H   H2282     1.0  0.58041  0.86223  0.01462  1.0000
  H   H2283     1.0  0.66855  0.75596  0.00047  1.0000
  C   C1277     1.0  0.73038  0.97477  0.62055  1.0000
  H   H2284     1.0  0.75403  0.98757  0.58395  1.0000
  H   H2285     1.0  0.71954  0.62256  0.97048  1.0000
  H   H2286     1.0  0.58283  0.76638  0.02117  1.0000
  H   H2287     1.0  0.71545  0.84656  0.65844  1.0000
  H   H2288     1.0  0.65781  0.76156  0.89778  1.0000
  C   C1278     1.0  0.70278  0.67713  0.98869  1.0000
  H   H2289     1.0  0.64919  0.58524  0.87536  1.0000
  H   H2290     1.0  0.55569  0.81055  0.76676  1.0000
  C   C1279     1.0  0.71687  0.67856  0.91161  1.0000
  C   C1280     1.0  0.72706  0.82742  0.65555  1.0000
  H   H2291     1.0  0.53756  0.72157  0.80526  1.0000
  H   H2292     1.0  0.69829  0.54814  0.86090  1.0000
  H   H2293     1.0  0.73070  0.65851  0.79031  1.0000
  C   C1281     1.0  0.74181  0.64993  0.84117  1.0000
  C   C1282     1.0  0.52887  0.98061  0.59055  1.0000
  H   H2294     1.0  0.53191  0.95255  0.99033  1.0000
  C   C1283     1.0  0.68301  0.76874  0.96049  1.0000
  H   H2295     1.0  0.68196  0.80686  0.97483  1.0000
  C   C1284     1.0  0.61706  0.73744  0.01875  1.0000
  C   C1285     1.0  0.74369  0.96596  0.66487  1.0000
  C   C1286     1.0  0.68568  0.58522  0.98249  1.0000
  H   H2296     1.0  0.52647  0.95383  0.70246  1.0000
  H   H2297     1.0  0.53058  0.88258  0.82418  1.0000
  H   H2298     1.0  0.58864  0.01517  0.01048  1.0000
  C   C1287     1.0  0.61837  0.98980  0.75905  1.0000
  C   C1288     1.0  0.55513  0.54330  0.87574  1.0000
  H   H2299     1.0  0.70582  0.78189  0.98824  1.0000
  H   H2300     1.0  0.54740  0.90538  0.98847  1.0000
  C   C1289     1.0  0.72626  0.62692  0.83798  1.0000
  H   H2301     1.0  0.51810  0.76998  0.94602  1.0000
  H   H2302     1.0  0.73283  0.94282  0.71575  1.0000
  H   H2303     1.0  0.54604  0.70397  0.83587  1.0000
  H   H2304     1.0  0.67749  0.60291  0.97050  1.0000
  H   H2305     1.0  0.70379  0.71855  0.98594  1.0000
  C   C1290     1.0  0.74219  0.67264  0.79713  1.0000
  C   C1291     1.0  0.65721  0.00519  0.62631  1.0000
  H   H2306     1.0  0.56470  0.95826  0.57508  1.0000
  C   C1292     1.0  0.53827  0.94846  0.75205  1.0000
  H   H2307     1.0  0.52829  0.93450  0.74322  1.0000
  H   H2308     1.0  0.58052  0.93318  0.99739  1.0000
  H   H2309     1.0  0.56945  0.98211  0.59630  1.0000
  C   C1293     1.0  0.52740  0.89004  0.60259  1.0000
  H   H2310     1.0  0.55270  0.90336  0.72392  1.0000
  C   C1294     1.0  0.55659  0.96744  0.59310  1.0000
  H   H2311     1.0  0.69053  0.61083  0.01214  1.0000
  C   C1295     1.0  0.74843  0.69604  0.83523  1.0000
  C   C1296     1.0  0.70985  0.52837  0.80499  1.0000
  H   H2312     1.0  0.63978  0.54333  0.98201  1.0000
  H   H2313     1.0  0.57807  0.01599  0.79871  1.0000
  H   H2314     1.0  0.53445  0.74205  0.96403  1.0000
  C   C1297     1.0  0.72898  0.01135  0.64684  1.0000
  H   H2315     1.0  0.52579  0.01287  0.87316  1.0000
  H   H2316     1.0  0.74216  0.01136  0.68614  1.0000
  H   H2317     1.0  0.51928  0.95216  0.56728  1.0000
  H   H2318     1.0  0.53062  0.01104  0.81350  1.0000
  H   H2319     1.0  0.52380  0.98489  0.76903  1.0000
  H   H2320     1.0  0.54240  0.77982  0.76664  1.0000
  C   C1298     1.0  0.59124  0.01529  0.98887  1.0000
  H   H2321     1.0  0.63261  0.00093  0.98854  1.0000
  H   H2322     1.0  0.75834  0.59648  0.84440  1.0000
  H   H2323     1.0  0.75745  0.97032  0.67830  1.0000
  C   C1299     1.0  0.76529  0.90103  0.58528  1.0000
  H   H2324     1.0  0.76270  0.64305  0.83600  1.0000
  C   C1300     1.0  0.69769  0.52849  0.00197  1.0000
  H   H2325     1.0  0.52913  0.82880  0.73027  1.0000
  H   H2326     1.0  0.56025  0.01850  0.84484  1.0000
  C   C1301     1.0  0.62000  0.01778  0.97973  1.0000
  H   H2327     1.0  0.51604  0.80648  0.68914  1.0000
  H   H2328     1.0  0.62355  0.01871  0.95805  1.0000
  Fe  Fe145     1.0  0.88238  0.41245  0.31201  1.0000
  S   S289      1.0  0.85959  0.45183  0.30641  1.0000
  S   S290      1.0  0.92582  0.41004  0.30174  1.0000
  Fe  Fe146     1.0  0.83405  0.38611  0.33191  1.0000
  S   S291      1.0  0.80781  0.42371  0.32791  1.0000
  S   S292      1.0  0.81818  0.34913  0.35053  1.0000
  Fe  Fe147     1.0  0.83147  0.43089  0.28867  1.0000
  S   S293      1.0  0.81346  0.44859  0.25132  1.0000
  Fe  Fe148     1.0  0.83892  0.44009  0.34606  1.0000
  S   S294      1.0  0.83186  0.46808  0.37761  1.0000
  S   S295      1.0  0.85583  0.39207  0.29182  1.0000
  S   S296      1.0  0.86342  0.40195  0.35247  1.0000
  Fe  Fe149     1.0  0.95418  0.19070  0.35016  1.0000
  S   S297      1.0  0.94832  0.20544  0.38935  1.0000
  S   S298      1.0  0.99521  0.18628  0.32862  1.0000
  Fe  Fe150     1.0  0.89415  0.19234  0.34805  1.0000
  S   S299      1.0  0.88450  0.20780  0.38727  1.0000
  S   S300      1.0  0.86325  0.18492  0.32247  1.0000
  Fe  Fe151     1.0  0.91636  0.23340  0.37373  1.0000
  S   S301      1.0  0.91755  0.27489  0.38113  1.0000
  Fe  Fe152     1.0  0.91751  0.17830  0.39913  1.0000
  S   S302      1.0  0.91601  0.15493  0.43842  1.0000
  S   S303      1.0  0.92372  0.22073  0.33340  1.0000
  S   S304      1.0  0.92550  0.16076  0.36093  1.0000
  Fe  Fe153     1.0  0.82441  0.48558  0.06312  1.0000
  S   S305      1.0  0.84569  0.44507  0.06277  1.0000
  H   H2329     1.0  0.81991  0.20040  0.48968  1.0000
  C   C1302     1.0  0.94775  0.47618  0.51105  1.0000
  S   S306      1.0  0.78882  0.42488  0.07542  1.0000
  H   H2330     1.0  0.92120  0.42513  0.19732  1.0000
  Fe  Fe154     1.0  0.81812  0.43627  0.09928  1.0000
  S   S307      1.0  0.82813  0.41030  0.13652  1.0000
  Fe  Fe155     1.0  0.81384  0.43811  0.03890  1.0000
  H   H2331     1.0  0.84379  0.07385  0.34320  1.0000
  S   S308      1.0  0.79880  0.47722  0.10058  1.0000
  S   S309      1.0  0.79455  0.47938  0.03712  1.0000
  C   C1303     1.0  0.80049  0.33196  0.12564  1.0000
  C   C1304     1.0  0.82673  0.18028  0.48476  1.0000
  H   H2332     1.0  0.86858  0.30058  0.51772  1.0000
  H   H2333     1.0  0.97122  0.15891  0.44241  1.0000
  H   H2334     1.0  0.80944  0.16976  0.48434  1.0000
  H   H2335     1.0  0.78234  0.19425  0.38312  1.0000
  H   H2336     1.0  0.87080  0.34111  0.40458  1.0000
  C   C1305     1.0  0.79742  0.06651  0.32786  1.0000
  H   H2337     1.0  0.80951  0.10015  0.36720  1.0000
  H   H2338     1.0  0.95084  0.33131  0.49693  1.0000
  C   C1306     1.0  0.89829  0.51711  0.31430  1.0000
  H   H2339     1.0  0.77864  0.40213  0.46263  1.0000
  N   N73       1.0  0.94258  0.45388  0.46997  1.0000
  C   C1307     1.0  0.79763  0.39048  0.45737  1.0000
  H   H2340     1.0  0.81491  0.06544  0.31334  1.0000
  H   H2341     1.0  0.01272  0.36174  0.49726  1.0000
  C   C1308     1.0  0.82917  0.18535  0.33190  1.0000
  C   C1309     1.0  0.78069  0.11195  0.31083  1.0000
  H   H2342     1.0  0.87673  0.43713  0.12813  1.0000
  H   H2343     1.0  0.79502  0.29405  0.27855  1.0000
  H   H2344     1.0  0.91883  0.51659  0.17703  1.0000
  C   C1310     1.0  0.91481  0.17593  0.46273  1.0000
  H   H2345     1.0  0.98142  0.37905  0.50659  1.0000
  C   C1311     1.0  0.91697  0.16552  0.48864  1.0000
  H   H2346     1.0  0.90982  0.21127  0.43648  1.0000
  H   H2347     1.0  0.91953  0.14454  0.49354  1.0000
  C   C1312     1.0  0.81706  0.43694  0.21985  1.0000
  C   C1313     1.0  0.83072  0.41269  0.21490  1.0000
  C   C1314     1.0  0.83372  0.40475  0.18941  1.0000
  C   C1315     1.0  0.82328  0.42095  0.16848  1.0000
  C   C1316     1.0  0.80943  0.44508  0.17351  1.0000
  C   C1317     1.0  0.80628  0.45293  0.19901  1.0000
  H   H2348     1.0  0.83910  0.40012  0.23068  1.0000
  H   H2349     1.0  0.84446  0.38605  0.18581  1.0000
  H   H2350     1.0  0.80130  0.45784  0.15774  1.0000
  H   H2351     1.0  0.79575  0.47174  0.20254  1.0000
  C   C1318     1.0  0.83213  0.46219  0.41221  1.0000
  C   C1319     1.0  0.81684  0.48019  0.42729  1.0000
  C   C1320     1.0  0.81677  0.47778  0.45455  1.0000
  H   H2352     1.0  0.89579  0.48920  0.16302  1.0000
  C   C1321     1.0  0.84762  0.43906  0.45266  1.0000
  C   C1322     1.0  0.84771  0.44152  0.42496  1.0000
  H   H2353     1.0  0.80496  0.49637  0.41781  1.0000
  C   C1323     1.0  0.83948  0.09480  0.33589  1.0000
  H   H2354     1.0  0.86028  0.42800  0.41345  1.0000
  C   C1324     1.0  0.84544  0.32760  0.35847  1.0000
  C   C1325     1.0  0.87017  0.33247  0.34650  1.0000
  C   C1326     1.0  0.89222  0.31587  0.35319  1.0000
  C   C1327     1.0  0.88960  0.29428  0.37177  1.0000
  C   C1328     1.0  0.86484  0.28903  0.38349  1.0000
  C   C1329     1.0  0.84274  0.30593  0.37707  1.0000
  H   H2355     1.0  0.87241  0.34899  0.33195  1.0000
  H   H2356     1.0  0.91130  0.31975  0.34384  1.0000
  H   H2357     1.0  0.86284  0.27229  0.39791  1.0000
  H   H2358     1.0  0.82368  0.30224  0.38646  1.0000
  C   C1330     1.0  0.94214  0.41915  0.32652  1.0000
  C   C1331     1.0  0.92836  0.42692  0.34973  1.0000
  C   C1332     1.0  0.94188  0.43119  0.37048  1.0000
  C   C1333     1.0  0.96921  0.42816  0.36786  1.0000
  C   C1334     1.0  0.98293  0.42232  0.34398  1.0000
  C   C1335     1.0  0.96937  0.41781  0.32333  1.0000
  H   H2359     1.0  0.90733  0.42906  0.35198  1.0000
  H   H2360     1.0  0.93114  0.43617  0.38875  1.0000
  C   C1336     1.0  0.83526  0.27291  0.31972  1.0000
  H   H2361     1.0  0.97994  0.41296  0.30496  1.0000
  C   C1337     1.0  0.92749  0.48166  0.29138  1.0000
  H   H2362     1.0  0.92238  0.40446  0.49464  1.0000
  H   H2363     1.0  0.83958  0.28811  0.30330  1.0000
  H   H2364     1.0  0.89513  0.51322  0.42990  1.0000
  C   C1338     1.0  0.91028  0.21974  0.47611  1.0000
  H   H2365     1.0  0.77657  0.35308  0.28454  1.0000
  C   C1339     1.0  0.77911  0.28343  0.34481  1.0000
  C   C1340     1.0  0.91008  0.47196  0.43597  1.0000
  H   H2366     1.0  0.92559  0.44414  0.50958  1.0000
  H   H2367     1.0  0.92781  0.38806  0.23135  1.0000
  H   H2368     1.0  0.80458  0.02632  0.29461  1.0000
  H   H2369     1.0  0.96519  0.25620  0.42660  1.0000
  H   H2370     1.0  0.85937  0.42308  0.46241  1.0000
  H   H2371     1.0  0.99544  0.45075  0.48283  1.0000
  H   H2372     1.0  0.96595  0.48426  0.50220  1.0000
  H   H2373     1.0  0.89973  0.37850  0.46933  1.0000
  H   H2374     1.0  0.90282  0.45314  0.43381  1.0000
  H   H2375     1.0  0.86450  0.50746  0.19272  1.0000
  H   H2376     1.0  0.95999  0.41419  0.46598  1.0000
  C   C1341     1.0  0.81094  0.10489  0.34552  1.0000
  H   H2377     1.0  0.78319  0.33933  0.40270  1.0000
  H   H2378     1.0  0.86884  0.33359  0.43975  1.0000
  H   H2379     1.0  0.82281  0.39911  0.50007  1.0000
  C   C1342     1.0  0.91211  0.20934  0.50210  1.0000
  H   H2380     1.0  0.99525  0.31948  0.50783  1.0000
  C   C1343     1.0  0.89811  0.47015  0.17541  1.0000
  H   H2381     1.0  0.77145  0.43217  0.42754  1.0000
  H   H2382     1.0  0.83453  0.30636  0.13683  1.0000
  H   H2383     1.0  0.94364  0.35434  0.52003  1.0000
  H   H2384     1.0  0.00991  0.23106  0.45893  1.0000
  C   C1344     1.0  0.91942  0.51099  0.29135  1.0000
  C   C1345     1.0  0.91486  0.51645  0.19858  1.0000
  C   C1346     1.0  0.81295  0.30674  0.13969  1.0000
  C   C1347     1.0  0.84735  0.37074  0.42639  1.0000
  H   H2385     1.0  0.84886  0.37958  0.44454  1.0000
  H   H2386     1.0  0.78144  0.28903  0.39715  1.0000
  C   C1348     1.0  0.81804  0.18962  0.35722  1.0000
  H   H2387     1.0  0.80827  0.33251  0.10469  1.0000
  H   H2388     1.0  0.84971  0.38585  0.40954  1.0000
  H   H2389     1.0  0.85735  0.19450  0.45597  1.0000
  C   C1349     1.0  0.94211  0.42716  0.46134  1.0000
  H   H2390     1.0  0.85903  0.33420  0.50626  1.0000
  H   H2391     1.0  0.90326  0.34555  0.51104  1.0000
  H   H2392     1.0  0.85694  0.23920  0.33940  1.0000
  S   S310      1.0  0.98572  0.43020  0.39509  1.0000
  H   H2393     1.0  0.78338  0.44620  0.38012  1.0000
  H   H2394     1.0  0.94269  0.42838  0.43964  1.0000
  H   H2395     1.0  0.76906  0.37156  0.03502  1.0000
  H   H2396     1.0  0.84313  0.09667  0.31429  1.0000
  H   H2397     1.0  0.80924  0.09527  0.28038  1.0000
  C   C1350     1.0  0.99822  0.30077  0.34093  1.0000
  H   H2398     1.0  0.78159  0.15064  0.26844  1.0000
  C   C1351     1.0  0.00274  0.15613  0.41089  1.0000
  C   C1352     1.0  0.84083  0.18256  0.45705  1.0000
  H   H2399     1.0  0.83118  0.28245  0.33790  1.0000
  C   C1353     1.0  0.98866  0.20604  0.43900  1.0000
  H   H2400     1.0  0.88934  0.46836  0.12396  1.0000
  C   C1354     1.0  0.91166  0.20306  0.45644  1.0000
  H   H2401     1.0  0.79029  0.29976  0.34757  1.0000
  C   C1355     1.0  0.89056  0.44866  0.22100  1.0000
  C   C1356     1.0  0.82104  0.35933  0.42688  1.0000
  H   H2402     1.0  0.80415  0.13223  0.24646  1.0000
  C   C1357     1.0  0.77429  0.18732  0.34476  1.0000
  C   C1358     1.0  0.91505  0.42841  0.21801  1.0000
  H   H2403     1.0  0.87136  0.49221  0.44585  1.0000
  H   H2404     1.0  0.90353  0.40401  0.25372  1.0000
  H   H2405     1.0  0.87318  0.43937  0.21778  1.0000
  C   C1359     1.0  0.91297  0.48820  0.21199  1.0000
  H   H2406     1.0  0.86358  0.17440  0.50159  1.0000
  H   H2407     1.0  0.81554  0.50485  0.23038  1.0000
  H   H2408     1.0  0.81190  0.40512  0.45397  1.0000
  H   H2409     1.0  0.85029  0.14547  0.49814  1.0000
  H   H2410     1.0  0.94241  0.47787  0.27464  1.0000
  H   H2411     1.0  0.96562  0.46588  0.43393  1.0000
  H   H2412     1.0  0.91897  0.46251  0.17108  1.0000
  H   H2413     1.0  0.81723  0.12504  0.29126  1.0000
  H   H2414     1.0  0.88882  0.35800  0.42371  1.0000
  H   H2415     1.0  0.86511  0.24366  0.30424  1.0000
  H   H2416     1.0  0.80483  0.49215  0.46567  1.0000
  H   H2417     1.0  0.92082  0.49232  0.46651  1.0000
  H   H2418     1.0  0.80700  0.34859  0.13389  1.0000
  C   C1360     1.0  0.87030  0.34948  0.42344  1.0000
  H   H2419     1.0  0.82110  0.17850  0.29352  1.0000
  C   C1361     1.0  0.85898  0.10979  0.34623  1.0000
  C   C1362     1.0  0.81183  0.25893  0.31478  1.0000
  H   H2420     1.0  0.82127  0.34128  0.44087  1.0000
  H   H2421     1.0  0.87922  0.10190  0.33950  1.0000
  H   H2422     1.0  0.84848  0.16294  0.45100  1.0000
  C   C1363     1.0  0.95411  0.33463  0.51713  1.0000
  H   H2423     1.0  0.79574  0.39011  0.39133  1.0000
  C   C1364     1.0  0.76967  0.41888  0.41264  1.0000
  C   C1365     1.0  0.99134  0.36105  0.49845  1.0000
  H   H2424     1.0  0.77221  0.33592  0.25709  1.0000
  H   H2425     1.0  0.88752  0.45195  0.24205  1.0000
  C   C1366     1.0  0.91617  0.38902  0.45942  1.0000
  H   H2426     1.0  0.90747  0.24070  0.47119  1.0000
  C   C1367     1.0  0.76609  0.09358  0.35495  1.0000
  H   H2427     1.0  0.99983  0.35701  0.39542  1.0000
  H   H2428     1.0  0.91190  0.39597  0.43906  1.0000
  N   N74       1.0  0.78920  0.09425  0.33426  1.0000
  H   H2429     1.0  0.83042  0.19241  0.37184  1.0000
  C   C1368     1.0  0.87583  0.31877  0.50748  1.0000
  H   H2430     1.0  0.79980  0.31227  0.30402  1.0000
  H   H2431     1.0  0.96753  0.18249  0.48182  1.0000
  H   H2432     1.0  0.77286  0.12104  0.25796  1.0000
  C   C1369     1.0  0.85023  0.51250  0.10806  1.0000
  C   C1370     1.0  0.78641  0.29917  0.29828  1.0000
  C   C1371     1.0  0.80358  0.37169  0.48212  1.0000
  H   H2433     1.0  0.81155  0.24023  0.32772  1.0000
  H   H2434     1.0  0.80341  0.05413  0.34574  1.0000
  H   H2435     1.0  0.78031  0.38539  0.12802  1.0000
  C   C1372     1.0  0.91567  0.18223  0.50826  1.0000
  C   C1373     1.0  0.91901  0.41217  0.47423  1.0000
  H   H2436     1.0  0.80469  0.25545  0.36852  1.0000
  C   C1374     1.0  0.98963  0.13546  0.40005  1.0000
  H   H2437     1.0  0.98697  0.30435  0.32355  1.0000
  H   H2438     1.0  0.87084  0.51283  0.36338  1.0000
  H   H2439     1.0  0.98793  0.30759  0.39624  1.0000
  H   H2440     1.0  0.92659  0.47496  0.42069  1.0000
  C   C1375     1.0  0.86553  0.49013  0.20744  1.0000
  C   C1376     1.0  0.84500  0.16535  0.50453  1.0000
  C   C1377     1.0  0.90976  0.40196  0.23275  1.0000
  C   C1378     1.0  0.83214  0.45741  0.46756  1.0000
  H   H2441     1.0  0.84994  0.47872  0.20344  1.0000
  C   C1379     1.0  0.85987  0.25386  0.32217  1.0000
  C   C1380     1.0  0.78547  0.18276  0.31954  1.0000
  H   H2442     1.0  0.91176  0.51814  0.27238  1.0000
  H   H2443     1.0  0.82714  0.19223  0.44301  1.0000
  C   C1381     1.0  0.91832  0.47178  0.46389  1.0000
  C   C1382     1.0  0.98921  0.17887  0.48062  1.0000
  H   H2444     1.0  0.88236  0.43230  0.17534  1.0000
  C   C1383     1.0  0.99607  0.15262  0.49738  1.0000
  N   N75       1.0  0.99393  0.32452  0.35599  1.0000
  H   H2445     1.0  0.77740  0.33758  0.02993  1.0000
  H   H2446     1.0  0.77161  0.12993  0.37186  1.0000
  H   H2447     1.0  0.98595  0.36075  0.47835  1.0000
  C   C1384     1.0  0.96504  0.33349  0.35814  1.0000
  C   C1385     1.0  0.95547  0.35620  0.37491  1.0000
  H   H2448     1.0  0.93608  0.47371  0.30972  1.0000
  C   C1386     1.0  0.99067  0.27470  0.35637  1.0000
  H   H2449     1.0  0.90123  0.46715  0.47811  1.0000
  C   C1387     1.0  0.92621  0.36397  0.37424  1.0000
  H   H2450     1.0  0.88425  0.31511  0.48733  1.0000
  H   H2451     1.0  0.00653  0.26567  0.36824  1.0000
  H   H2452     1.0  0.91083  0.48875  0.23357  1.0000
  C   C1388     1.0  0.99292  0.15826  0.44010  1.0000
  Fe  Fe156     1.0  0.77131  0.46644  0.07455  1.0000
  H   H2453     1.0  0.99396  0.11596  0.41101  1.0000
  N   N76       1.0  0.89182  0.47425  0.20398  1.0000
  H   H2454     1.0  0.96815  0.14072  0.40134  1.0000
  H   H2455     1.0  0.95834  0.33905  0.33840  1.0000
  H   H2456     1.0  0.95368  0.31716  0.36671  1.0000
  H   H2457     1.0  0.96562  0.37361  0.36771  1.0000
  H   H2458     1.0  0.95857  0.35012  0.39569  1.0000
  H   H2459     1.0  0.96957  0.26251  0.32668  1.0000
  C   C1389     1.0  0.79442  0.39880  0.41021  1.0000
  H   H2460     1.0  0.97272  0.27757  0.36997  1.0000
  H   H2461     1.0  0.84903  0.49222  0.10593  1.0000
  H   H2462     1.0  0.93433  0.37523  0.45895  1.0000
  H   H2463     1.0  0.88026  0.50896  0.31083  1.0000
  H   H2464     1.0  0.91531  0.34723  0.38235  1.0000
  H   H2465     1.0  0.91969  0.38042  0.38625  1.0000
  H   H2466     1.0  0.92156  0.37021  0.35387  1.0000
  H   H2467     1.0  0.99625  0.43186  0.45564  1.0000
  H   H2468     1.0  0.85107  0.21468  0.51448  1.0000
  C   C1390     1.0  0.80118  0.11458  0.28673  1.0000
  H   H2469     1.0  0.88123  0.49204  0.41134  1.0000
  S   S311      1.0  0.83103  0.45702  0.50217  1.0000
  C   C1391     1.0  0.77260  0.27137  0.39404  1.0000
  C   C1392     1.0  0.79077  0.19062  0.36356  1.0000
  C   C1393     1.0  0.88993  0.44902  0.13580  1.0000
  H   H2470     1.0  0.93158  0.43513  0.22623  1.0000
  H   H2471     1.0  0.99544  0.19443  0.49082  1.0000
  N   N77       1.0  0.78559  0.27501  0.31758  1.0000
  H   H2472     1.0  0.93239  0.47702  0.20750  1.0000
  H   H2473     1.0  0.79948  0.35439  0.04449  1.0000
  H   H2474     1.0  0.89425  0.39374  0.22425  1.0000
  C   C1394     1.0  0.85721  0.49964  0.23483  1.0000
  C   C1395     1.0  0.99037  0.23100  0.45230  1.0000
  H   H2475     1.0  0.80891  0.12669  0.34223  1.0000
  H   H2476     1.0  0.98180  0.23655  0.34962  1.0000
  C   C1396     1.0  0.96596  0.46574  0.45538  1.0000
  H   H2477     1.0  0.99863  0.17470  0.39847  1.0000
  H   H2478     1.0  0.77709  0.25581  0.41005  1.0000
  C   C1397     1.0  0.99314  0.45193  0.46169  1.0000
  C   C1398     1.0  0.98461  0.25577  0.43382  1.0000
  H   H2479     1.0  0.78633  0.36990  0.08792  1.0000
  H   H2480     1.0  0.80756  0.28939  0.13168  1.0000
  C   C1399     1.0  0.98380  0.33670  0.51605  1.0000
  H   H2481     1.0  0.96516  0.48671  0.45850  1.0000
  C   C1400     1.0  0.94393  0.45099  0.49912  1.0000
  C   C1401     1.0  0.77363  0.36205  0.43677  1.0000
  C   C1402     1.0  0.77028  0.33309  0.12895  1.0000
  H   H2482     1.0  0.80663  0.30562  0.16102  1.0000
  H   H2483     1.0  0.76830  0.26620  0.26941  1.0000
  H   H2484     1.0  0.96747  0.20493  0.43827  1.0000
  H   H2485     1.0  0.85663  0.10796  0.36796  1.0000
  N   N78       1.0  0.00083  0.18077  0.45234  1.0000
  H   H2486     1.0  0.85617  0.13077  0.33872  1.0000
  H   H2487     1.0  0.90028  0.42489  0.47494  1.0000
  H   H2488     1.0  0.99697  0.13424  0.37913  1.0000
  H   H2489     1.0  0.81646  0.25295  0.29467  1.0000
  H   H2490     1.0  0.86041  0.46059  0.16608  1.0000
  H   H2491     1.0  0.82118  0.35235  0.40735  1.0000
  N   N79       1.0  0.79671  0.37770  0.43282  1.0000
  C   C1403     1.0  0.01501  0.46674  0.44693  1.0000
  H   H2492     1.0  0.98485  0.13735  0.49226  1.0000
  H   H2493     1.0  0.82202  0.35876  0.47874  1.0000
  H   H2494     1.0  0.84954  0.50609  0.14994  1.0000
  H   H2495     1.0  0.98450  0.36319  0.31079  1.0000
  H   H2496     1.0  0.99703  0.32579  0.43604  1.0000
  C   C1404     1.0  0.77681  0.05270  0.31684  1.0000
  C   C1405     1.0  0.88111  0.45215  0.16461  1.0000
  C   C1406     1.0  0.81272  0.18174  0.31319  1.0000
  C   C1407     1.0  0.88813  0.49373  0.43052  1.0000
  C   C1408     1.0  0.00450  0.35305  0.31196  1.0000
  H   H2497     1.0  0.77308  0.18058  0.30475  1.0000
  C   C1409     1.0  0.00336  0.31679  0.38271  1.0000
  C   C1410     1.0  0.98637  0.25507  0.33796  1.0000
  H   H2498     1.0  0.00395  0.42097  0.34150  1.0000
  H   H2499     1.0  0.91008  0.43892  0.13350  1.0000
  C   C1411     1.0  0.01298  0.33853  0.39632  1.0000
  H   H2500     1.0  0.87633  0.26471  0.32496  1.0000
  H   H2501     1.0  0.95962  0.43540  0.50473  1.0000
  H   H2502     1.0  0.77039  0.06382  0.29864  1.0000
  H   H2503     1.0  0.85552  0.48287  0.25008  1.0000
  H   H2504     1.0  0.81131  0.41046  0.40785  1.0000
  H   H2505     1.0  0.77049  0.43103  0.13411  1.0000
  C   C1412     1.0  0.78912  0.13061  0.26354  1.0000
  H   H2506     1.0  0.97379  0.28532  0.50051  1.0000
  H   H2507     1.0  0.91049  0.47124  0.28952  1.0000
  H   H2508     1.0  0.87142  0.51184  0.24015  1.0000
  H   H2509     1.0  0.97556  0.23190  0.46964  1.0000
  H   H2510     1.0  0.77087  0.07880  0.37165  1.0000
  C   C1413     1.0  0.83069  0.51617  0.23550  1.0000
  H   H2511     1.0  0.98452  0.27327  0.44433  1.0000
  C   C1414     1.0  0.80633  0.38700  0.50497  1.0000
  C   C1415     1.0  0.78798  0.02529  0.31021  1.0000
  C   C1416     1.0  0.78354  0.26173  0.36772  1.0000
  H   H2512     1.0  0.78419  0.23509  0.28175  1.0000
  H   H2513     1.0  0.99984  0.25663  0.41687  1.0000
  H   H2514     1.0  0.00027  0.13921  0.45035  1.0000
  H   H2515     1.0  0.78752  0.35926  0.48821  1.0000
  H   H2516     1.0  0.92480  0.29809  0.50746  1.0000
  C   C1417     1.0  0.00961  0.34516  0.34094  1.0000
  C   C1418     1.0  0.76684  0.24962  0.28491  1.0000
  C   C1419     1.0  0.96911  0.27310  0.51916  1.0000
  H   H2517     1.0  0.99688  0.20931  0.41827  1.0000
  H   H2518     1.0  0.77479  0.13212  0.31615  1.0000
  H   H2519     1.0  0.95606  0.51703  0.20291  1.0000
  H   H2520     1.0  0.77498  0.32493  0.07749  1.0000
  H   H2521     1.0  0.78815  0.40000  0.50981  1.0000
  H   H2522     1.0  0.01364  0.48679  0.45290  1.0000
  H   H2523     1.0  0.77720  0.34473  0.45131  1.0000
  H   H2524     1.0  0.93103  0.49137  0.50804  1.0000
  H   H2525     1.0  0.95278  0.26201  0.51660  1.0000
  H   H2526     1.0  0.00682  0.33594  0.30058  1.0000
  H   H2527     1.0  0.00628  0.36356  0.35046  1.0000
  H   H2528     1.0  0.00412  0.25089  0.32422  1.0000
  H   H2529     1.0  0.77375  0.24440  0.36566  1.0000
  H   H2530     1.0  0.99731  0.24072  0.50798  1.0000
  H   H2531     1.0  0.01409  0.46791  0.42548  1.0000
  H   H2532     1.0  0.90462  0.50511  0.33224  1.0000
  C   C1420     1.0  0.77856  0.35250  0.04335  1.0000
  C   C1421     1.0  0.76603  0.43574  0.38683  1.0000
  C   C1422     1.0  0.76644  0.35167  0.41190  1.0000
  Fe  Fe157     1.0  0.95135  0.18132  0.60320  1.0000
  S   S312      1.0  0.94256  0.22345  0.58843  1.0000
  S   S313      1.0  0.99418  0.16591  0.59323  1.0000
  Fe  Fe158     1.0  0.89175  0.17428  0.61402  1.0000
  S   S314      1.0  0.88000  0.21570  0.59939  1.0000
  S   S315      1.0  0.85876  0.14832  0.62671  1.0000
  Fe  Fe159     1.0  0.91239  0.21034  0.56720  1.0000
  H   H2533     1.0  0.90291  0.45124  0.01367  1.0000
  Fe  Fe160     1.0  0.91140  0.22505  0.62196  1.0000
  S   S316      1.0  0.90495  0.26096  0.64338  1.0000
  S   S317      1.0  0.92231  0.16781  0.57987  1.0000
  S   S318      1.0  0.92186  0.18366  0.63908  1.0000
  Fe  Fe161     1.0  0.89701  0.40769  0.56014  1.0000
  S   S319      1.0  0.87554  0.44783  0.56144  1.0000
  S   S320      1.0  0.94020  0.39957  0.54982  1.0000
  Fe  Fe162     1.0  0.84785  0.38171  0.57171  1.0000
  S   S321      1.0  0.82216  0.41951  0.57380  1.0000
  S   S322      1.0  0.83358  0.34239  0.57597  1.0000
  Fe  Fe163     1.0  0.84776  0.43317  0.53754  1.0000
  H   H2534     1.0  0.78975  0.16111  0.57301  1.0000
  Fe  Fe164     1.0  0.85240  0.43003  0.59766  1.0000
  S   S323      1.0  0.84204  0.45093  0.63491  1.0000
  N   N80       1.0  0.83419  0.16370  0.53299  1.0000
  S   S324      1.0  0.87630  0.39093  0.59768  1.0000
  Fe  Fe165     1.0  0.78729  0.42907  0.83478  1.0000
  S   S325      1.0  0.82535  0.40376  0.83048  1.0000
  H   H2535     1.0  0.85007  0.15349  0.57033  1.0000
  Fe  Fe166     1.0  0.81245  0.47853  0.81819  1.0000
  S   S326      1.0  0.85258  0.45693  0.81262  1.0000
  C   C1423     1.0  0.77512  0.40125  0.71126  1.0000
  Fe  Fe167     1.0  0.83312  0.42939  0.79250  1.0000
  S   S327      1.0  0.84920  0.40944  0.75567  1.0000
  Fe  Fe168     1.0  0.84045  0.43377  0.85100  1.0000
  S   S328      1.0  0.86431  0.42561  0.88584  1.0000
  S   S329      1.0  0.79359  0.45267  0.79578  1.0000
  S   S330      1.0  0.80194  0.45736  0.85738  1.0000
  C   C1424     1.0  0.84898  0.42433  0.91859  1.0000
  C   C1425     1.0  0.86448  0.42134  0.93949  1.0000
  C   C1426     1.0  0.85304  0.42020  0.96570  1.0000
  H   H2536     1.0  0.93140  0.46328  0.55061  1.0000
  C   C1427     1.0  0.81041  0.42451  0.95047  1.0000
  C   C1428     1.0  0.82181  0.42607  0.92428  1.0000
  H   H2537     1.0  0.88550  0.41957  0.93541  1.0000
  H   H2538     1.0  0.86526  0.41701  0.98156  1.0000
  H   H2539     1.0  0.80960  0.42787  0.90853  1.0000
  H   H2540     1.0  0.86619  0.19051  0.66182  1.0000
  C   C1429     1.0  0.98883  0.15526  0.52653  1.0000
  H   H2541     1.0  0.86200  0.46629  0.99485  1.0000
  H   H2542     1.0  0.80699  0.19905  0.53264  1.0000
  C   C1430     1.0  0.79889  0.14259  0.56551  1.0000
  C   C1431     1.0  0.77936  0.14756  0.63807  1.0000
  H   H2543     1.0  0.96809  0.31411  0.58383  1.0000
  C   C1432     1.0  0.00187  0.24931  0.63281  1.0000
  C   C1433     1.0  0.84422  0.43879  0.66835  1.0000
  C   C1434     1.0  0.85190  0.41246  0.67625  1.0000
  C   C1435     1.0  0.85287  0.40377  0.70306  1.0000
  C   C1436     1.0  0.84647  0.42126  0.72230  1.0000
  C   C1437     1.0  0.83906  0.44759  0.71440  1.0000
  C   C1438     1.0  0.83776  0.45622  0.68763  1.0000
  H   H2544     1.0  0.85694  0.39880  0.66169  1.0000
  H   H2545     1.0  0.85868  0.38336  0.70892  1.0000
  H   H2546     1.0  0.83444  0.46139  0.72886  1.0000
  H   H2547     1.0  0.83190  0.47663  0.68175  1.0000
  C   C1439     1.0  0.82452  0.15822  0.62708  1.0000
  H   H2548     1.0  0.82814  0.19718  0.60883  1.0000
  C   C1440     1.0  0.88799  0.28550  0.62365  1.0000
  C   C1441     1.0  0.87705  0.30893  0.63340  1.0000
  C   C1442     1.0  0.86065  0.32687  0.61854  1.0000
  C   C1443     1.0  0.85504  0.32112  0.59417  1.0000
  C   C1444     1.0  0.86677  0.29820  0.58414  1.0000
  C   C1445     1.0  0.88380  0.28086  0.59853  1.0000
  H   H2549     1.0  0.88068  0.31289  0.65262  1.0000
  H   H2550     1.0  0.85165  0.34469  0.62631  1.0000
  H   H2551     1.0  0.86288  0.29391  0.56513  1.0000
  H   H2552     1.0  0.89389  0.26406  0.58992  1.0000
  H   H2553     1.0  0.85874  0.22855  0.68902  1.0000
  C   C1446     1.0  0.78367  0.40284  0.66174  1.0000
  N   N81       1.0  0.85684  0.50637  0.95059  1.0000
  H   H2554     1.0  0.99308  0.13606  0.53810  1.0000
  H   H2555     1.0  0.89732  0.47773  0.76349  1.0000
  C   C1447     1.0  0.84532  0.21064  0.53577  1.0000
  C   C1448     1.0  0.98256  0.41145  0.61912  1.0000
  C   C1449     1.0  0.95554  0.41797  0.61969  1.0000
  C   C1450     1.0  0.94254  0.41466  0.59830  1.0000
  C   C1451     1.0  0.95651  0.40473  0.57619  1.0000
  C   C1452     1.0  0.98355  0.39851  0.57533  1.0000
  H   H2556     1.0  0.00569  0.24202  0.61324  1.0000
  H   H2557     1.0  0.94452  0.42559  0.63664  1.0000
  H   H2558     1.0  0.92170  0.41994  0.59894  1.0000
  H   H2559     1.0  0.99445  0.39101  0.55816  1.0000
  C   C1453     1.0  0.90876  0.48600  0.77671  1.0000
  H   H2560     1.0  0.81985  0.33746  0.70315  1.0000
  H   H2561     1.0  0.98644  0.21314  0.65018  1.0000
  C   C1454     1.0  0.78204  0.49866  0.95944  1.0000
  C   C1455     1.0  0.85826  0.49242  0.90381  1.0000
  H   H2562     1.0  0.86307  0.20339  0.54554  1.0000
  H   H2563     1.0  0.83033  0.26632  0.69869  1.0000
  H   H2564     1.0  0.78027  0.20987  0.60976  1.0000
  C   C1456     1.0  0.87882  0.48591  0.95768  1.0000
  H   H2565     1.0  0.82559  0.30594  0.72166  1.0000
  H   H2566     1.0  0.81679  0.24525  0.53646  1.0000
  C   C1457     1.0  0.86025  0.51419  0.92146  1.0000
  H   H2567     1.0  0.78939  0.25478  0.69983  1.0000
  C   C1458     1.0  0.90361  0.45813  0.99247  1.0000
  S   S331      1.0  0.90938  0.23052  0.52656  1.0000
  H   H2568     1.0  0.87054  0.11803  0.52622  1.0000
  H   H2569     1.0  0.84987  0.31696  0.69600  1.0000
  H   H2570     1.0  0.91725  0.17404  0.52809  1.0000
  H   H2571     1.0  0.84882  0.27758  0.66954  1.0000
  N   N82       1.0  0.93652  0.41424  0.72316  1.0000
  C   C1459     1.0  0.94527  0.39575  0.70251  1.0000
  C   C1460     1.0  0.96009  0.42570  0.72949  1.0000
  C   C1461     1.0  0.92374  0.39897  0.74687  1.0000
  C   C1462     1.0  0.91705  0.43626  0.71358  1.0000
  C   C1463     1.0  0.92736  0.45450  0.68964  1.0000
  C   C1464     1.0  0.92343  0.38740  0.68828  1.0000
  C   C1465     1.0  0.91574  0.41386  0.77146  1.0000
  H   H2572     1.0  0.78905  0.21243  0.68368  1.0000
  H   H2573     1.0  0.88631  0.33328  0.54143  1.0000
  C   C1466     1.0  0.90503  0.47039  0.67615  1.0000
  C   C1467     1.0  0.93418  0.36602  0.67065  1.0000
  C   C1468     1.0  0.90666  0.39540  0.79514  1.0000
  H   H2574     1.0  0.95613  0.37754  0.71114  1.0000
  H   H2575     1.0  0.95958  0.40418  0.68718  1.0000
  H   H2576     1.0  0.97062  0.43459  0.71119  1.0000
  H   H2577     1.0  0.95410  0.44222  0.74161  1.0000
  H   H2578     1.0  0.93648  0.38081  0.75262  1.0000
  H   H2579     1.0  0.90560  0.39202  0.74210  1.0000
  H   H2580     1.0  0.89910  0.42859  0.70933  1.0000
  H   H2581     1.0  0.91010  0.44924  0.72913  1.0000
  H   H2582     1.0  0.93983  0.44350  0.67493  1.0000
  H   H2583     1.0  0.93934  0.46840  0.69614  1.0000
  H   H2584     1.0  0.90777  0.37973  0.70244  1.0000
  H   H2585     1.0  0.91470  0.40425  0.67566  1.0000
  H   H2586     1.0  0.89925  0.42916  0.76800  1.0000
  H   H2587     1.0  0.93209  0.42322  0.77690  1.0000
  H   H2588     1.0  0.81664  0.12887  0.52848  1.0000
  H   H2589     1.0  0.01143  0.45956  0.59008  1.0000
  H   H2590     1.0  0.83226  0.47510  0.95275  1.0000
  S   S332      1.0  0.87102  0.39434  0.53408  1.0000
  C   C1469     1.0  0.87919  0.47682  0.98735  1.0000
  C   C1470     1.0  0.85119  0.19139  0.67893  1.0000
  H   H2591     1.0  0.81265  0.37364  0.78669  1.0000
  H   H2592     1.0  0.96635  0.45585  0.54452  1.0000
  H   H2593     1.0  0.95045  0.37253  0.65644  1.0000
  H   H2594     1.0  0.94132  0.34785  0.68251  1.0000
  H   H2595     1.0  0.91848  0.36161  0.65954  1.0000
  H   H2596     1.0  0.88995  0.38560  0.79099  1.0000
  H   H2597     1.0  0.96251  0.23817  0.63776  1.0000
  H   H2598     1.0  0.89140  0.48131  0.69030  1.0000
  H   H2599     1.0  0.87896  0.49347  0.99905  1.0000
  C   C1471     1.0  0.85559  0.15109  0.54923  1.0000
  C   C1472     1.0  0.98028  0.23453  0.64822  1.0000
  H   H2600     1.0  0.91298  0.48461  0.66037  1.0000
  H   H2601     1.0  0.95687  0.34527  0.61670  1.0000
  H   H2602     1.0  0.87342  0.16123  0.54393  1.0000
  C   C1473     1.0  0.85866  0.50348  0.87508  1.0000
  H   H2603     1.0  0.81385  0.12080  0.64499  1.0000
  C   C1474     1.0  0.84193  0.21976  0.68352  1.0000
  C   C1475     1.0  0.83134  0.49507  0.95890  1.0000
  H   H2604     1.0  0.89256  0.09047  0.56111  1.0000
  H   H2605     1.0  0.89417  0.45728  0.66707  1.0000
  H   H2606     1.0  0.83458  0.18114  0.67534  1.0000
  C   C1476     1.0  0.77946  0.36316  0.96750  1.0000
  H   H2607     1.0  0.91114  0.28959  0.54001  1.0000
  N   N83       1.0  0.94256  0.31421  0.53702  1.0000
  H   H2608     1.0  0.77932  0.49726  0.98114  1.0000
  H   H2609     1.0  0.82980  0.28123  0.62730  1.0000
  C   C1477     1.0  0.80661  0.14034  0.63736  1.0000
  H   H2610     1.0  0.00033  0.16947  0.53319  1.0000
  C   C1478     1.0  0.79334  0.36606  0.79106  1.0000
  H   H2611     1.0  0.84005  0.48302  0.90909  1.0000
  C   C1479     1.0  0.00412  0.41982  0.74744  1.0000
  H   H2612     1.0  0.81030  0.37325  0.52256  1.0000
  H   H2613     1.0  0.90479  0.44084  0.98140  1.0000
  H   H2614     1.0  0.80776  0.24405  0.61340  1.0000
  C   C1480     1.0  0.86422  0.12164  0.54681  1.0000
  C   C1481     1.0  0.79670  0.28038  0.59135  1.0000
  H   H2615     1.0  0.00822  0.16193  0.64676  1.0000
  H   H2616     1.0  0.79417  0.40937  0.71005  1.0000
  H   H2617     1.0  0.77669  0.26112  0.62508  1.0000
  C   C1482     1.0  0.82509  0.19049  0.54144  1.0000
  H   H2618     1.0  0.92233  0.51769  0.75021  1.0000
  H   H2619     1.0  0.87505  0.47706  0.90541  1.0000
  C   C1483     1.0  0.98063  0.40624  0.74322  1.0000
  H   H2620     1.0  0.89805  0.49253  0.94972  1.0000
  H   H2621     1.0  0.78023  0.37972  0.71255  1.0000
  H   H2622     1.0  0.84964  0.24027  0.64520  1.0000
  H   H2623     1.0  0.95273  0.27702  0.55899  1.0000
  H   H2624     1.0  0.01150  0.45206  0.55692  1.0000
  H   H2625     1.0  0.87795  0.46805  0.94810  1.0000
  H   H2626     1.0  0.89972  0.48259  0.79717  1.0000
  H   H2627     1.0  0.88194  0.11463  0.58357  1.0000
  H   H2628     1.0  0.96451  0.34763  0.56919  1.0000
  H   H2629     1.0  0.79151  0.38185  0.66363  1.0000
  H   H2630     1.0  0.99007  0.33769  0.53552  1.0000
  C   C1484     1.0  0.81125  0.14789  0.53682  1.0000
  H   H2631     1.0  0.77275  0.50611  0.85757  1.0000
  C   C1485     1.0  0.90971  0.51524  0.76905  1.0000
  H   H2632     1.0  0.92014  0.34404  0.55926  1.0000
  C   C1486     1.0  0.82860  0.31690  0.70196  1.0000
  H   H2633     1.0  0.85989  0.18099  0.69638  1.0000
  C   C1487     1.0  0.79728  0.26328  0.61749  1.0000
  H   H2634     1.0  0.81680  0.28218  0.58190  1.0000
  C   C1488     1.0  0.94152  0.34019  0.60556  1.0000
  H   H2635     1.0  0.84931  0.25055  0.54198  1.0000
  C   C1489     1.0  0.82590  0.42174  0.97136  1.0000
  H   H2636     1.0  0.93144  0.32432  0.61733  1.0000
  C   C1490     1.0  0.96131  0.29001  0.54228  1.0000
  H   H2637     1.0  0.92075  0.31174  0.57527  1.0000
  H   H2638     1.0  0.81941  0.18902  0.56288  1.0000
  H   H2639     1.0  0.78315  0.47880  0.95304  1.0000
  H   H2640     1.0  0.92729  0.35780  0.60251  1.0000
  C   C1491     1.0  0.88719  0.11170  0.56259  1.0000
  H   H2641     1.0  0.96771  0.16188  0.53056  1.0000
  H   H2642     1.0  0.85733  0.48751  0.86291  1.0000
  C   C1492     1.0  0.81475  0.18333  0.61715  1.0000
  H   H2643     1.0  0.78950  0.42506  0.95462  1.0000
  C   C1493     1.0  0.78833  0.25541  0.67839  1.0000
  H   H2644     1.0  0.82913  0.23374  0.56760  1.0000
  H   H2645     1.0  0.87701  0.51234  0.86830  1.0000
  H   H2646     1.0  0.90017  0.40668  0.81217  1.0000
  C   C1494     1.0  0.93301  0.32539  0.56261  1.0000
  H   H2647     1.0  0.78599  0.27136  0.57802  1.0000
  H   H2648     1.0  0.77453  0.40736  0.64314  1.0000
  H   H2649     1.0  0.77893  0.49623  0.72228  1.0000
  C   C1495     1.0  0.77223  0.45542  0.72616  1.0000
  H   H2650     1.0  0.92886  0.47573  0.77553  1.0000
  N   N84       1.0  0.81433  0.26044  0.66323  1.0000
  C   C1496     1.0  0.95398  0.33143  0.57931  1.0000
  H   H2651     1.0  0.76830  0.38976  0.93477  1.0000
  C   C1497     1.0  0.83433  0.23662  0.54611  1.0000
  H   H2652     1.0  0.97518  0.24125  0.66797  1.0000
  H   H2653     1.0  0.97226  0.39791  0.76269  1.0000
  C   C1498     1.0  0.83198  0.23566  0.65862  1.0000
  H   H2654     1.0  0.82250  0.22252  0.64826  1.0000
  H   H2655     1.0  0.78111  0.45350  0.70579  1.0000
  H   H2656     1.0  0.79831  0.29490  0.63978  1.0000
  C   C1499     1.0  0.99653  0.40184  0.59679  1.0000
  C   C1500     1.0  0.81577  0.30465  0.68197  1.0000
  C   C1501     1.0  0.76964  0.17282  0.62845  1.0000
  C   C1502     1.0  0.78757  0.19050  0.61774  1.0000
  H   H2657     1.0  0.82766  0.49241  0.98063  1.0000
  H   H2658     1.0  0.99789  0.43648  0.75928  1.0000
  C   C1503     1.0  0.81059  0.27608  0.63714  1.0000
  H   H2659     1.0  0.79460  0.30502  0.68850  1.0000
  H   H2660     1.0  0.78672  0.30024  0.59412  1.0000
  H   H2661     1.0  0.81351  0.13331  0.57869  1.0000
  H   H2662     1.0  0.78767  0.45007  0.73943  1.0000
  C   C1504     1.0  0.80675  0.51135  0.94885  1.0000
  H   H2663     1.0  0.97956  0.29500  0.54865  1.0000
  H   H2664     1.0  0.92282  0.38033  0.80046  1.0000
  H   H2665     1.0  0.82659  0.21983  0.70036  1.0000
  H   H2666     1.0  0.92142  0.46822  0.98669  1.0000
  H   H2667     1.0  0.79214  0.40870  0.75530  1.0000
  H   H2668     1.0  0.98794  0.38995  0.73123  1.0000
  H   H2669     1.0  0.81840  0.31727  0.66317  1.0000
  C   C1505     1.0  0.82842  0.27632  0.67865  1.0000
  H   H2670     1.0  0.80788  0.51306  0.92721  1.0000
  H   H2671     1.0  0.84812  0.10966  0.55436  1.0000
  H   H2672     1.0  0.78559  0.10516  0.56110  1.0000
  H   H2673     1.0  0.79521  0.15807  0.52571  1.0000
  C   C1506     1.0  0.94956  0.47065  0.54049  1.0000
  S   S333      1.0  0.99821  0.41521  0.64664  1.0000
  H   H2674     1.0  0.78450  0.37810  0.97921  1.0000
  S   S334      1.0  0.81106  0.41574  0.00395  1.0000
  H   H2675     1.0  0.79018  0.36128  0.75108  1.0000
  H   H2676     1.0  0.79757  0.35552  0.95586  1.0000
  H   H2677     1.0  0.99423  0.27028  0.63027  1.0000
  H   H2678     1.0  0.79998  0.41500  0.66059  1.0000
  C   C1507     1.0  0.77745  0.12452  0.56744  1.0000
  H   H2679     1.0  0.95229  0.48889  0.54864  1.0000
  H   H2680     1.0  0.84174  0.51847  0.87230  1.0000
  C   C1508     1.0  0.89625  0.32779  0.52238  1.0000
  H   H2681     1.0  0.90445  0.12206  0.55489  1.0000
  H   H2682     1.0  0.98822  0.24014  0.54265  1.0000
  H   H2683     1.0  0.00724  0.33503  0.63351  1.0000
  C   C1509     1.0  0.77829  0.37125  0.76700  1.0000
  H   H2684     1.0  0.79662  0.34470  0.79689  1.0000
  H   H2685     1.0  0.77328  0.27205  0.67377  1.0000
  H   H2686     1.0  0.76867  0.12156  0.58808  1.0000
  C   C1510     1.0  0.77280  0.40104  0.75883  1.0000
  H   H2687     1.0  0.01432  0.42707  0.72835  1.0000
  C   C1511     1.0  0.77722  0.22970  0.67465  1.0000
  H   H2688     1.0  0.77723  0.22702  0.65384  1.0000
  H   H2689     1.0  0.00823  0.29253  0.66253  1.0000
  C   C1512     1.0  0.99262  0.25310  0.52436  1.0000
  H   H2690     1.0  0.00927  0.33883  0.66735  1.0000
  H   H2691     1.0  0.78217  0.37549  0.80779  1.0000
  H   H2692     1.0  0.01000  0.26308  0.52608  1.0000
  H   H2693     1.0  0.77201  0.34679  0.98095  1.0000
  C   C1513     1.0  0.91911  0.30595  0.52668  1.0000
  Fe  Fe169     1.0  0.88731  0.88864  0.34326  1.0000
  S   S335      1.0  0.88659  0.84803  0.36342  1.0000
  S   S336      1.0  0.85008  0.91427  0.33250  1.0000
  Fe  Fe170     1.0  0.94792  0.88466  0.34166  1.0000
  S   S337      1.0  0.95081  0.84374  0.36102  1.0000
  S   S338      1.0  0.98318  0.90724  0.33091  1.0000
  Fe  Fe171     1.0  0.92111  0.83788  0.33485  1.0000
  S   S339      1.0  0.92407  0.80048  0.31666  1.0000
  Fe  Fe172     1.0  0.91614  0.85826  0.38759  1.0000
  S   S340      1.0  0.91552  0.84314  0.43019  1.0000
  S   S341      1.0  0.92060  0.87779  0.31289  1.0000
  S   S342      1.0  0.91466  0.89993  0.36985  1.0000
  Fe  Fe173     1.0  0.86616  0.69660  0.40094  1.0000
  S   S343      1.0  0.84534  0.66198  0.41750  1.0000
  S   S344      1.0  0.84523  0.73647  0.39214  1.0000
  Fe  Fe174     1.0  0.91856  0.66460  0.39409  1.0000
  S   S345      1.0  0.90145  0.62748  0.40903  1.0000
  S   S346      1.0  0.96210  0.66236  0.38623  1.0000
  Fe  Fe175     1.0  0.86921  0.64298  0.38374  1.0000
  S   S347      1.0  0.85218  0.62317  0.35325  1.0000
  Fe  Fe176     1.0  0.87997  0.65065  0.44108  1.0000
  S   S348      1.0  0.88817  0.63593  0.48334  1.0000
  S   S349      1.0  0.88826  0.67821  0.36679  1.0000
  S   S350      1.0  0.89867  0.68713  0.42648  1.0000
  C   C1514     1.0  0.87327  0.77734  0.49648  1.0000
  Fe  Fe177     1.0  0.85041  0.64415  0.19685  1.0000
  S   S351      1.0  0.82111  0.61519  0.20579  1.0000
  S   S352      1.0  0.87259  0.65473  0.22946  1.0000
  Fe  Fe178     1.0  0.84168  0.65201  0.13703  1.0000
  S   S353      1.0  0.81205  0.62340  0.14299  1.0000
  S   S354      1.0  0.84682  0.67488  0.09641  1.0000
  Fe  Fe179     1.0  0.79676  0.64265  0.17910  1.0000
  H   H2694     1.0  0.81296  0.90526  0.22486  1.0000
  Fe  Fe180     1.0  0.83984  0.59933  0.16865  1.0000
  S   S355      1.0  0.85035  0.55618  0.16764  1.0000
  S   S356      1.0  0.82473  0.67301  0.17218  1.0000
  S   S357      1.0  0.87087  0.62654  0.16078  1.0000
  H   H2695     1.0  0.88543  0.58380  0.29759  1.0000
  H   H2696     1.0  0.77437  0.68512  0.07312  1.0000
  H   H2697     1.0  0.84307  0.85306  0.40416  1.0000
  H   H2698     1.0  0.85914  0.62235  0.07951  1.0000
  H   H2699     1.0  0.82405  0.77619  0.46838  1.0000
  H   H2700     1.0  0.98830  0.79901  0.51575  1.0000
  C   C1515     1.0  0.85782  0.63224  0.31886  1.0000
  C   C1516     1.0  0.87825  0.64672  0.30801  1.0000
  C   C1517     1.0  0.88251  0.65312  0.28071  1.0000
  C   C1518     1.0  0.86644  0.64529  0.26372  1.0000
  C   C1519     1.0  0.84601  0.63073  0.27450  1.0000
  C   C1520     1.0  0.84185  0.62414  0.30186  1.0000
  H   H2701     1.0  0.89107  0.65271  0.32059  1.0000
  H   H2702     1.0  0.89824  0.66446  0.27269  1.0000
  H   H2703     1.0  0.83332  0.62463  0.26179  1.0000
  H   H2704     1.0  0.82601  0.61287  0.30991  1.0000
  H   H2705     1.0  0.78552  0.69946  0.24574  1.0000
  H   H2706     1.0  0.82162  0.70467  0.48346  1.0000
  H   H2707     1.0  0.85855  0.60573  0.03648  1.0000
  C   C1521     1.0  0.99846  0.88050  0.47656  1.0000
  C   C1522     1.0  0.95875  0.67567  0.48985  1.0000
  H   H2708     1.0  0.89948  0.80128  0.51030  1.0000
  C   C1523     1.0  0.84454  0.66176  0.06643  1.0000
  H   H2709     1.0  0.82952  0.76458  0.43707  1.0000
  C   C1524     1.0  0.81784  0.72560  0.47607  1.0000
  H   H2710     1.0  0.97413  0.60945  0.47129  1.0000
  H   H2711     1.0  0.93850  0.64708  0.29994  1.0000
  H   H2712     1.0  0.84994  0.91474  0.24643  1.0000
  H   H2713     1.0  0.91127  0.73517  0.30183  1.0000
  C   C1525     1.0  0.83596  0.67843  0.04485  1.0000
  C   C1526     1.0  0.91298  0.86657  0.45246  1.0000
  C   C1527     1.0  0.91440  0.85805  0.47894  1.0000
  C   C1528     1.0  0.91256  0.87619  0.49726  1.0000
  C   C1529     1.0  0.90981  0.90300  0.48913  1.0000
  C   C1530     1.0  0.90864  0.91160  0.46258  1.0000
  C   C1531     1.0  0.90995  0.89337  0.44429  1.0000
  H   H2714     1.0  0.91696  0.83738  0.48532  1.0000
  C   C1532     1.0  0.86975  0.73157  0.30703  1.0000
  H   H2715     1.0  0.90636  0.93232  0.45623  1.0000
  H   H2716     1.0  0.90846  0.90014  0.42400  1.0000
  C   C1533     1.0  0.90190  0.78214  0.33646  1.0000
  C   C1534     1.0  0.91076  0.75825  0.34966  1.0000
  C   C1535     1.0  0.89336  0.74445  0.36709  1.0000
  C   C1536     1.0  0.86702  0.75426  0.37095  1.0000
  C   C1537     1.0  0.85818  0.77828  0.35788  1.0000
  C   C1538     1.0  0.87566  0.79225  0.34063  1.0000
  H   H2717     1.0  0.93116  0.75067  0.34687  1.0000
  H   H2718     1.0  0.90057  0.72647  0.37786  1.0000
  H   H2719     1.0  0.83793  0.78611  0.36120  1.0000
  H   H2720     1.0  0.86887  0.81088  0.33053  1.0000
  C   C1539     1.0  0.78790  0.87171  0.35194  1.0000
  C   C1540     1.0  0.81359  0.87871  0.34733  1.0000
  C   C1541     1.0  0.81811  0.90430  0.33771  1.0000
  C   C1542     1.0  0.79663  0.92260  0.33201  1.0000
  C   C1543     1.0  0.80863  0.91324  0.24412  1.0000
  H   H2721     1.0  0.82995  0.86434  0.35120  1.0000
  H   H2722     1.0  0.79992  0.94238  0.32432  1.0000
  H   H2723     1.0  0.80506  0.93475  0.24039  1.0000
  H   H2724     1.0  0.77634  0.95694  0.26530  1.0000
  H   H2725     1.0  0.88977  0.76210  0.49285  1.0000
  H   H2726     1.0  0.76702  0.92482  0.48489  1.0000
  C   C1544     1.0  0.80711  0.79994  0.30444  1.0000
  H   H2727     1.0  0.85494  0.56750  0.23912  1.0000
  H   H2728     1.0  0.98625  0.77199  0.36414  1.0000
  C   C1545     1.0  0.89671  0.72711  0.29188  1.0000
  C   C1546     1.0  0.95556  0.59395  0.44279  1.0000
  H   H2729     1.0  0.77691  0.67816  0.38072  1.0000
  H   H2730     1.0  0.99585  0.61612  0.41291  1.0000
  H   H2731     1.0  0.94045  0.77325  0.50592  1.0000
  C   C1547     1.0  0.93701  0.52859  0.20793  1.0000
  C   C1548     1.0  0.96110  0.71415  0.51511  1.0000
  C   C1549     1.0  0.98069  0.83740  0.26551  1.0000
  C   C1550     1.0  0.91525  0.55296  0.33148  1.0000
  H   H2732     1.0  0.97864  0.77083  0.31783  1.0000
  H   H2733     1.0  0.83209  0.68505  0.32693  1.0000
  C   C1551     1.0  0.94758  0.72960  0.23366  1.0000
  H   H2734     1.0  0.78717  0.80103  0.31503  1.0000
  H   H2735     1.0  0.99707  0.70939  0.43412  1.0000
  H   H2736     1.0  0.79792  0.52922  0.12175  1.0000
  C   C1552     1.0  0.80814  0.68991  0.27926  1.0000
  C   C1553     1.0  0.96115  0.77180  0.50975  1.0000
  H   H2737     1.0  0.80563  0.72708  0.45960  1.0000
  C   C1554     1.0  0.95356  0.83911  0.25633  1.0000
  H   H2738     1.0  0.87078  0.72106  0.32683  1.0000
  H   H2739     1.0  0.83017  0.91555  0.27737  1.0000
  H   H2740     1.0  0.79234  0.75197  0.32423  1.0000
  H   H2741     1.0  0.84874  0.73265  0.27295  1.0000
  H   H2742     1.0  0.97765  0.79602  0.27814  1.0000
  H   H2743     1.0  0.97439  0.81690  0.30339  1.0000
  H   H2744     1.0  0.99490  0.83836  0.24786  1.0000
  H   H2745     1.0  0.96537  0.81152  0.49244  1.0000
  H   H2746     1.0  0.95152  0.61414  0.29423  1.0000
  C   C1555     1.0  0.77998  0.54128  0.12888  1.0000
  N   N85       1.0  0.82145  0.72360  0.30699  1.0000
  C   C1556     1.0  0.98156  0.87690  0.50268  1.0000
  H   H2747     1.0  0.83012  0.82960  0.38713  1.0000
  H   H2748     1.0  0.80374  0.73144  0.27068  1.0000
  H   H2749     1.0  0.95967  0.76365  0.20825  1.0000
  C   C1557     1.0  0.88983  0.56298  0.29380  1.0000
  H   H2750     1.0  0.82683  0.68809  0.26645  1.0000
  C   C1558     1.0  0.86779  0.55770  0.27792  1.0000
  H   H2751     1.0  0.95206  0.82227  0.24536  1.0000
  H   H2752     1.0  0.93833  0.83924  0.27326  1.0000
  H   H2753     1.0  0.94987  0.85747  0.24327  1.0000
  H   H2754     1.0  0.97134  0.89594  0.50816  1.0000
  C   C1559     1.0  0.82140  0.70429  0.33127  1.0000
  H   H2755     1.0  0.83240  0.71100  0.34597  1.0000
  H   H2756     1.0  0.95393  0.68838  0.47185  1.0000
  H   H2757     1.0  0.88286  0.53995  0.37515  1.0000
  C   C1560     1.0  0.98463  0.66549  0.20988  1.0000
  H   H2758     1.0  0.01460  0.89164  0.47960  1.0000
  H   H2759     1.0  0.81374  0.59102  0.04621  1.0000
  C   C1561     1.0  0.94799  0.68905  0.51419  1.0000
  H   H2760     1.0  0.97380  0.71653  0.20054  1.0000
  S   S358      1.0  0.90803  0.92569  0.51207  1.0000
  H   H2761     1.0  0.91352  0.86933  0.51766  1.0000
  C   C1562     1.0  0.81292  0.75058  0.31528  1.0000
  C   C1563     1.0  0.99979  0.61116  0.43369  1.0000
  H   H2762     1.0  0.80861  0.85086  0.40733  1.0000
  C   C1564     1.0  0.98530  0.85074  0.42297  1.0000
  C   C1565     1.0  0.88035  0.79385  0.51660  1.0000
  H   H2763     1.0  0.95820  0.71002  0.29855  1.0000
  H   H2764     1.0  0.85129  0.54243  0.32769  1.0000
  H   H2765     1.0  0.97610  0.91532  0.46140  1.0000
  H   H2766     1.0  0.86133  0.57026  0.33847  1.0000
  H   H2767     1.0  0.78997  0.87948  0.25915  1.0000
  H   H2768     1.0  0.98605  0.73912  0.35609  1.0000
  H   H2769     1.0  0.95866  0.90097  0.41200  1.0000
  H   H2770     1.0  0.89655  0.52937  0.20286  1.0000
  C   C1566     1.0  0.85037  0.53100  0.08611  1.0000
  H   H2771     1.0  0.78200  0.71756  0.34958  1.0000
  C   C1567     1.0  0.85206  0.63535  0.06333  1.0000
  H   H2772     1.0  0.77723  0.74175  0.15422  1.0000
  H   H2773     1.0  0.97810  0.84646  0.44390  1.0000
  H   H2774     1.0  0.77150  0.61722  0.10093  1.0000
  H   H2775     1.0  0.97922  0.64565  0.20831  1.0000
  C   C1568     1.0  0.79414  0.69913  0.34537  1.0000
  C   C1569     1.0  0.94797  0.95132  0.39291  1.0000
  C   C1570     1.0  0.97676  0.91088  0.40921  1.0000
  H   H2776     1.0  0.83776  0.88522  0.26258  1.0000
  H   H2777     1.0  0.87447  0.59063  0.24826  1.0000
  H   H2778     1.0  0.85569  0.76805  0.50530  1.0000
  C   C1571     1.0  0.91145  0.58024  0.34186  1.0000
  C   C1572     1.0  0.93585  0.58562  0.35333  1.0000
  H   H2779     1.0  0.90755  0.59607  0.32603  1.0000
  H   H2780     1.0  0.89507  0.58155  0.35762  1.0000
  H   H2781     1.0  0.79142  0.66510  0.25623  1.0000
  H   H2782     1.0  0.95313  0.58445  0.33849  1.0000
  H   H2783     1.0  0.93291  0.60562  0.35967  1.0000
  H   H2784     1.0  0.93967  0.57140  0.37061  1.0000
  H   H2785     1.0  0.97449  0.75737  0.23873  1.0000
  C   C1573     1.0  0.99762  0.69644  0.30667  1.0000
  C   C1574     1.0  0.77623  0.64428  0.06640  1.0000
  H   H2786     1.0  0.00698  0.65919  0.41157  1.0000
  N   N86       1.0  0.86266  0.78066  0.44841  1.0000
  C   C1575     1.0  0.88637  0.76259  0.43959  1.0000
  C   C1576     1.0  0.83908  0.76563  0.45504  1.0000
  C   C1577     1.0  0.85723  0.80124  0.42589  1.0000
  C   C1578     1.0  0.86723  0.79465  0.47112  1.0000
  H   H2787     1.0  0.92048  0.53820  0.34799  1.0000
  C   C1579     1.0  0.91181  0.77537  0.43028  1.0000
  C   C1580     1.0  0.83079  0.81897  0.42903  1.0000
  C   C1581     1.0  0.93446  0.75478  0.42313  1.0000
  C   C1582     1.0  0.82807  0.83930  0.40541  1.0000
  H   H2788     1.0  0.88199  0.75235  0.42318  1.0000
  H   H2789     1.0  0.89122  0.74680  0.45520  1.0000
  H   H2790     1.0  0.85771  0.79182  0.40759  1.0000
  H   H2791     1.0  0.87276  0.81461  0.42212  1.0000
  H   H2792     1.0  0.88298  0.80759  0.46534  1.0000
  H   H2793     1.0  0.84974  0.80812  0.47689  1.0000
  H   H2794     1.0  0.78036  0.54241  0.15012  1.0000
  H   H2795     1.0  0.90939  0.78935  0.41254  1.0000
  H   H2796     1.0  0.91759  0.78569  0.44590  1.0000
  H   H2797     1.0  0.82911  0.82983  0.44646  1.0000
  H   H2798     1.0  0.81396  0.80739  0.43074  1.0000
  H   H2799     1.0  0.80701  0.73623  0.49216  1.0000
  H   H2800     1.0  0.93847  0.74057  0.44038  1.0000
  H   H2801     1.0  0.92995  0.74406  0.40714  1.0000
  H   H2802     1.0  0.95229  0.76450  0.41622  1.0000
  H   H2803     1.0  0.78233  0.72054  0.29779  1.0000
  H   H2804     1.0  0.80312  0.61388  0.08427  1.0000
  H   H2805     1.0  0.84869  0.56669  0.28669  1.0000
  C   C1583     1.0  0.97512  0.67634  0.35571  1.0000
  C   C1584     1.0  0.85306  0.56502  0.11397  1.0000
  H   H2806     1.0  0.98461  0.90900  0.38846  1.0000
  H   H2807     1.0  0.83769  0.66288  0.50268  1.0000
  C   C1585     1.0  0.97262  0.61347  0.44998  1.0000
  C   C1586     1.0  0.97047  0.69970  0.31274  1.0000
  H   H2808     1.0  0.99042  0.66156  0.44297  1.0000
  H   H2809     1.0  0.92895  0.73036  0.22495  1.0000
  H   H2810     1.0  0.78355  0.68855  0.33326  1.0000
  N   N87       1.0  0.99595  0.89748  0.42762  1.0000
  H   H2811     1.0  0.83165  0.53406  0.22149  1.0000
  H   H2812     1.0  0.01024  0.60027  0.52035  1.0000
  C   C1587     1.0  0.78678  0.68482  0.26317  1.0000
  H   H2813     1.0  0.98197  0.81101  0.41566  1.0000
  H   H2814     1.0  0.94992  0.65712  0.49029  1.0000
  H   H2815     1.0  0.78467  0.85192  0.35972  1.0000
  H   H2816     1.0  0.80558  0.69291  0.38492  1.0000
  H   H2817     1.0  0.80041  0.77244  0.27889  1.0000
  H   H2818     1.0  0.79367  0.66302  0.09466  1.0000
  C   C1588     1.0  0.77568  0.66560  0.08460  1.0000
  H   H2819     1.0  0.90868  0.56225  0.28104  1.0000
  H   H2820     1.0  0.97279  0.62983  0.25091  1.0000
  H   H2821     1.0  0.92667  0.69381  0.51324  1.0000
  H   H2822     1.0  0.93827  0.69202  0.34186  1.0000
  H   H2823     1.0  0.95601  0.72674  0.49716  1.0000
  H   H2824     1.0  0.93774  0.54880  0.19815  1.0000
  H   H2825     1.0  0.95889  0.94339  0.43184  1.0000
  H   H2826     1.0  0.85557  0.73400  0.48353  1.0000
  C   C1589     1.0  0.84137  0.54010  0.38075  1.0000
  H   H2827     1.0  0.97354  0.76417  0.49270  1.0000
  H   H2828     1.0  0.00783  0.59019  0.43506  1.0000
  H   H2829     1.0  0.96373  0.88663  0.45575  1.0000
  H   H2830     1.0  0.92969  0.94196  0.39822  1.0000
  H   H2831     1.0  0.83717  0.56138  0.38270  1.0000
  H   H2832     1.0  0.96210  0.63327  0.44609  1.0000
  H   H2833     1.0  0.92037  0.68796  0.22582  1.0000
  H   H2834     1.0  0.79139  0.55146  0.03754  1.0000
  H   H2835     1.0  0.78508  0.90398  0.28086  1.0000
  H   H2836     1.0  0.98667  0.71091  0.23084  1.0000
  H   H2837     1.0  0.77246  0.93225  0.21509  1.0000
  C   C1590     1.0  0.96782  0.79946  0.51139  1.0000
  C   C1591     1.0  0.98633  0.81243  0.28477  1.0000
  C   C1592     1.0  0.84976  0.65913  0.51863  1.0000
  H   H2838     1.0  0.93666  0.71335  0.18303  1.0000
  H   H2839     1.0  0.01018  0.65285  0.24159  1.0000
  H   H2840     1.0  0.86637  0.53660  0.27785  1.0000
  H   H2841     1.0  0.84197  0.52945  0.40062  1.0000
  H   H2842     1.0  0.00854  0.74972  0.31269  1.0000
  C   C1593     1.0  0.99707  0.82482  0.41290  1.0000
  H   H2843     1.0  0.85405  0.72451  0.45163  1.0000
  H   H2844     1.0  0.95325  0.59710  0.42154  1.0000
  C   C1594     1.0  0.86744  0.54916  0.33663  1.0000
  H   H2845     1.0  0.85557  0.70128  0.28955  1.0000
  H   H2846     1.0  0.98480  0.95201  0.40722  1.0000
  C   C1595     1.0  0.78498  0.90096  0.25989  1.0000
  H   H2847     1.0  0.85413  0.58533  0.11619  1.0000
  H   H2848     1.0  0.98268  0.70905  0.51255  1.0000
  C   C1596     1.0  0.78203  0.61661  0.08106  1.0000
  C   C1597     1.0  0.00565  0.87078  0.41917  1.0000
  C   C1598     1.0  0.87203  0.56954  0.24945  1.0000
  H   H2849     1.0  0.99398  0.86851  0.51829  1.0000
  H   H2850     1.0  0.80913  0.67435  0.29583  1.0000
  H   H2851     1.0  0.80858  0.66348  0.36849  1.0000
  H   H2852     1.0  0.89664  0.73715  0.27172  1.0000
  C   C1599     1.0  0.84371  0.73663  0.46682  1.0000
  H   H2853     1.0  0.86561  0.75278  0.30892  1.0000
  H   H2854     1.0  0.80187  0.55965  0.07945  1.0000
  C   C1600     1.0  0.85176  0.54663  0.13604  1.0000
  C   C1601     1.0  0.80288  0.71756  0.28876  1.0000
  C   C1602     1.0  0.83305  0.90671  0.25854  1.0000
  C   C1603     1.0  0.77881  0.56874  0.11453  1.0000
  H   H2855     1.0  0.83033  0.69894  0.04689  1.0000
  C   C1604     1.0  0.79285  0.59313  0.04244  1.0000
  C   C1605     1.0  0.86752  0.53427  0.36446  1.0000
  H   H2856     1.0  0.97334  0.63797  0.29709  1.0000
  C   C1606     1.0  0.87517  0.64675  0.51429  1.0000
  C   C1607     1.0  0.93748  0.67943  0.21328  1.0000
  C   C1608     1.0  0.98226  0.89553  0.45505  1.0000
  C   C1609     1.0  0.95957  0.67187  0.25319  1.0000
  C   C1610     1.0  0.95622  0.64243  0.26003  1.0000
  H   H2857     1.0  0.82126  0.80287  0.31804  1.0000
  H   H2858     1.0  0.97633  0.67613  0.26281  1.0000
  C   C1611     1.0  0.93547  0.69199  0.18473  1.0000
  C   C1612     1.0  0.90950  0.68806  0.17542  1.0000
  C   C1613     1.0  0.99882  0.76625  0.32330  1.0000
  H   H2859     1.0  0.01466  0.66400  0.36397  1.0000
  C   C1614     1.0  0.84863  0.72189  0.29288  1.0000
  H   H2860     1.0  0.93591  0.59672  0.45388  1.0000
  H   H2861     1.0  0.93437  0.65853  0.21349  1.0000
  H   H2862     1.0  0.94087  0.77099  0.23864  1.0000
  C   C1615     1.0  0.00223  0.67384  0.34977  1.0000
  C   C1616     1.0  0.96883  0.70952  0.22150  1.0000
  N   N88       1.0  0.96261  0.68156  0.22447  1.0000
  H   H2863     1.0  0.94217  0.68262  0.26332  1.0000
  C   C1617     1.0  0.96804  0.94029  0.41182  1.0000
  H   H2864     1.0  0.93794  0.63781  0.25334  1.0000
  H   H2865     1.0  0.85294  0.57147  0.07204  1.0000
  H   H2866     1.0  0.82433  0.75440  0.33107  1.0000
  H   H2867     1.0  0.94396  0.72461  0.25506  1.0000
  H   H2868     1.0  0.79157  0.64754  0.04994  1.0000
  N   N89       1.0  0.89263  0.54558  0.31905  1.0000
  H   H2869     1.0  0.95125  0.68305  0.17112  1.0000
  H   H2870     1.0  0.90857  0.69697  0.15490  1.0000
  H   H2871     1.0  0.90742  0.66690  0.17610  1.0000
  H   H2872     1.0  0.89288  0.69747  0.18784  1.0000
  C   C1618     1.0  0.85262  0.55714  0.08898  1.0000
  H   H2873     1.0  0.79471  0.01314  0.32781  1.0000
  H   H2874     1.0  0.88965  0.55933  0.23920  1.0000
  H   H2875     1.0  0.83417  0.77384  0.28270  1.0000
  C   C1619     1.0  0.95918  0.68955  0.33726  1.0000
  H   H2876     1.0  0.98817  0.67436  0.18931  1.0000
  C   C1620     1.0  0.81434  0.77365  0.29327  1.0000
  C   C1621     1.0  0.95481  0.63502  0.28963  1.0000
  C   C1622     1.0  0.79656  0.68237  0.37145  1.0000
  H   H2877     1.0  0.76998  0.97041  0.35831  1.0000
  H   H2878     1.0  0.98021  0.67118  0.48941  1.0000
  C   C1623     1.0  0.78147  0.56821  0.08449  1.0000
  C   C1624     1.0  0.77095  0.91556  0.33648  1.0000
  H   H2879     1.0  0.90270  0.70588  0.29109  1.0000
  H   H2880     1.0  0.96428  0.57358  0.44780  1.0000
  C   C1625     1.0  0.85166  0.62595  0.03888  1.0000
  C   C1626     1.0  0.95627  0.75706  0.22947  1.0000
  H   H2881     1.0  0.96838  0.85826  0.41202  1.0000
  C   C1627     1.0  0.78913  0.57091  0.02601  1.0000
  H   H2882     1.0  0.86534  0.81071  0.51940  1.0000
  H   H2883     1.0  0.80758  0.81608  0.28830  1.0000
  H   H2884     1.0  0.79509  0.57828  0.12007  1.0000
  H   H2885     1.0  0.96684  0.86335  0.50157  1.0000
  H   H2886     1.0  0.94324  0.97268  0.39400  1.0000
  H   H2887     1.0  0.78979  0.61177  0.02955  1.0000
  H   H2888     1.0  0.95574  0.94808  0.37244  1.0000
  H   H2889     1.0  0.93306  0.55264  0.31726  1.0000
  N   N90       1.0  0.77554  0.59399  0.06796  1.0000
  H   H2890     1.0  0.93384  0.52955  0.22938  1.0000
  C   C1628     1.0  0.99693  0.75660  0.35245  1.0000
  H   H2891     1.0  0.82535  0.53351  0.37157  1.0000
  H   H2892     1.0  0.98155  0.85509  0.27552  1.0000
  H   H2893     1.0  0.76981  0.89917  0.21186  1.0000
  H   H2894     1.0  0.00690  0.86081  0.47150  1.0000
  H   H2895     1.0  0.76935  0.55329  0.08008  1.0000
  H   H2896     1.0  0.82478  0.52211  0.25546  1.0000
  H   H2897     1.0  0.77261  0.01566  0.30306  1.0000
  H   H2898     1.0  0.00742  0.80433  0.33160  1.0000
  H   H2899     1.0  0.01373  0.81599  0.42381  1.0000
  H   H2900     1.0  0.00383  0.82782  0.39168  1.0000
  H   H2901     1.0  0.76758  0.68546  0.27523  1.0000
  H   H2902     1.0  0.01300  0.93152  0.43554  1.0000
  C   C1629     1.0  0.01477  0.79019  0.31702  1.0000
  C   C1630     1.0  0.01145  0.66238  0.22121  1.0000
  N   N91       1.0  0.01449  0.80406  0.28964  1.0000
  H   H2903     1.0  0.01281  0.87250  0.39798  1.0000
  H   H2904     1.0  0.00851  0.79949  0.23521  1.0000
  S   S359      1.0  0.01187  0.70783  0.27572  1.0000
  C   C1631     1.0  0.01347  0.68376  0.32532  1.0000
  C   C1632     1.0  0.00993  0.65613  0.43265  1.0000
  H   H2905     1.0  0.00442  0.63266  0.48067  1.0000
  H   H2906     1.0  0.93725  0.52039  0.29246  1.0000
  C   C1633     1.0  0.76641  0.89012  0.34673  1.0000
  C   C1634     1.0  0.85088  0.52030  0.13297  1.0000
  S   S360      1.0  0.84471  0.52195  0.05576  1.0000
  H   H2907     1.0  0.01489  0.58277  0.47755  1.0000
  Fe  Fe181     1.0  0.90414  0.90447  0.55245  1.0000
  S   S361      1.0  0.89632  0.92277  0.59040  1.0000
  Fe  Fe182     1.0  0.90512  0.84994  0.57859  1.0000
  S   S362      1.0  0.89781  0.86330  0.61861  1.0000
  S   S363      1.0  0.90805  0.80804  0.57065  1.0000
  Fe  Fe183     1.0  0.86726  0.89318  0.60192  1.0000
  S   S364      1.0  0.82790  0.89819  0.62718  1.0000
  Fe  Fe184     1.0  0.92750  0.89120  0.60356  1.0000
  S   S365      1.0  0.95763  0.89606  0.63068  1.0000
  S   S366      1.0  0.87285  0.87773  0.56281  1.0000
  S   S367      1.0  0.93709  0.87514  0.56488  1.0000
  Fe  Fe185     1.0  0.85978  0.66403  0.63486  1.0000
  S   S368      1.0  0.89862  0.67903  0.63409  1.0000
  S   S369      1.0  0.83997  0.66704  0.59709  1.0000
  Fe  Fe186     1.0  0.85436  0.65235  0.69577  1.0000
  S   S370      1.0  0.89327  0.66556  0.69839  1.0000
  S   S371      1.0  0.82808  0.64066  0.73313  1.0000
  Fe  Fe187     1.0  0.88105  0.69872  0.66930  1.0000
  S   S372      1.0  0.88902  0.73835  0.67746  1.0000
  Fe  Fe188     1.0  0.90715  0.64435  0.66315  1.0000
  S   S373      1.0  0.94752  0.62293  0.66045  1.0000
  S   S374      1.0  0.84116  0.68714  0.66817  1.0000
  S   S375      1.0  0.86921  0.62775  0.66246  1.0000
  Fe  Fe189     1.0  0.82878  0.64274  0.88806  1.0000
  S   S376      1.0  0.78683  0.63792  0.88730  1.0000
  S   S377      1.0  0.85496  0.64820  0.84941  1.0000
  Fe  Fe190     1.0  0.82344  0.63811  0.94916  1.0000
  S   S378      1.0  0.78085  0.63290  0.95184  1.0000
  S   S379      1.0  0.84322  0.62904  0.98710  1.0000
  Fe  Fe191     1.0  0.79238  0.60654  0.92017  1.0000
  H   H2908     1.0  0.90990  0.63152  0.53262  1.0000
  H   H2909     1.0  0.80244  0.81695  0.66571  1.0000
  C   C1635     1.0  0.83464  0.66878  0.02061  1.0000
  S   S380      1.0  0.83519  0.60899  0.91923  1.0000
  S   S381      1.0  0.82093  0.67243  0.91770  1.0000
  C   C1636     1.0  0.96123  0.72540  0.58797  1.0000
  N   N92       1.0  0.79915  0.80770  0.62639  1.0000
  H   H2910     1.0  0.81380  0.98652  0.59192  1.0000
  H   H2911     1.0  0.81144  0.76901  0.64426  1.0000
  H   H2912     1.0  0.79075  0.84410  0.60230  1.0000
  C   C1637     1.0  0.85697  0.53041  0.96442  1.0000
  C   C1638     1.0  0.77153  0.98964  0.63090  1.0000
  H   H2913     1.0  0.95788  0.77470  0.67582  1.0000
  H   H2914     1.0  0.98796  0.74899  0.53492  1.0000
  H   H2915     1.0  0.87800  0.71148  0.53394  1.0000
  C   C1639     1.0  0.88156  0.57489  0.83543  1.0000
  H   H2916     1.0  0.86645  0.58136  0.96793  1.0000
  H   H2917     1.0  0.80764  0.58668  0.87414  1.0000
  C   C1640     1.0  0.98777  0.64141  0.57807  1.0000
  C   C1641     1.0  0.88205  0.52967  0.76569  1.0000
  H   H2918     1.0  0.93607  0.60027  0.71605  1.0000
  C   C1642     1.0  0.83589  0.64205  0.76549  1.0000
  C   C1643     1.0  0.81803  0.63503  0.78707  1.0000
  C   C1644     1.0  0.82359  0.63643  0.81292  1.0000
  C   C1645     1.0  0.84707  0.64496  0.81747  1.0000
  C   C1646     1.0  0.86527  0.65095  0.79592  1.0000
  C   C1647     1.0  0.85966  0.64967  0.77015  1.0000
  H   H2919     1.0  0.79989  0.62833  0.78376  1.0000
  H   H2920     1.0  0.80989  0.63063  0.82934  1.0000
  H   H2921     1.0  0.88395  0.65638  0.79924  1.0000
  H   H2922     1.0  0.87389  0.65424  0.75386  1.0000
  C   C1648     1.0  0.79075  0.71341  0.84144  1.0000
  H   H2923     1.0  0.92830  0.62965  0.60979  1.0000
  C   C1649     1.0  0.79594  0.89864  0.61788  1.0000
  C   C1650     1.0  0.79110  0.90000  0.59172  1.0000
  H   H2924     1.0  0.79297  0.56063  0.74065  1.0000
  H   H2925     1.0  0.80721  0.90058  0.57644  1.0000
  C   C1651     1.0  0.99207  0.89668  0.62768  1.0000
  H   H2926     1.0  0.81276  0.82569  0.54562  1.0000
  H   H2927     1.0  0.79236  0.95057  0.63916  1.0000
  H   H2928     1.0  0.96952  0.76265  0.64485  1.0000
  C   C1652     1.0  0.99975  0.82593  0.59624  1.0000
  H   H2929     1.0  0.99018  0.90377  0.66801  1.0000
  C   C1653     1.0  0.90279  0.78869  0.60032  1.0000
  C   C1654     1.0  0.88928  0.76682  0.60163  1.0000
  C   C1655     1.0  0.88520  0.75111  0.62533  1.0000
  C   C1656     1.0  0.89417  0.75771  0.64784  1.0000
  C   C1657     1.0  0.90712  0.77996  0.64670  1.0000
  C   C1658     1.0  0.91170  0.79527  0.62281  1.0000
  H   H2930     1.0  0.88154  0.76234  0.58449  1.0000
  H   H2931     1.0  0.87468  0.73421  0.62629  1.0000
  H   H2932     1.0  0.91365  0.78527  0.66421  1.0000
  H   H2933     1.0  0.92224  0.81207  0.62160  1.0000
  H   H2934     1.0  0.95525  0.69336  0.56666  1.0000
  H   H2935     1.0  0.86716  0.70821  0.56843  1.0000
  C   C1659     1.0  0.78326  0.55661  0.89002  1.0000
  C   C1660     1.0  0.96126  0.63769  0.58177  1.0000
  H   H2936     1.0  0.82808  0.68185  0.00424  1.0000
  H   H2937     1.0  0.93282  0.84621  0.70805  1.0000
  H   H2938     1.0  0.01202  0.78641  0.61203  1.0000
  H   H2939     1.0  0.78042  0.95579  0.60754  1.0000
  H   H2940     1.0  0.98679  0.73921  0.69835  1.0000
  H   H2941     1.0  0.97790  0.79448  0.61391  1.0000
  H   H2942     1.0  0.83827  0.74045  0.59553  1.0000
  C   C1661     1.0  0.97509  0.76515  0.66436  1.0000
  H   H2943     1.0  0.99325  0.57105  0.59617  1.0000
  H   H2944     1.0  0.89345  0.54061  0.81599  1.0000
  H   H2945     1.0  0.00086  0.88970  0.58711  1.0000
  C   C1662     1.0  0.79924  0.82362  0.60005  1.0000
  C   C1663     1.0  0.88004  0.64760  0.56091  1.0000
  H   H2946     1.0  0.93212  0.85971  0.67442  1.0000
  H   H2947     1.0  0.83230  0.53785  0.75850  1.0000
  H   H2948     1.0  0.77818  0.89739  0.65776  1.0000
  H   H2949     1.0  0.92087  0.56206  0.76154  1.0000
  C   C1664     1.0  0.96695  0.70556  0.61143  1.0000
  H   H2950     1.0  0.94139  0.73566  0.59199  1.0000
  H   H2951     1.0  0.80927  0.58933  0.72984  1.0000
  C   C1665     1.0  0.00281  0.90086  0.65016  1.0000
  C   C1666     1.0  0.90398  0.56976  0.75061  1.0000
  H   H2952     1.0  0.98734  0.69608  0.60875  1.0000
  S   S382      1.0  0.00241  0.65017  0.54634  1.0000
  C   C1667     1.0  0.96406  0.71199  0.56233  1.0000
  C   C1668     1.0  0.79736  0.53599  0.84183  1.0000
  C   C1669     1.0  0.96635  0.75347  0.53505  1.0000
  C   C1670     1.0  0.98161  0.73790  0.67837  1.0000
  H   H2953     1.0  0.96782  0.81198  0.69562  1.0000
  H   H2954     1.0  0.84202  0.84109  0.54539  1.0000
  Fe  Fe192     1.0  0.77902  0.66482  0.91870  1.0000
  H   H2955     1.0  0.84599  0.53131  0.91602  1.0000
  C   C1671     1.0  0.90769  0.71489  0.55945  1.0000
  H   H2956     1.0  0.97543  0.74004  0.58646  1.0000
  H   H2957     1.0  0.92246  0.82741  0.68471  1.0000
  H   H2958     1.0  0.90018  0.57461  0.97379  1.0000
  H   H2959     1.0  0.85014  0.52663  0.98561  1.0000
  H   H2960     1.0  0.97720  0.84423  0.68508  1.0000
  C   C1672     1.0  0.80138  0.76384  0.60585  1.0000
  H   H2961     1.0  0.89187  0.64297  0.57704  1.0000
  H   H2962     1.0  0.86512  0.59027  0.78821  1.0000
  S   S383      1.0  0.77443  0.56932  0.92017  1.0000
  H   H2963     1.0  0.80616  0.55384  0.99112  1.0000
  H   H2964     1.0  0.81839  0.72604  0.62324  1.0000
  H   H2965     1.0  0.98556  0.84302  0.60065  1.0000
  C   C1673     1.0  0.81220  0.56770  0.73378  1.0000
  C   C1674     1.0  0.96978  0.82306  0.65278  1.0000
  H   H2966     1.0  0.95449  0.80886  0.52686  1.0000
  C   C1675     1.0  0.85433  0.65926  0.56539  1.0000
  C   C1676     1.0  0.89096  0.56203  0.81040  1.0000
  H   H2967     1.0  0.82805  0.95443  0.60347  1.0000
  C   C1677     1.0  0.79981  0.56923  0.87058  1.0000
  C   C1678     1.0  0.84272  0.64244  0.01742  1.0000
  H   H2968     1.0  0.81236  0.70986  0.83803  1.0000
  H   H2969     1.0  0.98529  0.70579  0.55772  1.0000
  H   H2970     1.0  0.86420  0.56456  0.72573  1.0000
  C   C1679     1.0  0.80631  0.55928  0.84631  1.0000
  H   H2971     1.0  0.97539  0.81491  0.56872  1.0000
  H   H2972     1.0  0.81953  0.67422  0.54713  1.0000
  H   H2973     1.0  0.80676  0.58869  0.98897  1.0000
  H   H2974     1.0  0.00101  0.62980  0.64162  1.0000
  H   H2975     1.0  0.93002  0.62926  0.73282  1.0000
  C   C1680     1.0  0.83083  0.55945  0.75477  1.0000
  H   H2976     1.0  0.94588  0.59974  0.74857  1.0000
  C   C1681     1.0  0.96314  0.62930  0.62870  1.0000
  H   H2977     1.0  0.89611  0.56949  0.84979  1.0000
  H   H2978     1.0  0.88956  0.60942  0.73396  1.0000
  H   H2979     1.0  0.81107  0.85786  0.55655  1.0000
  H   H2980     1.0  0.90889  0.56286  0.73081  1.0000
  C   C1682     1.0  0.94887  0.63211  0.60705  1.0000
  C   C1683     1.0  0.89027  0.64121  0.53560  1.0000
  H   H2981     1.0  0.91010  0.56881  0.80278  1.0000
  H   H2982     1.0  0.91915  0.75370  0.55262  1.0000
  H   H2983     1.0  0.81868  0.56945  0.83127  1.0000
  C   C1684     1.0  0.88117  0.56636  0.97630  1.0000
  H   H2984     1.0  0.78675  0.67330  0.84012  1.0000
  H   H2985     1.0  0.82170  0.56795  0.77283  1.0000
  C   C1685     1.0  0.81172  0.82120  0.64534  1.0000
  H   H2986     1.0  0.89957  0.60785  0.76648  1.0000
  H   H2987     1.0  0.85306  0.56015  0.79924  1.0000
  N   N93       1.0  0.88754  0.73304  0.76323  1.0000
  C   C1686     1.0  0.88418  0.76257  0.76076  1.0000
  C   C1687     1.0  0.88901  0.72228  0.79159  1.0000
  C   C1688     1.0  0.91315  0.72445  0.74779  1.0000
  C   C1689     1.0  0.86614  0.72234  0.75179  1.0000
  C   C1690     1.0  0.83805  0.72825  0.76493  1.0000
  C   C1691     1.0  0.88407  0.77666  0.73258  1.0000
  C   C1692     1.0  0.92363  0.69499  0.75228  1.0000
  C   C1693     1.0  0.87214  0.73770  0.81281  1.0000
  C   C1694     1.0  0.87169  0.72191  0.83969  1.0000
  C   C1695     1.0  0.81818  0.71954  0.74915  1.0000
  C   C1696     1.0  0.88077  0.80633  0.73301  1.0000
  C   C1697     1.0  0.94784  0.68847  0.73334  1.0000
  H   H2988     1.0  0.90006  0.76962  0.76990  1.0000
  H   H2989     1.0  0.86575  0.77019  0.77179  1.0000
  H   H2990     1.0  0.88425  0.70172  0.79463  1.0000
  H   H2991     1.0  0.90934  0.72154  0.79681  1.0000
  H   H2992     1.0  0.92882  0.73574  0.75208  1.0000
  H   H2993     1.0  0.91159  0.72878  0.72642  1.0000
  H   H2994     1.0  0.86640  0.72886  0.73055  1.0000
  H   H2995     1.0  0.86965  0.70079  0.75268  1.0000
  H   H2996     1.0  0.83286  0.74940  0.76662  1.0000
  H   H2997     1.0  0.83598  0.71711  0.78462  1.0000
  H   H2998     1.0  0.90266  0.77157  0.72043  1.0000
  H   H2999     1.0  0.86769  0.77158  0.72289  1.0000
  H   H3000     1.0  0.90898  0.68216  0.74927  1.0000
  H   H3001     1.0  0.92923  0.68974  0.77244  1.0000
  H   H3002     1.0  0.88055  0.75613  0.81431  1.0000
  H   H3003     1.0  0.85172  0.74299  0.80848  1.0000
  H   H3004     1.0  0.86021  0.73360  0.85465  1.0000
  H   H3005     1.0  0.86240  0.70375  0.83957  1.0000
  H   H3006     1.0  0.89179  0.71662  0.84539  1.0000
  H   H3007     1.0  0.81894  0.73031  0.72924  1.0000
  H   H3008     1.0  0.82210  0.69823  0.74732  1.0000
  H   H3009     1.0  0.79823  0.72356  0.75920  1.0000
  H   H3010     1.0  0.86182  0.81288  0.74392  1.0000
  H   H3011     1.0  0.89693  0.81262  0.74220  1.0000
  H   H3012     1.0  0.88113  0.81598  0.71270  1.0000
  H   H3013     1.0  0.96346  0.70061  0.73563  1.0000
  H   H3014     1.0  0.95542  0.66757  0.73739  1.0000
  H   H3015     1.0  0.94291  0.69180  0.71279  1.0000
  C   C1698     1.0  0.77348  0.53385  0.88521  1.0000
  C   C1699     1.0  0.81232  0.78021  0.62446  1.0000
  H   H3016     1.0  0.84849  0.85161  0.65801  1.0000
  H   H3017     1.0  0.95339  0.81303  0.64841  1.0000
  C   C1700     1.0  0.77869  0.69216  0.83040  1.0000
  C   C1701     1.0  0.82610  0.82586  0.58403  1.0000
  C   C1702     1.0  0.92417  0.73538  0.54298  1.0000
  H   H3018     1.0  0.99931  0.83632  0.55454  1.0000
  C   C1703     1.0  0.84140  0.81386  0.64723  1.0000
  C   C1704     1.0  0.85157  0.83060  0.66535  1.0000
  C   C1705     1.0  0.82266  0.83839  0.55622  1.0000
  C   C1706     1.0  0.81800  0.73754  0.60375  1.0000
  C   C1707     1.0  0.83942  0.66524  0.54398  1.0000
  H   H3019     1.0  0.77242  0.68548  0.75027  1.0000
  H   H3020     1.0  0.83341  0.78023  0.61788  1.0000
  H   H3021     1.0  0.95143  0.67479  0.53140  1.0000
  H   H3022     1.0  0.80971  0.72598  0.59061  1.0000
  H   H3023     1.0  0.85422  0.59093  0.74493  1.0000
  C   C1708     1.0  0.93621  0.84140  0.68749  1.0000
  C   C1709     1.0  0.87094  0.56879  0.79008  1.0000
  C   C1710     1.0  0.00888  0.89290  0.60467  1.0000
  H   H3024     1.0  0.83777  0.80664  0.58237  1.0000
  H   H3025     1.0  0.83725  0.83863  0.59321  1.0000
  C   C1711     1.0  0.87941  0.71899  0.55291  1.0000
  C   C1712     1.0  0.99844  0.78164  0.66207  1.0000
  C   C1713     1.0  0.98988  0.63204  0.62493  1.0000
  C   C1714     1.0  0.85790  0.56935  0.74614  1.0000
  H   H3026     1.0  0.84526  0.79319  0.65562  1.0000
  H   H3027     1.0  0.85292  0.81631  0.62789  1.0000
  H   H3028     1.0  0.87282  0.82507  0.66610  1.0000
  C   C1715     1.0  0.99625  0.80217  0.61710  1.0000
  H   H3029     1.0  0.84151  0.82762  0.68545  1.0000
  H   H3030     1.0  0.78138  0.99635  0.64647  1.0000
  H   H3031     1.0  0.88157  0.78195  0.53571  1.0000
  C   C1716     1.0  0.80910  0.57017  0.00205  1.0000
  C   C1717     1.0  0.88358  0.54176  0.96226  1.0000
  C   C1718     1.0  0.99575  0.81933  0.56910  1.0000
  H   H3032     1.0  0.82605  0.98070  0.62374  1.0000
  H   H3033     1.0  0.95010  0.63946  0.56516  1.0000
  C   C1719     1.0  0.93065  0.60764  0.73549  1.0000
  C   C1720     1.0  0.90395  0.59989  0.74730  1.0000
  N   N94       1.0  0.99551  0.80748  0.64531  1.0000
  H   H3034     1.0  0.95343  0.69023  0.61389  1.0000
  C   C1721     1.0  0.96445  0.82957  0.68155  1.0000
  H   H3035     1.0  0.78539  0.69288  0.80918  1.0000
  H   H3036     1.0  0.78125  0.75956  0.61323  1.0000
  H   H3037     1.0  0.78614  0.81620  0.58775  1.0000
  C   C1722     1.0  0.81585  0.97229  0.60956  1.0000
  H   H3038     1.0  0.91513  0.69440  0.55662  1.0000
  H   H3039     1.0  0.87646  0.52274  0.74773  1.0000
  H   H3040     1.0  0.87926  0.59650  0.83121  1.0000
  H   H3041     1.0  0.89082  0.54716  0.94155  1.0000
  H   H3042     1.0  0.84275  0.54646  0.95665  1.0000
  H   H3043     1.0  0.87141  0.73984  0.55189  1.0000
  C   C1723     1.0  0.00212  0.63842  0.59968  1.0000
  H   H3044     1.0  0.99810  0.72693  0.66712  1.0000
  C   C1724     1.0  0.78914  0.96518  0.62205  1.0000
  C   C1725     1.0  0.00892  0.56696  0.58013  1.0000
  H   H3045     1.0  0.82913  0.56705  0.00811  1.0000
  H   H3046     1.0  0.80830  0.84286  0.64094  1.0000
  H   H3047     1.0  0.96801  0.84210  0.64056  1.0000
  H   H3048     1.0  0.87552  0.56185  0.99759  1.0000
  H   H3049     1.0  0.80133  0.77413  0.58582  1.0000
  H   H3050     1.0  0.95990  0.76532  0.55176  1.0000
  H   H3051     1.0  0.90764  0.71672  0.58059  1.0000
  N   N95       1.0  0.87915  0.55931  0.76356  1.0000
  H   H3052     1.0  0.96428  0.71554  0.62954  1.0000
  H   H3053     1.0  0.96435  0.72684  0.68003  1.0000
  H   H3054     1.0  0.00952  0.80232  0.56348  1.0000
  N   N96       1.0  0.95339  0.72847  0.53912  1.0000
  H   H3055     1.0  0.81998  0.55919  0.71532  1.0000
  H   H3056     1.0  0.00230  0.78447  0.68219  1.0000
  H   H3057     1.0  0.86267  0.56834  0.84447  1.0000
  C   C1726     1.0  0.77467  0.89836  0.63745  1.0000
  H   H3058     1.0  0.89856  0.52760  0.97133  1.0000
  H   H3059     1.0  0.77216  0.00574  0.61465  1.0000
  H   H3060     1.0  0.01512  0.84263  0.63769  1.0000
  H   H3061     1.0  0.78431  0.73303  0.83176  1.0000
  H   H3062     1.0  0.78515  0.71298  0.86289  1.0000
  C   C1727     1.0  0.78062  0.52349  0.86121  1.0000
  H   H3063     1.0  0.80450  0.53128  0.95505  1.0000
  H   H3064     1.0  0.91653  0.74004  0.52362  1.0000
  H   H3065     1.0  0.76956  0.57396  0.01885  1.0000
  H   H3066     1.0  0.99961  0.56462  0.56243  1.0000
  H   H3067     1.0  0.01409  0.52586  0.59256  1.0000
  H   H3068     1.0  0.86815  0.52176  0.78198  1.0000
  C   C1728     1.0  0.77102  0.80569  0.63719  1.0000
  H   H3069     1.0  0.91923  0.52279  0.78420  1.0000
  H   H3070     1.0  0.77009  0.79249  0.65585  1.0000
  S   S384      1.0  0.80780  0.52241  0.81228  1.0000
  H   H3071     1.0  0.87973  0.52106  0.91546  1.0000
  H   H3072     1.0  0.01600  0.76921  0.65427  1.0000
