data_image0
_chemical_formula_structural       CNSFeS2Fe2HFeHS2HS3HCH4C7H7SH2CH2C2H2FeC5H4CH2CSHFeH5CHC2HCH4C2H4CH4NC12H28CHCNSH7C2HC2N2C4HC4HC2H7C2H3SH6C3H7SHC2H2C3HCHC3H2CH3SHC3H3CH5C4H6CHCH8CSC2H2C7HCH5SH5C2H2CH6FeHFe2S2FeSHSC2SH2SFeSFeSFeS2HFeSH2S2FeHSFeHSHFeSHSH3C2H2CHC2HCHC2HC2HC6H4C6HCH2CH2CHCHC6HCHSH5CHCH7CHSNC4HCH14NC8H2C2H11NH3CH3CSCHCHCH5CH6CH3C2H2CHCSCH3CH2C2HCHC3HFeCNC2HCH3CHCH2C2HC2H4CH3C3H2CH2SCH4CH3FeHSH3C2H5C2HFeH2SFeS2Fe4HS2CHS2HSC4HC6H5SCH3CHC3H2C6HCHC2H2CH19C3SH6C3H2C3H4NC5HC4HC2H9CH13CHSH3C2H3CH2CH3CHNHC2H5NH3CHCH6CNHCSCH4CH2CHCH3CH3C2H8CH6FeHCHSHCHC2HCH3CHCSHCFeH2CHCHFeCHFeS2FeSHSCFeSH2SFeSFeSFeS2HFeSFeHS2FeH2FeHSHFeSHSHSHC3SCH2CHCHC3H3C6H4C6H4CH2SHSH3C3SC3H2CH2CH2CH2CH6C2HCH3CH6CH9NH2C3H3FeHCHC3HC2H4CHC2H5C2HNH6CH3CH7CH3C4H2NC12H29C2SCHCH3NC3H3C2H2CHC2HC2HFeH3CHSH4SC2H3NH6SC2H4CFeHSH2S2HSFeH2FeS2HCFeS3H3C2HCHCH2SH3SC6H5C2H8C6H4FeH2CHC2H3SH5NC9H18CH5CHC2H2NH4C2HCH8CFeHCH3CH2NHCH5C2HCHCH2CHCH2NC3H2C4H2CH2CH3C2H7CH3CFeSCH2CH2SH2C2H2NH2CH2C2H2CH2CHFeSH6FeH3CFeSCFeSCFeS2FeH3S2FeHSFeSH3SHC4FeCH2CH3CHC4SH4CHC5SNH2CH2CHC3H4C8H4C2HC2NC8HC3H14SHCH9SCH4C2H3C2H2C2H3C4H3C2H5NH6CH4C2HSCH11SH2CSHCSHCHCH5SCHCSH6CFeH4CHC2H3CHCHC3H4C2H2C2H6CHFeSCHNH3S2HFeCH5CH5SHC2H2C3H7CH2NCHC3FeCSCS3HSFeCHFeS2FeSFeHS2HSH3C3HCH2CH2C7H5C2H8C6H4CFeCH5C3H6CHCH5CH2CH7C3HNCHCHCSFeCHSCNH2CH13CHC2H3NC8HC3H8CH8CH3CHCH6CH4C2H3CH2NHCHC2H2CH3C3FeHCH4CH4SH2CH2CH5SH2CH2CHC4HC2H2C2H5C2SCH3NHFeHFeHCHSHFeSHFeS2H2SC2HFeS2FeCH3SH3CH3CHC3H3C5H5C2HC4H4CH6NSHCHFeHC5H5CSCHC2HCHCH6CSC2SHCH8CHCH2SCH5CHC3SHCSH6CH3CHNCHSHC2H5C4H6CH5C2H3C3H3C3HCH2C6H16FeH2N2CH2FeCHCSCH2FeH5CH4CH4SH3C2HSCHC2SCHC2H2C4H3CHCSHCSH3CNFeH2CHCNCH8CFeS2HSFeSHFeSFeS2HFeS2FeC2S2H4CFeS2Fe2S2HFeHC2H4CHCH4C2HC5HC7H5C2HCH4C6H7CH3NH4C4H6CSC3HCNC3HC2HC2H5CHSH3CSH2CNC5HC2H6FeHCH4SCH4C3SCHCH4CH2CH5CNSH2NHCH3FeSHFeH5C3H3CH3SH2CH2CHFeH16CHC2H2CHC2HCH2CH2C3H4C2H3C2H5CH3C3H2C3SH2SHC3H4C2H3CHCH3CHC2H2CH2CSC2Fe2S2FeHFeS3CHSCSH5C7H4CH2C2HCH3CHSCNHC6H3C3H11SHC2H4CH5C4SCH5C3H4CH3NHC4HCFeHC2HC3H12S2CH5CHCHSHC2HCHCH3CH13C2H2C2H4CHCH3CH5CHCHFeH3CH2C3NHC2HCHCHNHC3H5CH8SH3CH4CH6CH2CH2C2HFeS2C2H4FeS2HSFeSHFeHFeSHCFeHSHFeC2SHC2HCFeS2HFeS2CHC3H3CH3FeHFeH4CSH3CHC6H4C2HSH5CHC2HCH3CHCHCH3CHCFeH3NCHNHC3HCH3SHC3FeCH3CHCSHCHCH3C2NCHCH3C2SHCHCHCSHC2HSHFeCHCH2SH4CH6SH2CHCH4C2SH2CH2C2H5CH2CH2CHCHCNCH9NCHC2H3SCH6CHSC2H3CH2CH2CSCH2CH2S2H5SH2Fe2S2CFe2HS2FeS2HSFeH3SHC6H4CHCH3CH9C6H4C2H2SCH4CH6CNH4C2H2CHSH4CSC3HCH2CHC2H2CHSH5CH2CH7CH5CHC2HCH2C2H2CH6CH4C2HCHCH3CH2CH4CH3FeH3C2H3CH4CHCHNC2HC2HCHC2NHC7H4CH2NHCFeCSH3CH2CHCSH3NC3HC2HCHCHCFeS2C4SH2SFeSHFeSFeS2H3FeS2FeS2FeS2Fe2HFeHS3H2C3H2C3SHCSH2CH5C7H3C7H4CH5C7H6CH2C2HCH3SHCH5NCHNCHCH3NC4HCHC2HC2H5CH6C2H6CH6SH7FeCHCH5CHNCH2CH2SHC2HCH3CH2C2NC12H29CH2NC7HCH8CH8CHSC3H4CH2CHCHSH3CNHSC2H6Fe2HSCS2HS2FeS2FeHCFeHFeS3CHC2H6CH2C7H5SCHCH2C2HSHC6H8C5H3CH2CH2CH4SCHC2H2CH4C2H5CHCH2SCH4CH2CNH2CHCNH4CH2C3HSH2CH5NH2SHCH7CH3C2H2NH4CH2CHCH3Fe2H4C2HC3HNC11H24C3HCH2C2H2CHCHC2HFeHCH3CH2CH4CH3CH2FeS2H2CHSH2SHSCFeSFeSCSHCFeS2FeS2FeS2Fe2HFeHS2CHFeH3CH3NH3CH2CH2CHCHC6H4C6H7SNC2H2C4HC3H5CH3NC3H2C4HC2H6CHC2H4CH4SH3SCH3C2H5CH2CH2SH4SFeH2CH2NC11H22CH3CH3C3SH2FeHC2H2CH2CFeHCH2C2H2C3HC3HCHCH4C3H3CH4SHC3HC2H3CH12CSHCH3C2HSHSH3C2HSH2CFeS2FeS2FeCSFeCFeS3CH5CH4CNHC6H5C2H5NCH2C6H4C2HC2H2C2H2FeC5H4CSH6CH7C2HNC12H16CHCH6CH3CHCHSH2CH4NCHCH5CH2C2HCH7SCHCH2SHCH3NHCSH8C3H2CHCH4CH4CH2NC3H4C2HCH2CH3CHCHC2SHCHSC2H5CH2C2H3CH3C2H8
_chemical_formula_sum              "C1440 N80 S320 Fe160 H2560"
_cell_length_a       56.2324
_cell_length_b       42.4412
_cell_length_c       56.0343
_cell_angle_alpha    89.7657
_cell_angle_beta     90.3836
_cell_angle_gamma    90.4327

_space_group_name_H-M_alt    "P 1"
_space_group_IT_number       1

loop_
  _space_group_symop_operation_xyz
  'x, y, z'

loop_
  _atom_site_type_symbol
  _atom_site_label
  _atom_site_symmetry_multiplicity
  _atom_site_fract_x
  _atom_site_fract_y
  _atom_site_fract_z
  _atom_site_occupancy
  C   C1        1.0  0.17502  0.46470  0.30062  1.0000
  N   N1        1.0  0.20762  0.13396  0.39597  1.0000
  S   S1        1.0  0.21883  0.30078  0.02601  1.0000
  Fe  Fe1       1.0  0.19098  0.06439  0.28602  1.0000
  S   S2        1.0  0.21612  0.08805  0.26043  1.0000
  S   S3        1.0  0.15648  0.04851  0.26732  1.0000
  Fe  Fe2       1.0  0.22974  0.06459  0.32633  1.0000
  Fe  Fe3       1.0  0.22654  0.11891  0.29102  1.0000
  H   H1        1.0  0.08203  0.40554  0.10373  1.0000
  Fe  Fe4       1.0  0.24372  0.05450  0.27423  1.0000
  H   H2        1.0  0.17987  0.42546  0.17127  1.0000
  S   S4        1.0  0.19981  0.09766  0.31618  1.0000
  S   S5        1.0  0.21836  0.02891  0.29835  1.0000
  H   H3        1.0  0.25231  0.02791  0.41178  1.0000
  S   S6        1.0  0.02945  0.05605  0.20669  1.0000
  S   S7        1.0  0.04559  0.08109  0.27252  1.0000
  S   S8        1.0  0.04997  0.29570  0.07763  1.0000
  H   H4        1.0  0.20441  0.09766  0.36918  1.0000
  C   C2        1.0  0.04064  0.38321  0.15193  1.0000
  H   H5        1.0  0.03883  0.14717  0.02847  1.0000
  H   H6        1.0  0.08539  0.48470  0.22922  1.0000
  H   H7        1.0  0.19712  0.46810  0.19674  1.0000
  H   H8        1.0  0.22314  0.10408  0.46606  1.0000
  C   C3        1.0  0.19281  0.16125  0.40419  1.0000
  C   C4        1.0  0.12598  0.05934  0.26879  1.0000
  C   C5        1.0  0.11007  0.04695  0.25167  1.0000
  C   C6        1.0  0.08556  0.05369  0.25244  1.0000
  C   C7        1.0  0.07655  0.07292  0.27040  1.0000
  C   C8        1.0  0.09247  0.08564  0.28739  1.0000
  C   C9        1.0  0.11706  0.07902  0.28656  1.0000
  H   H9        1.0  0.11669  0.03152  0.23796  1.0000
  H   H10       1.0  0.07353  0.04329  0.23952  1.0000
  H   H11       1.0  0.08570  0.10043  0.30143  1.0000
  H   H12       1.0  0.12901  0.08858  0.29994  1.0000
  H   H13       1.0  0.16275  0.43788  0.25762  1.0000
  H   H14       1.0  0.19860  0.23024  0.43774  1.0000
  H   H15       1.0  0.19462  0.46516  0.29841  1.0000
  S   S9        1.0  0.24909  0.33219  0.18035  1.0000
  H   H16       1.0  0.06658  0.38498  0.02350  1.0000
  H   H17       1.0  0.21791  0.15513  0.24155  1.0000
  C   C10       1.0  0.23267  0.31887  0.05123  1.0000
  H   H18       1.0  0.24298  0.07657  0.20933  1.0000
  H   H19       1.0  0.21597  0.08739  0.40967  1.0000
  C   C11       1.0  0.09987  0.42072  0.07204  1.0000
  C   C12       1.0  0.23381  0.35157  0.05412  1.0000
  H   H20       1.0  0.03699  0.22937  0.06113  1.0000
  H   H21       1.0  0.22640  0.36678  0.04048  1.0000
  Fe  Fe5       1.0  0.01831  0.07358  0.24247  1.0000
  C   C13       1.0  0.10307  0.32306  0.03416  1.0000
  C   C14       1.0  0.08864  0.30590  0.04989  1.0000
  C   C15       1.0  0.06629  0.31718  0.05634  1.0000
  C   C16       1.0  0.05813  0.34549  0.04654  1.0000
  C   C17       1.0  0.07272  0.36283  0.03080  1.0000
  H   H22       1.0  0.23081  0.48605  0.26576  1.0000
  H   H23       1.0  0.09501  0.28397  0.05740  1.0000
  H   H24       1.0  0.04087  0.35426  0.05151  1.0000
  H   H25       1.0  0.01802  0.19620  0.05426  1.0000
  C   C18       1.0  0.23018  0.14464  0.38377  1.0000
  H   H26       1.0  0.05924  0.38857  0.15742  1.0000
  H   H27       1.0  0.23433  0.09751  0.18263  1.0000
  C   C19       1.0  0.13446  0.48625  0.23463  1.0000
  S   S10       1.0  0.23835  0.04986  0.36505  1.0000
  H   H28       1.0  0.17082  0.06122  0.36041  1.0000
  Fe  Fe6       1.0  0.01105  0.30397  0.08457  1.0000
  H   H29       1.0  0.04916  0.12779  0.23720  1.0000
  H   H30       1.0  0.04857  0.31534  0.99995  1.0000
  H   H31       1.0  0.02766  0.17874  0.13054  1.0000
  H   H32       1.0  0.16885  0.43996  0.30287  1.0000
  H   H33       1.0  0.09581  0.43003  0.05391  1.0000
  C   C20       1.0  0.19981  0.00219  0.23519  1.0000
  H   H34       1.0  0.17060  0.47808  0.31699  1.0000
  C   C21       1.0  0.24630  0.49135  0.23102  1.0000
  C   C22       1.0  0.09200  0.47130  0.24497  1.0000
  H   H35       1.0  0.07962  0.45129  0.24836  1.0000
  C   C23       1.0  0.19033  0.41992  0.18762  1.0000
  H   H36       1.0  0.19825  0.11042  0.42908  1.0000
  H   H37       1.0  0.11599  0.44210  0.22545  1.0000
  H   H38       1.0  0.17193  0.20777  0.43162  1.0000
  H   H39       1.0  0.06590  0.39872  0.07625  1.0000
  C   C24       1.0  0.25153  0.17676  0.35217  1.0000
  C   C25       1.0  0.16926  0.46260  0.25572  1.0000
  H   H40       1.0  0.06873  0.17698  0.16950  1.0000
  H   H41       1.0  0.12046  0.31446  0.03000  1.0000
  H   H42       1.0  0.08018  0.27849  0.99852  1.0000
  H   H43       1.0  0.22498  0.18222  0.20280  1.0000
  C   C26       1.0  0.23087  0.19311  0.21924  1.0000
  H   H44       1.0  0.02773  0.40094  0.08216  1.0000
  H   H45       1.0  0.17670  0.15254  0.41362  1.0000
  H   H46       1.0  0.11212  0.43725  0.08142  1.0000
  H   H47       1.0  0.08617  0.18486  0.12994  1.0000
  N   N2        1.0  0.16486  0.31275  0.09316  1.0000
  C   C27       1.0  0.13808  0.31370  0.09447  1.0000
  C   C28       1.0  0.17171  0.29101  0.07316  1.0000
  C   C29       1.0  0.17437  0.30136  0.11691  1.0000
  C   C30       1.0  0.17522  0.34493  0.08799  1.0000
  C   C31       1.0  0.16591  0.36133  0.06493  1.0000
  C   C32       1.0  0.12754  0.33881  0.11139  1.0000
  C   C33       1.0  0.20155  0.29558  0.11829  1.0000
  C   C34       1.0  0.16552  0.25565  0.07669  1.0000
  C   C35       1.0  0.17363  0.23642  0.05525  1.0000
  C   C36       1.0  0.17487  0.39533  0.06329  1.0000
  C   C37       1.0  0.10037  0.33773  0.11096  1.0000
  C   C38       1.0  0.20874  0.28155  0.14242  1.0000
  H   H48       1.0  0.13094  0.29051  0.10052  1.0000
  H   H49       1.0  0.13020  0.31724  0.07646  1.0000
  H   H50       1.0  0.16295  0.29835  0.05618  1.0000
  H   H51       1.0  0.19105  0.29293  0.06953  1.0000
  H   H52       1.0  0.16503  0.27938  0.12260  1.0000
  H   H53       1.0  0.17057  0.31882  0.13109  1.0000
  H   H54       1.0  0.17280  0.36095  0.10344  1.0000
  H   H55       1.0  0.19483  0.34342  0.08588  1.0000
  H   H56       1.0  0.14623  0.36202  0.06414  1.0000
  H   H57       1.0  0.17234  0.34878  0.04887  1.0000
  H   H58       1.0  0.13336  0.33462  0.13007  1.0000
  H   H59       1.0  0.13300  0.36298  0.10604  1.0000
  H   H60       1.0  0.21143  0.31814  0.11623  1.0000
  H   H61       1.0  0.20749  0.27900  0.10436  1.0000
  H   H62       1.0  0.17449  0.24587  0.09274  1.0000
  H   H63       1.0  0.14605  0.25213  0.07850  1.0000
  H   H64       1.0  0.16930  0.21112  0.05813  1.0000
  H   H65       1.0  0.19317  0.23886  0.05281  1.0000
  H   H66       1.0  0.19461  0.39621  0.06382  1.0000
  H   H67       1.0  0.16876  0.40595  0.04618  1.0000
  H   H68       1.0  0.16778  0.40950  0.07823  1.0000
  H   H69       1.0  0.09363  0.31363  0.11506  1.0000
  H   H70       1.0  0.09325  0.35412  0.12451  1.0000
  H   H71       1.0  0.09359  0.34507  0.09317  1.0000
  H   H72       1.0  0.20373  0.29748  0.15721  1.0000
  H   H73       1.0  0.20018  0.25816  0.14516  1.0000
  H   H74       1.0  0.22834  0.27836  0.14307  1.0000
  H   H75       1.0  0.15273  0.46032  0.19695  1.0000
  C   C39       1.0  0.17059  0.09839  0.38722  1.0000
  H   H76       1.0  0.05593  0.16459  0.20495  1.0000
  C   C40       1.0  0.11704  0.45888  0.24058  1.0000
  N   N3        1.0  0.03880  0.44486  0.09933  1.0000
  S   S11       1.0  0.24830  0.24027  0.19062  1.0000
  H   H77       1.0  0.16449  0.24444  0.03869  1.0000
  H   H78       1.0  0.12264  0.44569  0.25674  1.0000
  H   H79       1.0  0.22394  0.48319  0.33463  1.0000
  H   H80       1.0  0.04441  0.10802  0.03960  1.0000
  H   H81       1.0  0.04621  0.20076  0.03933  1.0000
  H   H82       1.0  0.03991  0.43512  0.04790  1.0000
  H   H83       1.0  0.19588  0.02738  0.23160  1.0000
  C   C41       1.0  0.18913  0.44701  0.20543  1.0000
  C   C42       1.0  0.23486  0.19134  0.26244  1.0000
  H   H84       1.0  0.23989  0.12369  0.37718  1.0000
  C   C43       1.0  0.02292  0.42620  0.08263  1.0000
  C   C44       1.0  0.03606  0.25609  0.01500  1.0000
  N   N4        1.0  0.16029  0.47734  0.23281  1.0000
  N   N5        1.0  0.09067  0.14342  0.20873  1.0000
  C   C45       1.0  0.10972  0.13796  0.22739  1.0000
  C   C46       1.0  0.08095  0.11180  0.20107  1.0000
  C   C47       1.0  0.10146  0.16112  0.18800  1.0000
  C   C48       1.0  0.07055  0.16283  0.21838  1.0000
  H   H85       1.0  0.05191  0.24198  0.01018  1.0000
  C   C49       1.0  0.11941  0.16774  0.24024  1.0000
  C   C50       1.0  0.08540  0.16433  0.16542  1.0000
  C   C51       1.0  0.09888  0.08994  0.18834  1.0000
  C   C52       1.0  0.08680  0.05972  0.17966  1.0000
  H   H86       1.0  0.15739  0.11542  0.39396  1.0000
  C   C53       1.0  0.13867  0.15902  0.25846  1.0000
  C   C54       1.0  0.09808  0.18289  0.14578  1.0000
  H   H87       1.0  0.12539  0.12638  0.21929  1.0000
  H   H88       1.0  0.10344  0.12098  0.24123  1.0000
  H   H89       1.0  0.07436  0.09838  0.21680  1.0000
  H   H90       1.0  0.06499  0.11471  0.18945  1.0000
  H   H91       1.0  0.11856  0.15029  0.18259  1.0000
  H   H92       1.0  0.10634  0.18551  0.19347  1.0000
  H   H93       1.0  0.04455  0.11552  0.00790  1.0000
  C   C55       1.0  0.25417  0.42579  0.23345  1.0000
  C   C56       1.0  0.24303  0.44153  0.25225  1.0000
  H   H94       1.0  0.23754  0.42837  0.26787  1.0000
  H   H95       1.0  0.12742  0.18448  0.22729  1.0000
  H   H96       1.0  0.10512  0.17999  0.25002  1.0000
  S   S12       1.0  0.25676  0.08787  0.30271  1.0000
  H   H97       1.0  0.08053  0.14097  0.15796  1.0000
  H   H98       1.0  0.10685  0.10156  0.17254  1.0000
  H   H99       1.0  0.11341  0.08297  0.20074  1.0000
  H   H100      1.0  0.09975  0.04525  0.16973  1.0000
  H   H101      1.0  0.08029  0.04562  0.19505  1.0000
  H   H102      1.0  0.02260  0.43966  0.13426  1.0000
  C   C57       1.0  0.16295  0.47998  0.27905  1.0000
  C   C58       1.0  0.16311  0.45351  0.21310  1.0000
  C   C59       1.0  0.18982  0.21418  0.42472  1.0000
  H   H103      1.0  0.15370  0.14692  0.24966  1.0000
  H   H104      1.0  0.14568  0.18067  0.26718  1.0000
  H   H105      1.0  0.13123  0.14328  0.27249  1.0000
  H   H106      1.0  0.07526  0.46091  0.10289  1.0000
  H   H107      1.0  0.10259  0.20705  0.15198  1.0000
  H   H108      1.0  0.11458  0.17069  0.14035  1.0000
  H   H109      1.0  0.10899  0.39777  0.06991  1.0000
  S   S13       1.0  0.11384  0.37395  0.00551  1.0000
  H   H110      1.0  0.03140  0.16266  0.26661  1.0000
  C   C60       1.0  0.03588  0.12174  0.02501  1.0000
  C   C61       1.0  0.15854  0.07941  0.36732  1.0000
  H   H111      1.0  0.22731  0.11363  0.21134  1.0000
  H   H112      1.0  0.18685  0.13145  0.36318  1.0000
  C   C62       1.0  0.20496  0.18475  0.42151  1.0000
  C   C63       1.0  0.06392  0.44736  0.09021  1.0000
  C   C64       1.0  0.03609  0.39435  0.12634  1.0000
  H   H113      1.0  0.21636  0.00103  0.24604  1.0000
  C   C65       1.0  0.09532  0.35164  0.02461  1.0000
  H   H114      1.0  0.18585  0.17465  0.38854  1.0000
  C   C66       1.0  0.25691  0.47550  0.21193  1.0000
  C   C67       1.0  0.19311  0.11572  0.37780  1.0000
  C   C68       1.0  0.01839  0.23269  0.02698  1.0000
  H   H115      1.0  0.18897  0.46075  0.25534  1.0000
  H   H116      1.0  0.23793  0.14360  0.43683  1.0000
  C   C69       1.0  0.25359  0.31255  0.08957  1.0000
  H   H117      1.0  0.21843  0.18969  0.36803  1.0000
  H   H118      1.0  0.06438  0.46127  0.07332  1.0000
  H   H119      1.0  0.09193  0.48693  0.26082  1.0000
  S   S14       1.0  0.23137  0.17189  0.29011  1.0000
  H   H120      1.0  0.04222  0.27287  0.02896  1.0000
  C   C70       1.0  0.22698  0.17764  0.24114  1.0000
  C   C71       1.0  0.04039  0.17321  0.25084  1.0000
  C   C72       1.0  0.24275  0.29952  0.06903  1.0000
  H   H121      1.0  0.02666  0.17841  0.23705  1.0000
  H   H122      1.0  0.21681  0.15686  0.34768  1.0000
  H   H123      1.0  0.14351  0.47972  0.28231  1.0000
  C   C73       1.0  0.24501  0.36465  0.07449  1.0000
  H   H124      1.0  0.15304  0.09510  0.35238  1.0000
  H   H125      1.0  0.24609  0.38998  0.07636  1.0000
  H   H126      1.0  0.15525  0.43044  0.21856  1.0000
  H   H127      1.0  0.20036  0.44055  0.22099  1.0000
  H   H128      1.0  0.20916  0.41613  0.18247  1.0000
  C   C74       1.0  0.22727  0.16768  0.36241  1.0000
  C   C75       1.0  0.21345  0.11185  0.41646  1.0000
  C   C76       1.0  0.02214  0.43729  0.05622  1.0000
  C   C77       1.0  0.03826  0.43074  0.12421  1.0000
  H   H129      1.0  0.05418  0.43851  0.13462  1.0000
  H   H130      1.0  0.14246  0.06730  0.37435  1.0000
  H   H131      1.0  0.22262  0.19262  0.41506  1.0000
  H   H132      1.0  0.18352  0.39775  0.19578  1.0000
  H   H133      1.0  0.12804  0.49649  0.21748  1.0000
  H   H134      1.0  0.24915  0.19406  0.33744  1.0000
  C   C78       1.0  0.24248  0.22250  0.21853  1.0000
  H   H135      1.0  0.22516  0.44289  0.32389  1.0000
  C   C79       1.0  0.23639  0.11877  0.43120  1.0000
  H   H136      1.0  0.02824  0.39479  0.16444  1.0000
  H   H137      1.0  0.04850  0.38176  0.11459  1.0000
  H   H138      1.0  0.17502  0.08159  0.40178  1.0000
  H   H139      1.0  0.24263  0.15631  0.39641  1.0000
  H   H140      1.0  0.07645  0.18754  0.22163  1.0000
  H   H141      1.0  0.20690  0.17369  0.43939  1.0000
  H   H142      1.0  0.07165  0.06535  0.16757  1.0000
  H   H143      1.0  0.18782  0.22699  0.40749  1.0000
  C   C80       1.0  0.04067  0.00571  0.14211  1.0000
  S   S15       1.0  0.15615  0.29996  0.99979  1.0000
  C   C81       1.0  0.03073  0.21357  0.04658  1.0000
  C   C82       1.0  0.24085  0.10035  0.20125  1.0000
  H   H144      1.0  0.07171  0.14551  0.25582  1.0000
  H   H145      1.0  0.03776  0.35733  0.15311  1.0000
  C   C83       1.0  0.23202  0.45963  0.33751  1.0000
  C   C84       1.0  0.00930  0.11405  0.02393  1.0000
  C   C85       1.0  0.23917  0.47418  0.25108  1.0000
  C   C86       1.0  0.07698  0.41587  0.08622  1.0000
  C   C87       1.0  0.23767  0.09811  0.45357  1.0000
  C   C88       1.0  0.02873  0.47778  0.10072  1.0000
  C   C89       1.0  0.01326  0.18393  0.14257  1.0000
  H   H146      1.0  0.22667  0.45094  0.35543  1.0000
  C   C90       1.0  0.05866  0.15004  0.24132  1.0000
  H   H147      1.0  0.01774  0.38704  0.12133  1.0000
  H   H148      1.0  0.25224  0.11352  0.42029  1.0000
  H   H149      1.0  0.24208  0.27419  0.06696  1.0000
  H   H150      1.0  0.04918  0.01498  0.15860  1.0000
  H   H151      1.0  0.23630  0.07278  0.44879  1.0000
  S   S16       1.0  0.02137  0.12556  0.16200  1.0000
  H   H152      1.0  0.02133  0.00298  0.14558  1.0000
  H   H153      1.0  0.25192  0.23192  0.27822  1.0000
  H   H154      1.0  0.04330  0.02312  0.12749  1.0000
  H   H155      1.0  0.04922  0.19551  0.25642  1.0000
  H   H156      1.0  0.01005  0.30712  0.01695  1.0000
  C   C91       1.0  0.24599  0.22103  0.26178  1.0000
  C   C92       1.0  0.24981  0.23657  0.23990  1.0000
  H   H157      1.0  0.25500  0.10205  0.46278  1.0000
  H   H158      1.0  0.01025  0.39216  0.04161  1.0000
  C   C93       1.0  0.25487  0.34526  0.09242  1.0000
  H   H159      1.0  0.03057  0.49028  0.08336  1.0000
  H   H160      1.0  0.03849  0.49001  0.13804  1.0000
  H   H161      1.0  0.01617  0.46202  0.05461  1.0000
  H   H162      1.0  0.01080  0.21602  0.01372  1.0000
  H   H163      1.0  0.25784  0.46312  0.29742  1.0000
  H   H164      1.0  0.00926  0.47658  0.10441  1.0000
  Fe  Fe7       1.0  0.24100  0.25488  0.68309  1.0000
  H   H165      1.0  0.19554  0.40051  0.86474  1.0000
  Fe  Fe8       1.0  0.01235  0.32785  0.79158  1.0000
  Fe  Fe9       1.0  0.18337  0.35355  0.94911  1.0000
  S   S17       1.0  0.19659  0.30489  0.95819  1.0000
  S   S18       1.0  0.19006  0.37767  0.91269  1.0000
  Fe  Fe10      1.0  0.15808  0.29028  0.96059  1.0000
  S   S19       1.0  0.14365  0.24986  0.93797  1.0000
  H   H166      1.0  0.21071  0.06084  0.65942  1.0000
  S   S20       1.0  0.14497  0.33804  0.95016  1.0000
  C   C94       1.0  0.01216  0.21479  0.84550  1.0000
  C   C95       1.0  0.23303  0.11131  0.73137  1.0000
  S   S21       1.0  0.21281  0.17140  0.68256  1.0000
  H   H167      1.0  0.15732  0.36725  0.76998  1.0000
  H   H168      1.0  0.22821  0.42855  0.84341  1.0000
  S   S22       1.0  0.21435  0.23923  0.65550  1.0000
  Fe  Fe11      1.0  0.19451  0.21840  0.68663  1.0000
  S   S23       1.0  0.15412  0.22489  0.68831  1.0000
  Fe  Fe12      1.0  0.23519  0.19413  0.65387  1.0000
  S   S24       1.0  0.22032  0.23626  0.71422  1.0000
  Fe  Fe13      1.0  0.05407  0.33055  0.75689  1.0000
  S   S25       1.0  0.04695  0.35409  0.79222  1.0000
  S   S26       1.0  0.09280  0.31330  0.75615  1.0000
  H   H169      1.0  0.17399  0.29720  0.91134  1.0000
  Fe  Fe14      1.0  0.02771  0.39118  0.77140  1.0000
  S   S27       1.0  0.03372  0.44396  0.77652  1.0000
  H   H170      1.0  0.16969  0.48376  0.92975  1.0000
  H   H171      1.0  0.07454  0.17639  0.69193  1.0000
  S   S28       1.0  0.03668  0.36972  0.73581  1.0000
  S   S29       1.0  0.02032  0.30150  0.75804  1.0000
  Fe  Fe15      1.0  0.03000  0.07696  0.88778  1.0000
  H   H172      1.0  0.20583  0.38849  0.75521  1.0000
  S   S30       1.0  0.03667  0.02435  0.88343  1.0000
  Fe  Fe16      1.0  0.04026  0.13376  0.92092  1.0000
  H   H173      1.0  0.09841  0.20756  0.72098  1.0000
  S   S31       1.0  0.05581  0.15654  0.95440  1.0000
  H   H174      1.0  0.19472  0.29527  0.88719  1.0000
  Fe  Fe17      1.0  0.03363  0.14285  0.86757  1.0000
  S   S32       1.0  0.04846  0.17280  0.83787  1.0000
  H   H175      1.0  0.07497  0.49117  0.87528  1.0000
  S   S33       1.0  0.05915  0.11375  0.88920  1.0000
  H   H176      1.0  0.09799  0.25882  0.80342  1.0000
  H   H177      1.0  0.08815  0.10616  0.77501  1.0000
  H   H178      1.0  0.12658  0.30202  0.83533  1.0000
  C   C96       1.0  0.03396  0.20908  0.83450  1.0000
  C   C97       1.0  0.04449  0.23265  0.82051  1.0000
  H   H179      1.0  0.06138  0.22845  0.81228  1.0000
  H   H180      1.0  0.12339  0.24695  0.82112  1.0000
  C   C98       1.0  0.18314  0.31074  0.66958  1.0000
  H   H181      1.0  0.09946  0.32944  0.90372  1.0000
  C   C99       1.0  0.25343  0.12511  0.74132  1.0000
  C   C100      1.0  0.03148  0.46264  0.80463  1.0000
  H   H182      1.0  0.10415  0.29323  0.96407  1.0000
  C   C101      1.0  0.02992  0.02034  0.83430  1.0000
  H   H183      1.0  0.04061  0.11952  0.79976  1.0000
  C   C102      1.0  0.01223  0.23728  0.93076  1.0000
  C   C103      1.0  0.02661  0.44559  0.82546  1.0000
  H   H184      1.0  0.04109  0.26600  0.94284  1.0000
  C   C104      1.0  0.09789  0.46352  0.83715  1.0000
  C   C105      1.0  0.08197  0.27305  0.89001  1.0000
  H   H185      1.0  0.23432  0.31323  0.87775  1.0000
  C   C106      1.0  0.13798  0.25148  0.70644  1.0000
  C   C107      1.0  0.11486  0.26036  0.69948  1.0000
  C   C108      1.0  0.10072  0.27937  0.71431  1.0000
  C   C109      1.0  0.10969  0.29003  0.73618  1.0000
  C   C110      1.0  0.13303  0.28182  0.74283  1.0000
  C   C111      1.0  0.14700  0.26243  0.72821  1.0000
  H   H186      1.0  0.10767  0.25196  0.68270  1.0000
  H   H187      1.0  0.08286  0.28556  0.70885  1.0000
  H   H188      1.0  0.14022  0.29023  0.75958  1.0000
  H   H189      1.0  0.16461  0.25547  0.73393  1.0000
  C   C112      1.0  0.11895  0.22467  0.94335  1.0000
  C   C113      1.0  0.10882  0.22105  0.96597  1.0000
  C   C114      1.0  0.08950  0.20004  0.96927  1.0000
  C   C115      1.0  0.08002  0.18287  0.94995  1.0000
  C   C116      1.0  0.09005  0.18679  0.92737  1.0000
  C   C117      1.0  0.10957  0.20723  0.92418  1.0000
  H   H190      1.0  0.11610  0.23403  0.98093  1.0000
  C   C118      1.0  0.02042  0.25046  0.97414  1.0000
  H   H191      1.0  0.08298  0.17368  0.91237  1.0000
  H   H192      1.0  0.11744  0.20954  0.90669  1.0000
  C   C119      1.0  0.15771  0.15764  0.74260  1.0000
  H   H193      1.0  0.05275  0.08151  0.79270  1.0000
  H   H194      1.0  0.06142  0.12012  0.76072  1.0000
  C   C120      1.0  0.20649  0.38286  0.73585  1.0000
  H   H195      1.0  0.12698  0.25574  0.78993  1.0000
  C   C121      1.0  0.06653  0.19644  0.70162  1.0000
  H   H196      1.0  0.01609  0.41516  0.69811  1.0000
  C   C122      1.0  0.15834  0.30418  0.87625  1.0000
  C   C123      1.0  0.16359  0.36838  0.73117  1.0000
  C   C124      1.0  0.15638  0.38427  0.75494  1.0000
  C   C125      1.0  0.21440  0.39704  0.89826  1.0000
  C   C126      1.0  0.21197  0.40580  0.87407  1.0000
  C   C127      1.0  0.23051  0.42162  0.86187  1.0000
  H   H197      1.0  0.09961  0.20067  0.81254  1.0000
  C   C128      1.0  0.17649  0.28876  0.89284  1.0000
  H   H198      1.0  0.22469  0.34428  0.80091  1.0000
  S   S34       1.0  0.25345  0.30570  0.68137  1.0000
  H   H199      1.0  0.12886  0.41399  0.73913  1.0000
  H   H200      1.0  0.04740  0.19145  0.70486  1.0000
  H   H201      1.0  0.09429  0.46049  0.88420  1.0000
  H   H202      1.0  0.21225  0.06863  0.72759  1.0000
  H   H203      1.0  0.21089  0.09077  0.68241  1.0000
  C   C129      1.0  0.02828  0.00356  0.81267  1.0000
  H   H204      1.0  0.12745  0.19860  0.79683  1.0000
  C   C130      1.0  0.13080  0.39615  0.75356  1.0000
  H   H205      1.0  0.24155  0.35758  0.85443  1.0000
  H   H206      1.0  0.06747  0.10621  0.81441  1.0000
  H   H207      1.0  0.07655  0.29943  0.85778  1.0000
  H   H208      1.0  0.24073  0.42934  0.72692  1.0000
  H   H209      1.0  0.04943  0.25424  0.87391  1.0000
  H   H210      1.0  0.14124  0.46303  0.88546  1.0000
  H   H211      1.0  0.13073  0.29641  0.90256  1.0000
  C   C131      1.0  0.11999  0.32240  0.84579  1.0000
  H   H212      1.0  0.12207  0.33692  0.79764  1.0000
  S   S35       1.0  0.18269  0.36913  0.98793  1.0000
  N   N6        1.0  0.18894  0.35703  0.72971  1.0000
  C   C132      1.0  0.19351  0.34646  0.70446  1.0000
  C   C133      1.0  0.19212  0.33036  0.74727  1.0000
  C   C134      1.0  0.21672  0.31414  0.74722  1.0000
  C   C135      1.0  0.18007  0.31626  0.69629  1.0000
  H   H213      1.0  0.11572  0.46650  0.92017  1.0000
  C   C136      1.0  0.21721  0.28623  0.76454  1.0000
  H   H214      1.0  0.15091  0.34838  0.72870  1.0000
  H   H215      1.0  0.18854  0.36540  0.69163  1.0000
  H   H216      1.0  0.21283  0.34263  0.70149  1.0000
  H   H217      1.0  0.17824  0.31200  0.74441  1.0000
  H   H218      1.0  0.18948  0.33880  0.76580  1.0000
  H   H219      1.0  0.22498  0.37475  0.73274  1.0000
  H   H220      1.0  0.23096  0.33079  0.75288  1.0000
  H   H221      1.0  0.22107  0.30516  0.72926  1.0000
  H   H222      1.0  0.18700  0.29523  0.70578  1.0000
  H   H223      1.0  0.16073  0.31784  0.69959  1.0000
  H   H224      1.0  0.17520  0.33033  0.65909  1.0000
  H   H225      1.0  0.16963  0.16976  0.72967  1.0000
  H   H226      1.0  0.20356  0.26838  0.75947  1.0000
  H   H227      1.0  0.21386  0.29407  0.78308  1.0000
  N   N7        1.0  0.09279  0.17370  0.76459  1.0000
  C   C137      1.0  0.09621  0.20699  0.77355  1.0000
  C   C138      1.0  0.07742  0.17353  0.74226  1.0000
  C   C139      1.0  0.07964  0.15543  0.78369  1.0000
  C   C140      1.0  0.11620  0.15754  0.76026  1.0000
  C   C141      1.0  0.13367  0.17424  0.74298  1.0000
  C   C142      1.0  0.11002  0.21060  0.79749  1.0000
  C   C143      1.0  0.07222  0.12109  0.77733  1.0000
  C   C144      1.0  0.11246  0.35462  0.80841  1.0000
  H   H228      1.0  0.13530  0.33892  0.84713  1.0000
  H   H229      1.0  0.10336  0.44003  0.84397  1.0000
  C   C145      1.0  0.11481  0.24522  0.80328  1.0000
  C   C146      1.0  0.05738  0.10626  0.79728  1.0000
  H   H230      1.0  0.07854  0.21828  0.77578  1.0000
  H   H231      1.0  0.10546  0.22203  0.76024  1.0000
  H   H232      1.0  0.08060  0.15177  0.73173  1.0000
  H   H233      1.0  0.05818  0.17278  0.74703  1.0000
  H   H234      1.0  0.06322  0.16832  0.78878  1.0000
  H   H235      1.0  0.09053  0.15346  0.80027  1.0000
  H   H236      1.0  0.12565  0.15315  0.77745  1.0000
  H   H237      1.0  0.11310  0.13371  0.75261  1.0000
  H   H238      1.0  0.13719  0.19899  0.74814  1.0000
  H   H239      1.0  0.12655  0.17347  0.72449  1.0000
  H   H240      1.0  0.18013  0.46027  0.90530  1.0000
  N   N8        1.0  0.11227  0.31132  0.87021  1.0000
  H   H241      1.0  0.02401  0.42032  0.82459  1.0000
  H   H242      1.0  0.15953  0.38494  0.71625  1.0000
  H   H243      1.0  0.22091  0.12540  0.72088  1.0000
  C   C147      1.0  0.23082  0.36786  0.80691  1.0000
  H   H244      1.0  0.03205  0.22927  0.97532  1.0000
  H   H245      1.0  0.06085  0.46939  0.90987  1.0000
  H   H246      1.0  0.22038  0.46025  0.71894  1.0000
  C   C148      1.0  0.12061  0.36640  0.88851  1.0000
  S   S36       1.0  0.24232  0.16793  0.61902  1.0000
  C   C149      1.0  0.10942  0.39198  0.90381  1.0000
  H   H247      1.0  0.20670  0.40983  0.70216  1.0000
  C   C150      1.0  0.02532  0.46124  0.84755  1.0000
  H   H248      1.0  0.05844  0.23508  0.90126  1.0000
  C   C151      1.0  0.06497  0.24576  0.88439  1.0000
  H   H249      1.0  0.16796  0.40477  0.75917  1.0000
  H   H250      1.0  0.12523  0.37731  0.87112  1.0000
  H   H251      1.0  0.08768  0.32154  0.82344  1.0000
  H   H252      1.0  0.09859  0.36546  0.79691  1.0000
  H   H253      1.0  0.12232  0.41167  0.90606  1.0000
  C   C152      1.0  0.20391  0.41395  0.72147  1.0000
  H   H254      1.0  0.07186  0.29076  0.90027  1.0000
  H   H255      1.0  0.09762  0.26872  0.85473  1.0000
  H   H256      1.0  0.23787  0.39808  0.92871  1.0000
  H   H257      1.0  0.25015  0.13868  0.57384  1.0000
  H   H258      1.0  0.17395  0.28849  0.66443  1.0000
  H   H259      1.0  0.13706  0.35890  0.89781  1.0000
  C   C153      1.0  0.24029  0.09430  0.65731  1.0000
  H   H260      1.0  0.23496  0.27493  0.76400  1.0000
  H   H261      1.0  0.17462  0.26268  0.89252  1.0000
  H   H262      1.0  0.02816  0.04571  0.83434  1.0000
  C   C154      1.0  0.25108  0.30810  0.88746  1.0000
  C   C155      1.0  0.03481  0.49545  0.80607  1.0000
  H   H263      1.0  0.06893  0.25940  0.97222  1.0000
  H   H264      1.0  0.16241  0.29652  0.85779  1.0000
  C   C156      1.0  0.22241  0.43827  0.72957  1.0000
  H   H265      1.0  0.11823  0.37631  0.75013  1.0000
  C   C157      1.0  0.03324  0.26169  0.81723  1.0000
  S   S37       1.0  0.23730  0.02016  0.75270  1.0000
  C   C158      1.0  0.22809  0.07919  0.73529  1.0000
  H   H266      1.0  0.18612  0.42451  0.72386  1.0000
  H   H267      1.0  0.04060  0.31026  0.96978  1.0000
  H   H268      1.0  0.09629  0.26389  0.90172  1.0000
  C   C159      1.0  0.10094  0.33897  0.83014  1.0000
  H   H269      1.0  0.09152  0.35755  0.84010  1.0000
  H   H270      1.0  0.15554  0.13272  0.73693  1.0000
  C   C160      1.0  0.07069  0.28240  0.98130  1.0000
  C   C161      1.0  0.08626  0.30383  0.96587  1.0000
  H   H271      1.0  0.07841  0.30650  0.94775  1.0000
  C   C162      1.0  0.10343  0.33806  0.88536  1.0000
  H   H272      1.0  0.12507  0.37348  0.81404  1.0000
  C   C163      1.0  0.02225  0.26200  0.94785  1.0000
  C   C164      1.0  0.21452  0.08603  0.66331  1.0000
  C   C165      1.0  0.25414  0.42052  0.89797  1.0000
  H   H273      1.0  0.16632  0.15838  0.76049  1.0000
  Fe  Fe18      1.0  0.24023  0.19128  0.70771  1.0000
  C   C166      1.0  0.04595  0.29699  0.98598  1.0000
  N   N9        1.0  0.02682  0.27389  0.99346  1.0000
  C   C167      1.0  0.07970  0.20221  0.72516  1.0000
  C   C168      1.0  0.13249  0.29433  0.88283  1.0000
  H   H274      1.0  0.10500  0.38258  0.92180  1.0000
  C   C169      1.0  0.24358  0.06065  0.74904  1.0000
  H   H275      1.0  0.12592  0.40728  0.77073  1.0000
  H   H276      1.0  0.20239  0.10079  0.65231  1.0000
  H   H277      1.0  0.13165  0.26846  0.87937  1.0000
  C   C170      1.0  0.10602  0.48953  0.85423  1.0000
  H   H278      1.0  0.09303  0.40117  0.89514  1.0000
  C   C171      1.0  0.14536  0.48100  0.89923  1.0000
  H   H279      1.0  0.20226  0.30876  0.66507  1.0000
  H   H280      1.0  0.06794  0.21779  0.69016  1.0000
  C   C172      1.0  0.12255  0.48928  0.91311  1.0000
  C   C173      1.0  0.16417  0.46665  0.91579  1.0000
  H   H281      1.0  0.16119  0.32997  0.87730  1.0000
  C   C174      1.0  0.23571  0.40437  0.91010  1.0000
  C   C175      1.0  0.09201  0.28811  0.86678  1.0000
  H   H282      1.0  0.07185  0.22346  0.73347  1.0000
  H   H283      1.0  0.22004  0.44417  0.74870  1.0000
  H   H284      1.0  0.03856  0.47117  0.94731  1.0000
  H   H285      1.0  0.04149  0.27970  0.80629  1.0000
  C   C176      1.0  0.09398  0.48583  0.87899  1.0000
  H   H286      1.0  0.08832  0.32739  0.97419  1.0000
  H   H287      1.0  0.07414  0.22710  0.87416  1.0000
  H   H288      1.0  0.08615  0.34696  0.87841  1.0000
  C   C177      1.0  0.02862  0.49406  0.84900  1.0000
  C   C178      1.0  0.25789  0.07398  0.67212  1.0000
  C   C179      1.0  0.24558  0.30918  0.91411  1.0000
  H   H289      1.0  0.12565  0.48898  0.85534  1.0000
  H   H290      1.0  0.24294  0.11971  0.66099  1.0000
  C   C180      1.0  0.06879  0.48278  0.92495  1.0000
  H   H291      1.0  0.07825  0.46383  0.83491  1.0000
  H   H292      1.0  0.24257  0.09046  0.63789  1.0000
  S   S38       1.0  0.01669  0.16494  0.89922  1.0000
  C   C181      1.0  0.25175  0.42920  0.87377  1.0000
  H   H293      1.0  0.15730  0.44484  0.92448  1.0000
  H   H294      1.0  0.02171  0.44783  0.86360  1.0000
  H   H295      1.0  0.10603  0.46733  0.81936  1.0000
  H   H296      1.0  0.23195  0.29100  0.91844  1.0000
  C   C182      1.0  0.03410  0.00429  0.85577  1.0000
  H   H297      1.0  0.23843  0.33261  0.91903  1.0000
  H   H298      1.0  0.21736  0.37811  0.81898  1.0000
  H   H299      1.0  0.08033  0.46668  0.93538  1.0000
  Fe  Fe19      1.0  0.14545  0.34892  0.98921  1.0000
  H   H300      1.0  0.02533  0.01622  0.79615  1.0000
  S   S39       1.0  0.01342  0.09412  0.92196  1.0000
  H   H301      1.0  0.08196  0.19699  0.98683  1.0000
  H   H302      1.0  0.23256  0.38331  0.79098  1.0000
  H   H303      1.0  0.25422  0.04875  0.66805  1.0000
  C   C183      1.0  0.01141  0.26737  0.82814  1.0000
  C   C184      1.0  0.04839  0.49248  0.94119  1.0000
  H   H304      1.0  0.25281  0.07664  0.69115  1.0000
  H   H305      1.0  0.01265  0.28426  0.94465  1.0000
  H   H306      1.0  0.02198  0.21482  0.93316  1.0000
  H   H307      1.0  0.01439  0.24533  0.91200  1.0000
  H   H308      1.0  0.24300  0.32265  0.83733  1.0000
  C   C185      1.0  0.25326  0.34428  0.84214  1.0000
  C   C186      1.0  0.25490  0.36545  0.81959  1.0000
  H   H309      1.0  0.25651  0.28368  0.88321  1.0000
  Fe  Fe20      1.0  0.19353  0.31922  0.99696  1.0000
  H   H310      1.0  0.15971  0.66627  0.15607  1.0000
  H   H311      1.0  0.02139  0.61913  0.15329  1.0000
  S   S40       1.0  0.22196  0.79129  0.03014  1.0000
  Fe  Fe21      1.0  0.18273  0.57496  0.28728  1.0000
  S   S41       1.0  0.19984  0.59568  0.25484  1.0000
  S   S42       1.0  0.14348  0.55963  0.28703  1.0000
  Fe  Fe22      1.0  0.23133  0.57175  0.31496  1.0000
  Fe  Fe23      1.0  0.22066  0.62583  0.28051  1.0000
  Fe  Fe24      1.0  0.01936  0.80908  0.08387  1.0000
  Fe  Fe25      1.0  0.22853  0.55990  0.26096  1.0000
  H   H312      1.0  0.06957  0.92601  0.05363  1.0000
  S   S43       1.0  0.20170  0.60742  0.31325  1.0000
  S   S44       1.0  0.21059  0.53737  0.29211  1.0000
  C   C187      1.0  0.18804  0.54689  0.19650  1.0000
  H   H313      1.0  0.25630  0.92387  0.27532  1.0000
  S   S45       1.0  0.05619  0.60059  0.21973  1.0000
  S   S46       1.0  0.05895  0.80288  0.07911  1.0000
  H   H314      1.0  0.23703  0.89956  0.21336  1.0000
  S   S47       1.0  0.25114  0.59216  0.28353  1.0000
  C   C188      1.0  0.17594  0.67862  0.14955  1.0000
  C   C189      1.0  0.19056  0.92828  0.17923  1.0000
  C   C190      1.0  0.24993  0.92421  0.16621  1.0000
  C   C191      1.0  0.10660  0.93175  0.06160  1.0000
  H   H315      1.0  0.24019  0.90814  0.15408  1.0000
  C   C192      1.0  0.11971  0.57086  0.26760  1.0000
  C   C193      1.0  0.09723  0.55657  0.27051  1.0000
  C   C194      1.0  0.07773  0.56488  0.25580  1.0000
  C   C195      1.0  0.08041  0.58794  0.23809  1.0000
  C   C196      1.0  0.10297  0.60204  0.23500  1.0000
  C   C197      1.0  0.12254  0.59345  0.24955  1.0000
  H   H316      1.0  0.09477  0.53922  0.28449  1.0000
  H   H317      1.0  0.06053  0.55390  0.25852  1.0000
  H   H318      1.0  0.10529  0.61989  0.22138  1.0000
  H   H319      1.0  0.13970  0.60462  0.24709  1.0000
  H   H320      1.0  0.07733  0.83082  0.13121  1.0000
  S   S48       1.0  0.00998  0.55579  0.18139  1.0000
  C   C198      1.0  0.08154  0.92200  0.06916  1.0000
  H   H321      1.0  0.03629  0.54766  0.13311  1.0000
  H   H322      1.0  0.10730  0.95725  0.05710  1.0000
  H   H323      1.0  0.00828  0.68855  0.23323  1.0000
  C   C199      1.0  0.23289  0.81095  0.05614  1.0000
  H   H324      1.0  0.03578  0.97741  0.10070  1.0000
  C   C200      1.0  0.21150  0.84569  0.22375  1.0000
  C   C201      1.0  0.20795  0.94922  0.21606  1.0000
  C   C202      1.0  0.22683  0.84205  0.06150  1.0000
  H   H325      1.0  0.08050  0.86376  0.15126  1.0000
  H   H326      1.0  0.15392  0.89356  0.15706  1.0000
  C   C203      1.0  0.10345  0.85336  0.02213  1.0000
  C   C204      1.0  0.11368  0.83138  0.03764  1.0000
  C   C205      1.0  0.09978  0.81632  0.05506  1.0000
  C   C206      1.0  0.07553  0.82305  0.05717  1.0000
  C   C207      1.0  0.06521  0.84527  0.04184  1.0000
  C   C208      1.0  0.07921  0.86056  0.02446  1.0000
  H   H327      1.0  0.05128  0.84770  0.14448  1.0000
  C   C209      1.0  0.04001  0.49999  0.11976  1.0000
  H   H328      1.0  0.04650  0.85058  0.04331  1.0000
  C   C210      1.0  0.17858  0.67473  0.20074  1.0000
  C   C211      1.0  0.17963  0.68084  0.22802  1.0000
  H   H329      1.0  0.21485  0.85474  0.04982  1.0000
  H   H330      1.0  0.02532  0.75202  0.15954  1.0000
  C   C212      1.0  0.15469  0.68439  0.23833  1.0000
  H   H331      1.0  0.16803  0.65265  0.19801  1.0000
  H   H332      1.0  0.16762  0.69384  0.19301  1.0000
  H   H333      1.0  0.05015  0.95875  0.15179  1.0000
  H   H334      1.0  0.02509  0.78869  0.03667  1.0000
  H   H335      1.0  0.18799  0.66087  0.23758  1.0000
  H   H336      1.0  0.18971  0.70273  0.23218  1.0000
  H   H337      1.0  0.04407  0.71608  0.24213  1.0000
  H   H338      1.0  0.17836  0.64890  0.11795  1.0000
  H   H339      1.0  0.23853  0.90409  0.03123  1.0000
  H   H340      1.0  0.02041  0.95200  0.12057  1.0000
  H   H341      1.0  0.15606  0.68790  0.25794  1.0000
  H   H342      1.0  0.14562  0.70511  0.23037  1.0000
  H   H343      1.0  0.14384  0.66284  0.23502  1.0000
  H   H344      1.0  0.24667  0.71327  0.49139  1.0000
  H   H345      1.0  0.19398  0.50177  0.22823  1.0000
  H   H346      1.0  0.13241  0.82615  0.03639  1.0000
  H   H347      1.0  0.16042  0.68362  0.11416  1.0000
  H   H348      1.0  0.21525  0.78221  0.17880  1.0000
  H   H349      1.0  0.21426  0.67193  0.15148  1.0000
  C   C213      1.0  0.01702  0.78301  0.01906  1.0000
  C   C214      1.0  0.02754  0.53189  0.11988  1.0000
  C   C215      1.0  0.03287  0.91546  0.08607  1.0000
  S   S49       1.0  0.12050  0.87163  0.99954  1.0000
  H   H350      1.0  0.19715  0.88304  0.16085  1.0000
  H   H351      1.0  0.02286  0.81583  0.20379  1.0000
  H   H352      1.0  0.02397  0.64854  0.12988  1.0000
  H   H353      1.0  0.16811  0.89039  0.12843  1.0000
  H   H354      1.0  0.18230  0.56039  0.18049  1.0000
  H   H355      1.0  0.24082  0.75731  0.18249  1.0000
  C   C216      1.0  0.24567  0.72767  0.25132  1.0000
  C   C217      1.0  0.20678  0.73227  0.18086  1.0000
  C   C218      1.0  0.06703  0.87551  0.11570  1.0000
  H   H356      1.0  0.23471  0.69859  0.18221  1.0000
  H   H357      1.0  0.05145  0.74411  0.00704  1.0000
  C   C219      1.0  0.23894  0.63511  0.18709  1.0000
  C   C220      1.0  0.20280  0.98473  0.21162  1.0000
  C   C221      1.0  0.03853  0.95852  0.11427  1.0000
  H   H358      1.0  0.06559  0.77774  0.01972  1.0000
  H   H359      1.0  0.18487  0.99199  0.24563  1.0000
  H   H360      1.0  0.25318  0.77077  0.06784  1.0000
  H   H361      1.0  0.25269  0.65376  0.18908  1.0000
  N   N10       1.0  0.03651  0.70200  0.19200  1.0000
  C   C222      1.0  0.21723  0.70140  0.19109  1.0000
  C   C223      1.0  0.05271  0.72499  0.17931  1.0000
  C   C224      1.0  0.07335  0.68581  0.25033  1.0000
  C   C225      1.0  0.05054  0.68523  0.21119  1.0000
  C   C226      1.0  0.05922  0.70569  0.23243  1.0000
  H   H362      1.0  0.11964  0.92660  0.07605  1.0000
  C   C227      1.0  0.04555  0.65795  0.16153  1.0000
  C   C228      1.0  0.04243  0.74016  0.15616  1.0000
  C   C229      1.0  0.05946  0.76492  0.14600  1.0000
  C   C230      1.0  0.24502  0.69491  0.25502  1.0000
  H   H363      1.0  0.04759  0.62088  0.13509  1.0000
  C   C231      1.0  0.03380  0.63531  0.14386  1.0000
  C   C232      1.0  0.00865  0.81857  0.19010  1.0000
  H   H364      1.0  0.01542  0.66045  0.18461  1.0000
  H   H365      1.0  0.05767  0.74470  0.19143  1.0000
  H   H366      1.0  0.06988  0.71368  0.17473  1.0000
  H   H367      1.0  0.04081  0.89556  0.07625  1.0000
  H   H368      1.0  0.04017  0.66495  0.21848  1.0000
  H   H369      1.0  0.07919  0.70066  0.26559  1.0000
  H   H370      1.0  0.06677  0.67446  0.20355  1.0000
  H   H371      1.0  0.23399  0.74265  0.26143  1.0000
  H   H372      1.0  0.07100  0.72507  0.22618  1.0000
  C   C233      1.0  0.17690  0.67426  0.12251  1.0000
  H   H373      1.0  0.22131  0.76454  0.20746  1.0000
  H   H374      1.0  0.05595  0.64332  0.17425  1.0000
  H   H375      1.0  0.05803  0.67315  0.15139  1.0000
  H   H376      1.0  0.03941  0.72221  0.14209  1.0000
  H   H377      1.0  0.11178  0.91821  0.04552  1.0000
  H   H378      1.0  0.07674  0.75412  0.14132  1.0000
  H   H379      1.0  0.05160  0.77529  0.12952  1.0000
  H   H380      1.0  0.06250  0.78417  0.15906  1.0000
  H   H381      1.0  0.24106  0.60444  0.37403  1.0000
  H   H382      1.0  0.19651  0.63869  0.15933  1.0000
  H   H383      1.0  0.01459  0.68868  0.16164  1.0000
  H   H384      1.0  0.08937  0.67575  0.24182  1.0000
  H   H385      1.0  0.23656  0.58489  0.19476  1.0000
  C   C234      1.0  0.00944  0.92048  0.04716  1.0000
  H   H386      1.0  0.25082  0.69493  0.45225  1.0000
  S   S50       1.0  0.24228  0.53253  0.22928  1.0000
  H   H387      1.0  0.13995  0.72898  0.00970  1.0000
  H   H388      1.0  0.18583  0.95223  0.17275  1.0000
  H   H389      1.0  0.10791  0.79928  0.06694  1.0000
  C   C235      1.0  0.02169  0.93830  0.06749  1.0000
  C   C236      1.0  0.01609  0.72017  0.20244  1.0000
  H   H390      1.0  0.09886  0.71029  0.99952  1.0000
  H   H391      1.0  0.22325  0.94780  0.22880  1.0000
  H   H392      1.0  0.21747  0.99661  0.20187  1.0000
  C   C237      1.0  0.02673  0.67768  0.17494  1.0000
  H   H393      1.0  0.25131  0.60762  0.21779  1.0000
  H   H394      1.0  0.20359  0.91798  0.14336  1.0000
  C   C238      1.0  0.12536  0.72989  0.02292  1.0000
  H   H395      1.0  0.03936  0.90189  0.13317  1.0000
  H   H396      1.0  0.20663  0.73131  0.16107  1.0000
  H   H397      1.0  0.19854  0.83298  0.23524  1.0000
  C   C239      1.0  0.22202  0.76074  0.18788  1.0000
  H   H398      1.0  0.05907  0.50445  0.11598  1.0000
  N   N11       1.0  0.20217  0.67208  0.18815  1.0000
  H   H399      1.0  0.17383  0.70405  0.15309  1.0000
  C   C240      1.0  0.05167  0.97403  0.13571  1.0000
  C   C241      1.0  0.05589  0.90721  0.12302  1.0000
  H   H400      1.0  0.06218  0.66615  0.25734  1.0000
  H   H401      1.0  0.00928  0.91427  0.17992  1.0000
  H   H402      1.0  0.02852  0.54337  0.10206  1.0000
  H   H403      1.0  0.07121  0.87766  0.01257  1.0000
  H   H404      1.0  0.01102  0.75805  0.01929  1.0000
  N   N12       1.0  0.21295  0.92967  0.19416  1.0000
  H   H405      1.0  0.08755  0.73174  0.02456  1.0000
  H   H406      1.0  0.17518  0.92065  0.19030  1.0000
  H   H407      1.0  0.08801  0.94221  0.10427  1.0000
  C   C242      1.0  0.22045  0.89738  0.20263  1.0000
  H   H408      1.0  0.22833  0.67944  0.48792  1.0000
  C   C243      1.0  0.23294  0.94560  0.18054  1.0000
  H   H409      1.0  0.24490  0.95867  0.19300  1.0000
  H   H410      1.0  0.03529  0.95433  0.05974  1.0000
  H   H411      1.0  0.18610  0.98775  0.20126  1.0000
  H   H412      1.0  0.22575  0.96382  0.16814  1.0000
  H   H413      1.0  0.18504  0.87598  0.20858  1.0000
  H   H414      1.0  0.02280  0.74092  0.21261  1.0000
  C   C244      1.0  0.19138  0.90737  0.15668  1.0000
  N   N13       1.0  0.05049  0.93033  0.10318  1.0000
  H   H415      1.0  0.16036  0.92869  0.13964  1.0000
  C   C245      1.0  0.20232  0.87871  0.21802  1.0000
  S   S51       1.0  0.22376  0.67862  0.27466  1.0000
  C   C246      1.0  0.06911  0.85320  0.13708  1.0000
  H   H416      1.0  0.19245  0.56377  0.21090  1.0000
  H   H417      1.0  0.20424  0.53343  0.19191  1.0000
  H   H418      1.0  0.22877  0.84708  0.23349  1.0000
  H   H419      1.0  0.06867  0.91759  0.13607  1.0000
  C   C247      1.0  0.10120  0.73190  0.01038  1.0000
  H   H420      1.0  0.07135  0.96597  0.08450  1.0000
  H   H421      1.0  0.22521  0.88192  0.18750  1.0000
  C   C248      1.0  0.16688  0.90496  0.14481  1.0000
  H   H422      1.0  0.19226  0.93981  0.22584  1.0000
  C   C249      1.0  0.25167  0.84062  0.09777  1.0000
  H   H423      1.0  0.19939  0.89062  0.23534  1.0000
  H   H424      1.0  0.08169  0.89637  0.07264  1.0000
  H   H425      1.0  0.20367  0.62362  0.20026  1.0000
  C   C250      1.0  0.07311  0.94127  0.09108  1.0000
  H   H426      1.0  0.21390  0.83197  0.20712  1.0000
  H   H427      1.0  0.22182  0.70512  0.21016  1.0000
  H   H428      1.0  0.05615  0.86335  0.10199  1.0000
  C   C251      1.0  0.23628  0.85679  0.08209  1.0000
  C   C252      1.0  0.19833  0.66465  0.16197  1.0000
  H   H429      1.0  0.17225  0.52438  0.24238  1.0000
  H   H430      1.0  0.07077  0.97797  0.13172  1.0000
  H   H431      1.0  0.19234  0.68731  0.11494  1.0000
  H   H432      1.0  0.02228  0.90525  0.03771  1.0000
  H   H433      1.0  0.23324  0.90972  0.99973  1.0000
  H   H434      1.0  0.12820  0.75055  0.03475  1.0000
  H   H435      1.0  0.12608  0.70817  0.03401  1.0000
  H   H436      1.0  0.08531  0.87941  0.10897  1.0000
  C   C253      1.0  0.21542  0.64488  0.19942  1.0000
  H   H437      1.0  0.01792  0.90450  0.09613  1.0000
  H   H438      1.0  0.23154  0.88088  0.08596  1.0000
  H   H439      1.0  0.24862  0.62897  0.48022  1.0000
  H   H440      1.0  0.18857  0.73658  0.18743  1.0000
  H   H441      1.0  0.23645  0.63053  0.16777  1.0000
  H   H442      1.0  0.22039  0.65034  0.21821  1.0000
  Fe  Fe26      1.0  0.01803  0.58105  0.21579  1.0000
  H   H443      1.0  0.25253  0.98187  0.27819  1.0000
  C   C254      1.0  0.25441  0.59105  0.38358  1.0000
  H   H444      1.0  0.01540  0.83429  0.17571  1.0000
  S   S52       1.0  0.25377  0.54955  0.34500  1.0000
  H   H445      1.0  0.10538  0.78236  0.00540  1.0000
  C   C255      1.0  0.16820  0.52445  0.20430  1.0000
  H   H446      1.0  0.15186  0.53858  0.20697  1.0000
  C   C256      1.0  0.24883  0.60499  0.19822  1.0000
  C   C257      1.0  0.24835  0.79482  0.07175  1.0000
  H   H447      1.0  0.16894  0.50471  0.27821  1.0000
  C   C258      1.0  0.05742  0.76861  0.00288  1.0000
  H   H448      1.0  0.25415  0.62121  0.41440  1.0000
  H   H449      1.0  0.24009  0.85317  0.01097  1.0000
  H   H450      1.0  0.16488  0.50816  0.18927  1.0000
  C   C259      1.0  0.24677  0.90287  0.01329  1.0000
  H   H451      1.0  0.03984  0.81445  0.99979  1.0000
  C   C260      1.0  0.03494  0.78903  0.99917  1.0000
  S   S53       1.0  0.15863  0.79522  0.99835  1.0000
  H   H452      1.0  0.25618  0.65371  0.44881  1.0000
  C   C261      1.0  0.25548  0.86941  0.00883  1.0000
  Fe  Fe27      1.0  0.19740  0.80952  0.00042  1.0000
  H   H453      1.0  0.25760  0.95820  0.13794  1.0000
  H   H454      1.0  0.00905  0.66908  0.99859  1.0000
  C   C262      1.0  0.17460  0.50688  0.22787  1.0000
  H   H455      1.0  0.13217  0.50548  0.24792  1.0000
  C   C263      1.0  0.25761  0.80946  0.09248  1.0000
  H   H456      1.0  0.00857  0.52898  0.12499  1.0000
  Fe  Fe28      1.0  0.24044  0.74428  0.68710  1.0000
  C   C264      1.0  0.21262  0.92390  0.71601  1.0000
  H   H457      1.0  0.01176  0.74847  0.77745  1.0000
  Fe  Fe29      1.0  0.19608  0.84561  0.95271  1.0000
  S   S54       1.0  0.20380  0.79513  0.96214  1.0000
  S   S55       1.0  0.21556  0.86187  0.91894  1.0000
  Fe  Fe30      1.0  0.16443  0.78589  0.95930  1.0000
  S   S56       1.0  0.14605  0.75418  0.93174  1.0000
  H   H458      1.0  0.04617  0.76989  0.94205  1.0000
  S   S57       1.0  0.15710  0.83584  0.94863  1.0000
  C   C265      1.0  0.20288  0.84220  0.71417  1.0000
  Fe  Fe31      1.0  0.23585  0.68101  0.71194  1.0000
  S   S58       1.0  0.20678  0.66469  0.68720  1.0000
  H   H459      1.0  0.25580  0.59050  0.62739  1.0000
  H   H460      1.0  0.20822  0.80803  0.68604  1.0000
  S   S59       1.0  0.21188  0.73263  0.66010  1.0000
  Fe  Fe32      1.0  0.19157  0.71356  0.69172  1.0000
  S   S60       1.0  0.15164  0.72128  0.69747  1.0000
  Fe  Fe33      1.0  0.22967  0.68518  0.65780  1.0000
  S   S61       1.0  0.21908  0.72812  0.71866  1.0000
  Fe  Fe34      1.0  0.06336  0.84328  0.76378  1.0000
  S   S62       1.0  0.05900  0.86728  0.79933  1.0000
  S   S63       1.0  0.10236  0.83152  0.75656  1.0000
  H   H461      1.0  0.16081  0.95563  0.87589  1.0000
  Fe  Fe35      1.0  0.03144  0.89728  0.78162  1.0000
  S   S64       1.0  0.02800  0.95046  0.78469  1.0000
  Fe  Fe36      1.0  0.02935  0.83267  0.80492  1.0000
  H   H462      1.0  0.23714  0.60864  0.70757  1.0000
  S   S65       1.0  0.03783  0.87638  0.74526  1.0000
  S   S66       1.0  0.03485  0.80732  0.77044  1.0000
  Fe  Fe37      1.0  0.02849  0.56547  0.88313  1.0000
  H   H463      1.0  0.16853  0.87678  0.85098  1.0000
  H   H464      1.0  0.18366  0.98425  0.84519  1.0000
  Fe  Fe38      1.0  0.05325  0.61783  0.91219  1.0000
  H   H465      1.0  0.20998  0.73601  0.51170  1.0000
  S   S67       1.0  0.08198  0.62982  0.93956  1.0000
  H   H466      1.0  0.11351  0.75913  0.98046  1.0000
  Fe  Fe39      1.0  0.03201  0.63187  0.86348  1.0000
  S   S68       1.0  0.03763  0.66015  0.82986  1.0000
  H   H467      1.0  0.24697  0.62749  0.53481  1.0000
  S   S69       1.0  0.05975  0.59744  0.87585  1.0000
  H   H468      1.0  0.10090  0.51246  0.84608  1.0000
  S   S70       1.0  0.02417  0.58282  0.92093  1.0000
  H   H469      1.0  0.14008  0.94612  0.95761  1.0000
  C   C266      1.0  0.03486  0.70097  0.83365  1.0000
  C   C267      1.0  0.04477  0.72131  0.81666  1.0000
  C   C268      1.0  0.04249  0.75397  0.81906  1.0000
  S   S71       1.0  0.02760  0.51242  0.87733  1.0000
  C   C269      1.0  0.20797  0.71361  0.52184  1.0000
  H   H470      1.0  0.05420  0.71179  0.80161  1.0000
  H   H471      1.0  0.05078  0.76941  0.80629  1.0000
  C   C270      1.0  0.03059  0.97059  0.81229  1.0000
  H   H472      1.0  0.15117  0.83987  0.89519  1.0000
  C   C271      1.0  0.08294  0.51220  0.91612  1.0000
  H   H473      1.0  0.11194  0.90451  0.77040  1.0000
  C   C272      1.0  0.03655  0.97132  0.85534  1.0000
  C   C273      1.0  0.03473  0.95451  0.83374  1.0000
  C   C274      1.0  0.23863  0.58568  0.51528  1.0000
  H   H474      1.0  0.03606  0.53637  0.82903  1.0000
  H   H475      1.0  0.24954  0.80609  0.98575  1.0000
  H   H476      1.0  0.03656  0.92916  0.83371  1.0000
  C   C275      1.0  0.13820  0.75211  0.71398  1.0000
  C   C276      1.0  0.15155  0.77258  0.72837  1.0000
  C   C277      1.0  0.14013  0.79630  0.74151  1.0000
  C   C278      1.0  0.11533  0.80018  0.74028  1.0000
  C   C279      1.0  0.10189  0.77937  0.72627  1.0000
  C   C280      1.0  0.11330  0.75554  0.71317  1.0000
  H   H477      1.0  0.17066  0.77002  0.72942  1.0000
  H   H478      1.0  0.15058  0.81170  0.75277  1.0000
  H   H479      1.0  0.08279  0.78196  0.72517  1.0000
  H   H480      1.0  0.10278  0.73978  0.70215  1.0000
  C   C281      1.0  0.12860  0.71936  0.93447  1.0000
  C   C282      1.0  0.12860  0.70093  0.95521  1.0000
  C   C283      1.0  0.11428  0.67353  0.95651  1.0000
  C   C284      1.0  0.09975  0.66440  0.93717  1.0000
  C   C285      1.0  0.09984  0.68277  0.91639  1.0000
  C   C286      1.0  0.11427  0.71000  0.91504  1.0000
  H   H481      1.0  0.13992  0.70747  0.97005  1.0000
  H   H482      1.0  0.11454  0.65927  0.97255  1.0000
  H   H483      1.0  0.08881  0.67595  0.90135  1.0000
  H   H484      1.0  0.11420  0.72404  0.89888  1.0000
  C   C287      1.0  0.19907  0.87975  0.78992  1.0000
  H   H485      1.0  0.24387  0.71289  0.53463  1.0000
  H   H486      1.0  0.13566  0.93468  0.83629  1.0000
  S   S72       1.0  0.02775  0.65429  0.89926  1.0000
  H   H487      1.0  0.10674  0.83746  0.92384  1.0000
  S   S73       1.0  0.25136  0.65425  0.74341  1.0000
  H   H488      1.0  0.04655  0.71510  0.72751  1.0000
  H   H489      1.0  0.09138  0.78573  0.93620  1.0000
  H   H490      1.0  0.12297  0.93274  0.87729  1.0000
  C   C288      1.0  0.23713  0.88879  0.87999  1.0000
  C   C289      1.0  0.23031  0.89334  0.90384  1.0000
  C   C290      1.0  0.23591  0.92203  0.91483  1.0000
  S   S74       1.0  0.19195  0.86074  0.99119  1.0000
  C   C291      1.0  0.02223  0.71345  0.85281  1.0000
  C   C292      1.0  0.24956  0.91237  0.86729  1.0000
  C   C293      1.0  0.07041  0.74243  0.96548  1.0000
  H   H491      1.0  0.01229  0.92482  0.71353  1.0000
  H   H492      1.0  0.20100  0.71915  0.53984  1.0000
  C   C294      1.0  0.02967  0.76648  0.83804  1.0000
  H   H493      1.0  0.17766  0.81224  0.69470  1.0000
  H   H494      1.0  0.06989  0.52850  0.90757  1.0000
  C   C295      1.0  0.24411  0.59604  0.72284  1.0000
  H   H495      1.0  0.13570  0.89208  0.83382  1.0000
  H   H496      1.0  0.16659  0.81805  0.84563  1.0000
  C   C296      1.0  0.21133  0.57533  0.64511  1.0000
  H   H497      1.0  0.13136  0.90607  0.95145  1.0000
  H   H498      1.0  0.04839  0.73865  0.75414  1.0000
  C   C297      1.0  0.24073  0.62156  0.51665  1.0000
  H   H499      1.0  0.24184  0.61605  0.58329  1.0000
  H   H500      1.0  0.17061  0.89354  0.91444  1.0000
  H   H501      1.0  0.23991  0.58773  0.66875  1.0000
  H   H502      1.0  0.18157  0.84522  0.76710  1.0000
  H   H503      1.0  0.15342  0.50208  0.89071  1.0000
  H   H504      1.0  0.14392  0.58815  0.88510  1.0000
  C   C298      1.0  0.12758  0.91243  0.84293  1.0000
  C   C299      1.0  0.14680  0.89172  0.75746  1.0000
  H   H505      1.0  0.21409  0.89680  0.78942  1.0000
  C   C300      1.0  0.21277  0.90432  0.73948  1.0000
  H   H506      1.0  0.20665  0.82386  0.72783  1.0000
  H   H507      1.0  0.09970  0.91530  0.81597  1.0000
  H   H508      1.0  0.19196  0.84239  0.67673  1.0000
  C   C301      1.0  0.24553  0.56298  0.72264  1.0000
  H   H509      1.0  0.21151  0.59787  0.63502  1.0000
  H   H510      1.0  0.13413  0.60976  0.91087  1.0000
  H   H511      1.0  0.16252  0.91633  0.95459  1.0000
  H   H512      1.0  0.21629  0.92120  0.75426  1.0000
  H   H513      1.0  0.19943  0.91550  0.85193  1.0000
  H   H514      1.0  0.18405  0.81487  0.87285  1.0000
  C   C302      1.0  0.13036  0.91037  0.87038  1.0000
  H   H515      1.0  0.09214  0.89107  0.84132  1.0000
  H   H516      1.0  0.16790  0.85039  0.72745  1.0000
  H   H517      1.0  0.11349  0.80025  0.95689  1.0000
  H   H518      1.0  0.15619  0.79404  0.87017  1.0000
  H   H519      1.0  0.07566  0.84008  0.93111  1.0000
  H   H520      1.0  0.18283  0.89247  0.79531  1.0000
  H   H521      1.0  0.21972  0.85465  0.70991  1.0000
  H   H522      1.0  0.18529  0.93540  0.88897  1.0000
  H   H523      1.0  0.10512  0.56869  0.92067  1.0000
  N   N14       1.0  0.19065  0.88508  0.74445  1.0000
  H   H524      1.0  0.12537  0.93365  0.75121  1.0000
  H   H525      1.0  0.00962  0.75571  0.86968  1.0000
  C   C303      1.0  0.23590  0.94225  0.71313  1.0000
  C   C304      1.0  0.01334  0.71820  0.74699  1.0000
  C   C305      1.0  0.18366  0.86524  0.72321  1.0000
  H   H526      1.0  0.12670  0.53496  0.87726  1.0000
  H   H527      1.0  0.03190  0.74128  0.96129  1.0000
  H   H528      1.0  0.05973  0.80781  0.96397  1.0000
  Fe  Fe40      1.0  0.00858  0.84198  0.75524  1.0000
  H   H529      1.0  0.23439  0.54598  0.66566  1.0000
  C   C306      1.0  0.04728  0.72261  0.92956  1.0000
  H   H530      1.0  0.09720  0.54867  0.87915  1.0000
  C   C307      1.0  0.12853  0.59266  0.89690  1.0000
  C   C308      1.0  0.25555  0.94087  0.87834  1.0000
  C   C309      1.0  0.23190  0.69704  0.52432  1.0000
  H   H531      1.0  0.03380  0.75392  0.72766  1.0000
  C   C310      1.0  0.11995  0.56215  0.90875  1.0000
  C   C311      1.0  0.25162  0.61281  0.74296  1.0000
  H   H532      1.0  0.21067  0.90853  0.70015  1.0000
  H   H533      1.0  0.12774  0.50295  0.92924  1.0000
  H   H534      1.0  0.22907  0.67571  0.53531  1.0000
  H   H535      1.0  0.03980  0.95873  0.87185  1.0000
  C   C312      1.0  0.25472  0.54662  0.74239  1.0000
  H   H536      1.0  0.23081  0.92594  0.93315  1.0000
  C   C313      1.0  0.07718  0.80032  0.97117  1.0000
  C   C314      1.0  0.11173  0.53764  0.88983  1.0000
  H   H537      1.0  0.23952  0.54997  0.70722  1.0000
  H   H538      1.0  0.23301  0.86667  0.87129  1.0000
  H   H539      1.0  0.06201  0.72779  0.91699  1.0000
  H   H540      1.0  0.21226  0.85001  0.76212  1.0000
  H   H541      1.0  0.19797  0.94122  0.71593  1.0000
  C   C315      1.0  0.03332  0.51114  0.82813  1.0000
  C   C316      1.0  0.23582  0.56865  0.65591  1.0000
  H   H542      1.0  0.03876  0.50877  0.79007  1.0000
  N   N15       1.0  0.07565  0.76837  0.98310  1.0000
  H   H543      1.0  0.11394  0.60353  0.88635  1.0000
  H   H544      1.0  0.23860  0.95861  0.72832  1.0000
  H   H545      1.0  0.09224  0.93360  0.84382  1.0000
  H   H546      1.0  0.17383  0.92791  0.83550  1.0000
  H   H547      1.0  0.09805  0.85464  0.95180  1.0000
  H   H548      1.0  0.22578  0.57705  0.52882  1.0000
  C   C317      1.0  0.12898  0.91635  0.76570  1.0000
  H   H549      1.0  0.19484  0.69815  0.51258  1.0000
  H   H550      1.0  0.16632  0.92185  0.73378  1.0000
  H   H551      1.0  0.17769  0.88033  0.70806  1.0000
  C   C318      1.0  0.03694  0.73242  0.73861  1.0000
  H   H552      1.0  0.17617  0.92475  0.76363  1.0000
  H   H553      1.0  0.02599  0.78441  0.98192  1.0000
  H   H554      1.0  0.20977  0.97108  0.86144  1.0000
  H   H555      1.0  0.15932  0.95101  0.91857  1.0000
  H   H556      1.0  0.04912  0.69814  0.93643  1.0000
  H   H557      1.0  0.20726  0.96462  0.82981  1.0000
  H   H558      1.0  0.14920  0.87469  0.77230  1.0000
  C   C319      1.0  0.25611  0.79891  0.73338  1.0000
  H   H559      1.0  0.22869  0.88905  0.73922  1.0000
  H   H560      1.0  0.08573  0.73928  0.95334  1.0000
  H   H561      1.0  0.25022  0.77474  0.73414  1.0000
  C   C320      1.0  0.09505  0.80338  0.95032  1.0000
  C   C321      1.0  0.10131  0.91312  0.83568  1.0000
  C   C322      1.0  0.16572  0.81619  0.86536  1.0000
  C   C323      1.0  0.19456  0.82528  0.69155  1.0000
  H   H562      1.0  0.03030  0.72445  0.91945  1.0000
  H   H563      1.0  0.06862  0.71933  0.97478  1.0000
  N   N16       1.0  0.12602  0.73000  0.80467  1.0000
  C   C324      1.0  0.15175  0.73577  0.81141  1.0000
  C   C325      1.0  0.11484  0.70933  0.82360  1.0000
  C   C326      1.0  0.12527  0.71448  0.78048  1.0000
  C   C327      1.0  0.11238  0.76041  0.80329  1.0000
  C   C328      1.0  0.11254  0.78040  0.82642  1.0000
  C   C329      1.0  0.16516  0.76107  0.79642  1.0000
  C   C330      1.0  0.10029  0.70431  0.77129  1.0000
  C   C331      1.0  0.12337  0.67468  0.82453  1.0000
  C   C332      1.0  0.11161  0.65678  0.84511  1.0000
  C   C333      1.0  0.10029  0.81196  0.82249  1.0000
  C   C334      1.0  0.19108  0.76428  0.80450  1.0000
  C   C335      1.0  0.10219  0.68346  0.74922  1.0000
  H   H564      1.0  0.16204  0.71360  0.80974  1.0000
  H   H565      1.0  0.15349  0.74233  0.83057  1.0000
  H   H566      1.0  0.11831  0.71932  0.84165  1.0000
  H   H567      1.0  0.09511  0.70907  0.82182  1.0000
  H   H568      1.0  0.13724  0.69370  0.78013  1.0000
  H   H569      1.0  0.13242  0.73068  0.76659  1.0000
  H   H570      1.0  0.11874  0.77526  0.78819  1.0000
  H   H571      1.0  0.09336  0.75561  0.79902  1.0000
  H   H572      1.0  0.13087  0.78546  0.83265  1.0000
  H   H573      1.0  0.10284  0.76788  0.84088  1.0000
  H   H574      1.0  0.16530  0.75462  0.77728  1.0000
  H   H575      1.0  0.15690  0.78460  0.79820  1.0000
  H   H576      1.0  0.08983  0.72542  0.76623  1.0000
  H   H577      1.0  0.09023  0.69074  0.78484  1.0000
  H   H578      1.0  0.11871  0.66206  0.80782  1.0000
  H   H579      1.0  0.14290  0.67354  0.82721  1.0000
  H   H580      1.0  0.11661  0.66746  0.86253  1.0000
  H   H581      1.0  0.09192  0.65698  0.84313  1.0000
  H   H582      1.0  0.11755  0.63189  0.84511  1.0000
  H   H583      1.0  0.08176  0.80819  0.81612  1.0000
  H   H584      1.0  0.09966  0.82516  0.83954  1.0000
  H   H585      1.0  0.11012  0.82642  0.80920  1.0000
  H   H586      1.0  0.20028  0.78221  0.79330  1.0000
  H   H587      1.0  0.19216  0.77183  0.82344  1.0000
  H   H588      1.0  0.20050  0.74153  0.80244  1.0000
  H   H589      1.0  0.11093  0.66084  0.75386  1.0000
  H   H590      1.0  0.08414  0.67822  0.74204  1.0000
  H   H591      1.0  0.11267  0.69541  0.73506  1.0000
  H   H592      1.0  0.12845  0.94018  0.91540  1.0000
  C   C336      1.0  0.09370  0.83594  0.93862  1.0000
  C   C337      1.0  0.20448  0.85551  0.80943  1.0000
  S   S75       1.0  0.23421  0.65659  0.62332  1.0000
  C   C338      1.0  0.17062  0.90737  0.74980  1.0000
  H   H593      1.0  0.20572  0.55600  0.63297  1.0000
  C   C339      1.0  0.01972  0.74617  0.85506  1.0000
  H   H594      1.0  0.18930  0.83889  0.81149  1.0000
  H   H595      1.0  0.22073  0.84204  0.80501  1.0000
  H   H596      1.0  0.20770  0.86769  0.82666  1.0000
  N   N17       1.0  0.15516  0.90530  0.88008  1.0000
  C   C340      1.0  0.16617  0.87556  0.87057  1.0000
  C   C341      1.0  0.17116  0.93337  0.87494  1.0000
  C   C342      1.0  0.15334  0.90174  0.90688  1.0000
  H   H597      1.0  0.13447  0.84478  0.86783  1.0000
  H   H598      1.0  0.13992  0.88342  0.91161  1.0000
  H   H599      1.0  0.13582  0.92895  0.78170  1.0000
  C   C343      1.0  0.14621  0.93162  0.92102  1.0000
  C   C344      1.0  0.18516  0.93341  0.85113  1.0000
  H   H600      1.0  0.19805  0.57727  0.65961  1.0000
  H   H601      1.0  0.01755  0.69649  0.75720  1.0000
  C   C345      1.0  0.14501  0.92449  0.94777  1.0000
  H   H602      1.0  0.18448  0.87306  0.87802  1.0000
  C   C346      1.0  0.04767  0.74614  0.95011  1.0000
  C   C347      1.0  0.15260  0.84433  0.87576  1.0000
  H   H603      1.0  0.13862  0.87908  0.74213  1.0000
  C   C348      1.0  0.19570  0.86351  0.76534  1.0000
  C   C349      1.0  0.19713  0.96533  0.84672  1.0000
  H   H604      1.0  0.11809  0.89164  0.87704  1.0000
  Fe  Fe41      1.0  0.15345  0.84561  0.98764  1.0000
  H   H605      1.0  0.23531  0.95638  0.69641  1.0000
  H   H606      1.0  0.08203  0.81854  0.98462  1.0000
  H   H607      1.0  0.13484  0.55291  0.91972  1.0000
  C   C350      1.0  0.09964  0.76186  0.99435  1.0000
  H   H608      1.0  0.25118  0.92589  0.71220  1.0000
  S   S76       1.0  0.02467  0.80716  0.83993  1.0000
  H   H609      1.0  0.08941  0.52430  0.93253  1.0000
  H   H610      1.0  0.01371  0.69797  0.86546  1.0000
  H   H611      1.0  0.25309  0.96754  0.91087  1.0000
  H   H612      1.0  0.24967  0.74776  0.99645  1.0000
  S   S77       1.0  0.24895  0.95316  0.79868  1.0000
  C   C351      1.0  0.25517  0.56719  0.63641  1.0000
  C   C352      1.0  0.24860  0.94556  0.90216  1.0000
  H   H613      1.0  0.22263  0.63126  0.51387  1.0000
  H   H614      1.0  0.05529  0.50525  0.95709  1.0000
  H   H615      1.0  0.24847  0.55049  0.62262  1.0000
  N   N18       1.0  0.10330  0.50609  0.89926  1.0000
  H   H616      1.0  0.25480  0.90830  0.84900  1.0000
  H   H617      1.0  0.25118  0.80643  0.77098  1.0000
  H   H618      1.0  0.25613  0.57462  0.51894  1.0000
  H   H619      1.0  0.01886  0.67844  0.96879  1.0000
  H   H620      1.0  0.03573  0.50787  0.93137  1.0000
  H   H621      1.0  0.24968  0.86758  0.97132  1.0000
  S   S78       1.0  0.25749  0.50536  0.74097  1.0000
  C   C353      1.0  0.24262  0.68978  0.49941  1.0000
  C   C354      1.0  0.25691  0.81684  0.75430  1.0000
  H   H622      1.0  0.01249  0.50720  0.73534  1.0000
  H   H623      1.0  0.01184  0.56457  0.74007  1.0000
  H   H624      1.0  0.00910  0.54561  0.76876  1.0000
  H   H625      1.0  0.23225  0.57828  0.49732  1.0000
  C   C355      1.0  0.25768  0.63455  0.49730  1.0000
  Fe  Fe42      1.0  0.33552  0.08420  0.47535  1.0000
  H   H626      1.0  0.35353  0.35909  0.16587  1.0000
  S   S79       1.0  0.31803  0.09790  0.43940  1.0000
  H   H627      1.0  0.49031  0.07433  0.33356  1.0000
  H   H628      1.0  0.30013  0.23632  0.22573  1.0000
  S   S80       1.0  0.36881  0.05470  0.47477  1.0000
  S   S81       1.0  0.45455  0.35472  0.23372  1.0000
  H   H629      1.0  0.34046  0.43249  0.16576  1.0000
  S   S82       1.0  0.48946  0.05998  0.40985  1.0000
  Fe  Fe43      1.0  0.27816  0.34034  0.15366  1.0000
  H   H630      1.0  0.48515  0.45201  0.43454  1.0000
  H   H631      1.0  0.30137  0.07236  0.21275  1.0000
  Fe  Fe44      1.0  0.31747  0.31823  0.18909  1.0000
  S   S83       1.0  0.29076  0.30837  0.21790  1.0000
  S   S84       1.0  0.35569  0.30015  0.19354  1.0000
  H   H632      1.0  0.26118  0.29729  0.10308  1.0000
  C   C356      1.0  0.26715  0.47591  0.31197  1.0000
  Fe  Fe45      1.0  0.27411  0.35445  0.20690  1.0000
  S   S85       1.0  0.26000  0.38520  0.23667  1.0000
  S   S86       1.0  0.29551  0.29368  0.16064  1.0000
  S   S87       1.0  0.30234  0.36602  0.17986  1.0000
  H   H633      1.0  0.36014  0.45220  0.43770  1.0000
  H   H634      1.0  0.27676  0.10523  0.18950  1.0000
  H   H635      1.0  0.43542  0.49452  0.43796  1.0000
  C   C357      1.0  0.33746  0.07008  0.20122  1.0000
  C   C358      1.0  0.47601  0.12197  0.33541  1.0000
  H   H636      1.0  0.46979  0.44360  0.48678  1.0000
  C   C359      1.0  0.30510  0.49681  0.32678  1.0000
  H   H637      1.0  0.49835  0.40420  0.21630  1.0000
  C   C360      1.0  0.48362  0.47773  0.43135  1.0000
  H   H638      1.0  0.30420  0.12810  0.30401  1.0000
  H   H639      1.0  0.38456  0.40684  0.06852  1.0000
  S   S88       1.0  0.48849  0.31207  0.28882  1.0000
  H   H640      1.0  0.50095  0.42013  0.40401  1.0000
  H   H641      1.0  0.47671  0.14326  0.32384  1.0000
  H   H642      1.0  0.48582  0.05230  0.49040  1.0000
  S   S89       1.0  0.35367  0.12482  0.49467  1.0000
  C   C361      1.0  0.42645  0.33828  0.22513  1.0000
  C   C362      1.0  0.40686  0.35846  0.22201  1.0000
  C   C363      1.0  0.38466  0.34692  0.21373  1.0000
  C   C364      1.0  0.38194  0.31511  0.20775  1.0000
  C   C365      1.0  0.40149  0.29493  0.21092  1.0000
  C   C366      1.0  0.42350  0.30630  0.21979  1.0000
  H   H643      1.0  0.40891  0.38325  0.22602  1.0000
  H   H644      1.0  0.36986  0.36275  0.21144  1.0000
  H   H645      1.0  0.39971  0.27034  0.20617  1.0000
  H   H646      1.0  0.43839  0.29049  0.22185  1.0000
  H   H647      1.0  0.33095  0.24008  0.21762  1.0000
  C   C367      1.0  0.29739  0.08167  0.41822  1.0000
  C   C368      1.0  0.29547  0.09585  0.39548  1.0000
  H   H648      1.0  0.26306  0.18769  0.36607  1.0000
  H   H649      1.0  0.26121  0.14176  0.19323  1.0000
  H   H650      1.0  0.46964  0.20284  0.37725  1.0000
  H   H651      1.0  0.46178  0.49840  0.18606  1.0000
  H   H652      1.0  0.30723  0.11523  0.39097  1.0000
  H   H653      1.0  0.45298  0.23960  0.34440  1.0000
  H   H654      1.0  0.43401  0.22232  0.32185  1.0000
  H   H655      1.0  0.27403  0.14464  0.27373  1.0000
  C   C369      1.0  0.44166  0.09936  0.46847  1.0000
  C   C370      1.0  0.46605  0.10693  0.46839  1.0000
  C   C371      1.0  0.48104  0.09523  0.45047  1.0000
  C   C372      1.0  0.47159  0.07622  0.43237  1.0000
  C   C373      1.0  0.44712  0.06945  0.43209  1.0000
  C   C374      1.0  0.43224  0.08083  0.45010  1.0000
  H   H656      1.0  0.48948  0.10694  0.36997  1.0000
  H   H657      1.0  0.32293  0.44444  0.30366  1.0000
  H   H658      1.0  0.43963  0.05514  0.41794  1.0000
  H   H659      1.0  0.30451  0.43542  0.32815  1.0000
  Fe  Fe46      1.0  0.38586  0.09390  0.49562  1.0000
  H   H660      1.0  0.32278  0.28799  0.11183  1.0000
  H   H661      1.0  0.30604  0.31595  0.09436  1.0000
  C   C375      1.0  0.44928  0.13630  0.38188  1.0000
  H   H662      1.0  0.32269  0.38879  0.28954  1.0000
  C   C376      1.0  0.47013  0.18364  0.36376  1.0000
  C   C377      1.0  0.25910  0.46189  0.33625  1.0000
  H   H663      1.0  0.45227  0.11155  0.38796  1.0000
  H   H664      1.0  0.39135  0.44260  0.46779  1.0000
  H   H665      1.0  0.48734  0.13343  0.40881  1.0000
  S   S90       1.0  0.42352  0.11326  0.49174  1.0000
  H   H666      1.0  0.40910  0.11403  0.40542  1.0000
  H   H667      1.0  0.46571  0.21696  0.32039  1.0000
  H   H668      1.0  0.41342  0.07541  0.44970  1.0000
  H   H669      1.0  0.39974  0.15097  0.41776  1.0000
  H   H670      1.0  0.44302  0.14747  0.41953  1.0000
  N   N19       1.0  0.37438  0.35659  0.13357  1.0000
  C   C378      1.0  0.35947  0.32874  0.12566  1.0000
  C   C379      1.0  0.39608  0.34470  0.14672  1.0000
  C   C380      1.0  0.38127  0.37816  0.11318  1.0000
  C   C381      1.0  0.38540  0.36260  0.08850  1.0000
  C   C382      1.0  0.33452  0.33687  0.11534  1.0000
  C   C383      1.0  0.41385  0.32461  0.13249  1.0000
  C   C384      1.0  0.43274  0.31058  0.14912  1.0000
  C   C385      1.0  0.39630  0.38608  0.07087  1.0000
  C   C386      1.0  0.32414  0.30967  0.10073  1.0000
  H   H671      1.0  0.35650  0.31227  0.14095  1.0000
  H   H672      1.0  0.36890  0.31444  0.11227  1.0000
  H   H673      1.0  0.40688  0.36455  0.15391  1.0000
  H   H674      1.0  0.39043  0.33054  0.16243  1.0000
  H   H675      1.0  0.36731  0.39627  0.11008  1.0000
  H   H676      1.0  0.39761  0.39179  0.11802  1.0000
  H   H677      1.0  0.36828  0.35435  0.08069  1.0000
  H   H678      1.0  0.39725  0.34200  0.08964  1.0000
  H   H679      1.0  0.32205  0.34159  0.13017  1.0000
  H   H680      1.0  0.33502  0.35822  0.10387  1.0000
  H   H681      1.0  0.40501  0.30467  0.12323  1.0000
  H   H682      1.0  0.42329  0.33965  0.11931  1.0000
  H   H683      1.0  0.42439  0.29418  0.16218  1.0000
  H   H684      1.0  0.44586  0.29719  0.13855  1.0000
  H   H685      1.0  0.44235  0.32945  0.15905  1.0000
  H   H686      1.0  0.39845  0.37463  0.05323  1.0000
  H   H687      1.0  0.29261  0.17160  0.20106  1.0000
  H   H688      1.0  0.41409  0.39409  0.07723  1.0000
  C   C387      1.0  0.26088  0.44279  0.21313  1.0000
  H   H689      1.0  0.49986  0.10069  0.45079  1.0000
  H   H690      1.0  0.47403  0.48186  0.41424  1.0000
  H   H691      1.0  0.28314  0.04543  0.44105  1.0000
  H   H692      1.0  0.47343  0.12145  0.48247  1.0000
  H   H693      1.0  0.33445  0.18259  0.21387  1.0000
  C   C388      1.0  0.30415  0.38665  0.29612  1.0000
  H   H694      1.0  0.34351  0.38437  0.14255  1.0000
  C   C389      1.0  0.37237  0.40364  0.16322  1.0000
  C   C390      1.0  0.44786  0.18867  0.34768  1.0000
  H   H695      1.0  0.26622  0.43791  0.33919  1.0000
  H   H696      1.0  0.26941  0.43083  0.19851  1.0000
  N   N20       1.0  0.47274  0.15182  0.37574  1.0000
  H   H697      1.0  0.36416  0.44331  0.18602  1.0000
  H   H698      1.0  0.50022  0.45724  0.29007  1.0000
  H   H699      1.0  0.27482  0.09795  0.23562  1.0000
  H   H700      1.0  0.33320  0.07467  0.18214  1.0000
  C   C391      1.0  0.35475  0.42312  0.17754  1.0000
  C   C392      1.0  0.45036  0.21874  0.33273  1.0000
  H   H701      1.0  0.38633  0.39577  0.17595  1.0000
  C   C393      1.0  0.30400  0.44392  0.30934  1.0000
  H   H702      1.0  0.29162  0.16605  0.31030  1.0000
  H   H703      1.0  0.50240  0.43154  0.34936  1.0000
  H   H704      1.0  0.32109  0.16380  0.29798  1.0000
  H   H705      1.0  0.26512  0.47721  0.35117  1.0000
  H   H706      1.0  0.40357  0.45711  0.44017  1.0000
  H   H707      1.0  0.26144  0.13500  0.23718  1.0000
  H   H708      1.0  0.29468  0.36883  0.28500  1.0000
  H   H709      1.0  0.35666  0.47821  0.46267  1.0000
  C   C394      1.0  0.26452  0.11824  0.20126  1.0000
  Fe  Fe47      1.0  0.48742  0.33254  0.25169  1.0000
  H   H710      1.0  0.44289  0.00307  0.48729  1.0000
  C   C395      1.0  0.27475  0.12155  0.22696  1.0000
  H   H711      1.0  0.43764  0.13398  0.36594  1.0000
  H   H712      1.0  0.48619  0.18898  0.35281  1.0000
  H   H713      1.0  0.36907  0.49297  0.43506  1.0000
  C   C396      1.0  0.48658  0.15609  0.39875  1.0000
  H   H714      1.0  0.44349  0.45659  0.44854  1.0000
  H   H715      1.0  0.37810  0.00631  0.43533  1.0000
  N   N21       1.0  0.43101  0.48782  0.47620  1.0000
  H   H716      1.0  0.43175  0.19104  0.35885  1.0000
  C   C397      1.0  0.40492  0.49129  0.47016  1.0000
  H   H717      1.0  0.48067  0.48727  0.46843  1.0000
  H   H718      1.0  0.35524  0.08021  0.20554  1.0000
  H   H719      1.0  0.48250  0.09153  0.30512  1.0000
  H   H720      1.0  0.47739  0.17305  0.41057  1.0000
  H   H721      1.0  0.39421  0.49372  0.48662  1.0000
  C   C398      1.0  0.39318  0.46367  0.45611  1.0000
  C   C399      1.0  0.49041  0.09651  0.32293  1.0000
  H   H722      1.0  0.30436  0.37823  0.31491  1.0000
  C   C400      1.0  0.35983  0.37495  0.15128  1.0000
  H   H723      1.0  0.48327  0.45540  0.20602  1.0000
  C   C401      1.0  0.43481  0.15250  0.40181  1.0000
  H   H724      1.0  0.33535  0.30495  0.08492  1.0000
  H   H725      1.0  0.38064  0.41935  0.14971  1.0000
  C   C402      1.0  0.28202  0.05659  0.42369  1.0000
  H   H726      1.0  0.50397  0.41940  0.18664  1.0000
  C   C403      1.0  0.26449  0.04673  0.40702  1.0000
  H   H727      1.0  0.50056  0.44222  0.24240  1.0000
  H   H728      1.0  0.43438  0.17842  0.39924  1.0000
  N   N22       1.0  0.29889  0.13708  0.22895  1.0000
  C   C404      1.0  0.31692  0.12049  0.21375  1.0000
  C   C405      1.0  0.29683  0.17077  0.22048  1.0000
  C   C406      1.0  0.30706  0.13543  0.25464  1.0000
  H   H729      1.0  0.45744  0.11324  0.33661  1.0000
  H   H730      1.0  0.50458  0.13937  0.35654  1.0000
  C   C407      1.0  0.31846  0.08420  0.21726  1.0000
  C   C408      1.0  0.29224  0.15454  0.27269  1.0000
  C   C409      1.0  0.31921  0.19187  0.22407  1.0000
  C   C410      1.0  0.31463  0.22545  0.21530  1.0000
  H   H731      1.0  0.29107  0.42475  0.27490  1.0000
  H   H732      1.0  0.33810  0.04417  0.20406  1.0000
  C   C411      1.0  0.30307  0.15292  0.29774  1.0000
  H   H733      1.0  0.33504  0.13012  0.21736  1.0000
  H   H734      1.0  0.31364  0.12536  0.19447  1.0000
  C   C412      1.0  0.48664  0.12961  0.36027  1.0000
  H   H735      1.0  0.28153  0.18249  0.22912  1.0000
  H   H736      1.0  0.32601  0.14291  0.25636  1.0000
  H   H737      1.0  0.30652  0.11063  0.26116  1.0000
  C   C413      1.0  0.40927  0.13998  0.40265  1.0000
  C   C414      1.0  0.36827  0.47241  0.44738  1.0000
  H   H738      1.0  0.39963  0.14572  0.38584  1.0000
  H   H739      1.0  0.30390  0.48499  0.34451  1.0000
  H   H740      1.0  0.32312  0.07810  0.23597  1.0000
  H   H741      1.0  0.34658  0.40853  0.19187  1.0000
  H   H742      1.0  0.27280  0.41426  0.29999  1.0000
  H   H743      1.0  0.29106  0.17977  0.26769  1.0000
  H   H744      1.0  0.32439  0.19338  0.24315  1.0000
  C   C415      1.0  0.44426  0.48209  0.45318  1.0000
  H   H745      1.0  0.50023  0.36189  0.18662  1.0000
  H   H746      1.0  0.44463  0.16891  0.33526  1.0000
  H   H747      1.0  0.30959  0.22565  0.19609  1.0000
  C   C416      1.0  0.29138  0.41820  0.29407  1.0000
  Fe  Fe48      1.0  0.26798  0.28709  0.18915  1.0000
  S   S91       1.0  0.26926  0.36299  0.11749  1.0000
  C   C417      1.0  0.27832  0.08552  0.37862  1.0000
  H   H748      1.0  0.31730  0.48734  0.27848  1.0000
  H   H749      1.0  0.33434  0.00387  0.29469  1.0000
  C   C418      1.0  0.26231  0.06130  0.38446  1.0000
  H   H750      1.0  0.27708  0.09689  0.36136  1.0000
  H   H751      1.0  0.48001  0.47831  0.27064  1.0000
  S   S92       1.0  0.26817  0.03254  0.24672  1.0000
  H   H752      1.0  0.25856  0.25933  0.23960  1.0000
  H   H753      1.0  0.26238  0.48862  0.19628  1.0000
  C   C419      1.0  0.49782  0.47904  0.27931  1.0000
  C   C420      1.0  0.43366  0.46020  0.49302  1.0000
  H   H754      1.0  0.42717  0.43818  0.48442  1.0000
  H   H755      1.0  0.48594  0.49130  0.22209  1.0000
  N   N23       1.0  0.29360  0.47658  0.30780  1.0000
  H   H756      1.0  0.28857  0.47532  0.26946  1.0000
  H   H757      1.0  0.45813  0.02105  0.46331  1.0000
  C   C421      1.0  0.49169  0.47900  0.20572  1.0000
  H   H758      1.0  0.26047  0.15563  0.34488  1.0000
  H   H759      1.0  0.48560  0.48481  0.16748  1.0000
  C   C422      1.0  0.29817  0.48955  0.28313  1.0000
  C   C423      1.0  0.48062  0.00145  0.49106  1.0000
  H   H760      1.0  0.50718  0.39179  0.38123  1.0000
  H   H761      1.0  0.34260  0.48365  0.32188  1.0000
  C   C424      1.0  0.47065  0.49307  0.45207  1.0000
  H   H762      1.0  0.41587  0.01511  0.45714  1.0000
  H   H763      1.0  0.50179  0.48794  0.42987  1.0000
  C   C425      1.0  0.48143  0.49706  0.18441  1.0000
  H   H764      1.0  0.49866  0.49959  0.29152  1.0000
  Fe  Fe49      1.0  0.30220  0.41787  0.77814  1.0000
  S   S93       1.0  0.32115  0.43532  0.81086  1.0000
  H   H765      1.0  0.34242  0.02830  0.59550  1.0000
  H   H766      1.0  0.46803  0.47435  0.50908  1.0000
  H   H767      1.0  0.45889  0.45234  0.65494  1.0000
  H   H768      1.0  0.39727  0.46947  0.64891  1.0000
  H   H769      1.0  0.27041  0.27822  0.72549  1.0000
  H   H770      1.0  0.34300  0.00911  0.81731  1.0000
  Fe  Fe50      1.0  0.28628  0.45739  0.82039  1.0000
  H   H771      1.0  0.26702  0.04454  0.63043  1.0000
  H   H772      1.0  0.28758  0.03659  0.59171  1.0000
  H   H773      1.0  0.29356  0.03291  0.67375  1.0000
  C   C426      1.0  0.26748  0.14287  0.58178  1.0000
  Fe  Fe51      1.0  0.35669  0.03643  0.51046  1.0000
  S   S94       1.0  0.37617  0.07331  0.53115  1.0000
  C   C427      1.0  0.37095  0.01028  0.76288  1.0000
  Fe  Fe52      1.0  0.34244  0.10138  0.52909  1.0000
  S   S95       1.0  0.33710  0.12634  0.56508  1.0000
  C   C428      1.0  0.35092  0.01750  0.83447  1.0000
  Fe  Fe53      1.0  0.45609  0.10306  0.73507  1.0000
  S   S96       1.0  0.44816  0.11512  0.69665  1.0000
  S   S97       1.0  0.42569  0.09164  0.76067  1.0000
  Fe  Fe54      1.0  0.46896  0.15975  0.70332  1.0000
  H   H774      1.0  0.43252  0.36967  0.66573  1.0000
  H   H775      1.0  0.30008  0.29580  0.85724  1.0000
  H   H776      1.0  0.28276  0.39412  0.72946  1.0000
  S   S98       1.0  0.47493  0.14924  0.74217  1.0000
  S   S99       1.0  0.49092  0.07820  0.72814  1.0000
  Fe  Fe55      1.0  0.46017  0.40354  0.58857  1.0000
  H   H777      1.0  0.41823  0.23204  0.55066  1.0000
  S   S100      1.0  0.43319  0.44337  0.58863  1.0000
  Fe  Fe56      1.0  0.47884  0.33621  0.59596  1.0000
  S   S101      1.0  0.47054  0.28365  0.59655  1.0000
  H   H778      1.0  0.41908  0.48040  0.71000  1.0000
  H   H779      1.0  0.29865  0.36672  0.83307  1.0000
  H   H780      1.0  0.45281  0.49301  0.74284  1.0000
  S   S102      1.0  0.46348  0.37199  0.62083  1.0000
  H   H781      1.0  0.26315  0.36998  0.69397  1.0000
  C   C429      1.0  0.46249  0.22994  0.66741  1.0000
  C   C430      1.0  0.46720  0.21369  0.64632  1.0000
  C   C431      1.0  0.46968  0.23040  0.62467  1.0000
  C   C432      1.0  0.46805  0.26345  0.62409  1.0000
  Fe  Fe57      1.0  0.48388  0.09326  0.69025  1.0000
  C   C433      1.0  0.29611  0.27439  0.64091  1.0000
  H   H782      1.0  0.46873  0.18831  0.64667  1.0000
  H   H783      1.0  0.47308  0.21774  0.60835  1.0000
  C   C434      1.0  0.28496  0.31698  0.74598  1.0000
  H   H784      1.0  0.27925  0.30794  0.80691  1.0000
  H   H785      1.0  0.27141  0.28621  0.84654  1.0000
  H   H786      1.0  0.34599  0.19285  0.55124  1.0000
  C   C435      1.0  0.48252  0.03328  0.50362  1.0000
  H   H787      1.0  0.26828  0.26395  0.61507  1.0000
  C   C436      1.0  0.37512  0.47274  0.53496  1.0000
  C   C437      1.0  0.38367  0.44166  0.53491  1.0000
  C   C438      1.0  0.40187  0.43231  0.55082  1.0000
  C   C439      1.0  0.41130  0.45388  0.56724  1.0000
  S   S103      1.0  0.26037  0.16519  0.73648  1.0000
  H   H788      1.0  0.32089  0.26767  0.82491  1.0000
  H   H789      1.0  0.37620  0.42479  0.52247  1.0000
  H   H790      1.0  0.40825  0.40834  0.55070  1.0000
  H   H791      1.0  0.40395  0.25476  0.65217  1.0000
  C   C440      1.0  0.31948  0.25705  0.68736  1.0000
  H   H792      1.0  0.36012  0.01084  0.57254  1.0000
  C   C441      1.0  0.29436  0.30433  0.81940  1.0000
  C   C442      1.0  0.28804  0.13342  0.56948  1.0000
  C   C443      1.0  0.31056  0.13838  0.57955  1.0000
  C   C444      1.0  0.31222  0.15311  0.60203  1.0000
  C   C445      1.0  0.29163  0.16275  0.61428  1.0000
  S   S104      1.0  0.45852  0.21031  0.69499  1.0000
  N   N24       1.0  0.27633  0.33564  0.85462  1.0000
  H   H793      1.0  0.32954  0.15703  0.61001  1.0000
  H   H794      1.0  0.29317  0.17386  0.63155  1.0000
  C   C446      1.0  0.28856  0.34968  0.74713  1.0000
  H   H795      1.0  0.41129  0.42820  0.69328  1.0000
  H   H796      1.0  0.45132  0.43762  0.53790  1.0000
  C   C447      1.0  0.46071  0.26291  0.66677  1.0000
  H   H797      1.0  0.28689  0.38425  0.85884  1.0000
  C   C448      1.0  0.28005  0.36887  0.72867  1.0000
  C   C449      1.0  0.42343  0.43221  0.67788  1.0000
  C   C450      1.0  0.37490  0.28876  0.65217  1.0000
  H   H798      1.0  0.46594  0.03848  0.51351  1.0000
  H   H799      1.0  0.28004  0.13255  0.66917  1.0000
  H   H800      1.0  0.30460  0.24984  0.73660  1.0000
  H   H801      1.0  0.32872  0.40668  0.86310  1.0000
  C   C451      1.0  0.33807  0.32514  0.69782  1.0000
  C   C452      1.0  0.29981  0.47648  0.67117  1.0000
  C   C453      1.0  0.40255  0.48478  0.56745  1.0000
  C   C454      1.0  0.28956  0.05901  0.60172  1.0000
  C   C455      1.0  0.40899  0.03177  0.74873  1.0000
  C   C456      1.0  0.40422  0.06070  0.75950  1.0000
  C   C457      1.0  0.38241  0.06452  0.77132  1.0000
  C   C458      1.0  0.36567  0.03966  0.77265  1.0000
  H   H802      1.0  0.26645  0.35518  0.88871  1.0000
  H   H803      1.0  0.42574  0.02837  0.73977  1.0000
  H   H804      1.0  0.37854  0.08683  0.77967  1.0000
  H   H805      1.0  0.34903  0.04299  0.78179  1.0000
  C   C459      1.0  0.50284  0.00535  0.64415  1.0000
  C   C460      1.0  0.37660  0.01092  0.60790  1.0000
  H   H806      1.0  0.42404  0.41731  0.64016  1.0000
  C   C461      1.0  0.40254  0.00722  0.59893  1.0000
  C   C462      1.0  0.27116  0.33189  0.88093  1.0000
  N   N25       1.0  0.41656  0.16782  0.56969  1.0000
  C   C463      1.0  0.42374  0.17002  0.59566  1.0000
  C   C464      1.0  0.43487  0.18534  0.55503  1.0000
  C   C465      1.0  0.39220  0.18198  0.56665  1.0000
  C   C466      1.0  0.41555  0.13405  0.56138  1.0000
  C   C467      1.0  0.43835  0.11446  0.56594  1.0000
  C   C468      1.0  0.40873  0.15006  0.61340  1.0000
  C   C469      1.0  0.38259  0.18357  0.54064  1.0000
  C   C470      1.0  0.43504  0.22178  0.55752  1.0000
  H   H807      1.0  0.36330  0.22772  0.54404  1.0000
  C   C471      1.0  0.43542  0.08088  0.55657  1.0000
  C   C472      1.0  0.41871  0.15276  0.63879  1.0000
  C   C473      1.0  0.26591  0.32241  0.70726  1.0000
  H   H808      1.0  0.42263  0.19482  0.60190  1.0000
  H   H809      1.0  0.44278  0.16366  0.59812  1.0000
  H   H810      1.0  0.45308  0.17735  0.55990  1.0000
  H   H811      1.0  0.43293  0.17959  0.53572  1.0000
  H   H812      1.0  0.39165  0.20596  0.57460  1.0000
  H   H813      1.0  0.37877  0.16801  0.57673  1.0000
  H   H814      1.0  0.40009  0.12138  0.56937  1.0000
  H   H815      1.0  0.41217  0.13317  0.54179  1.0000
  H   H816      1.0  0.44258  0.11280  0.58526  1.0000
  H   H817      1.0  0.45381  0.12517  0.55666  1.0000
  H   H818      1.0  0.39007  0.15832  0.61374  1.0000
  H   H819      1.0  0.40864  0.12473  0.60864  1.0000
  H   H820      1.0  0.34203  0.08301  0.83183  1.0000
  H   H821      1.0  0.39223  0.00815  0.80982  1.0000
  S   S105      1.0  0.29121  0.00722  0.79942  1.0000
  H   H822      1.0  0.43739  0.22900  0.57638  1.0000
  C   C474      1.0  0.49127  0.02455  0.66053  1.0000
  H   H823      1.0  0.48415  0.48754  0.62708  1.0000
  H   H824      1.0  0.45705  0.27562  0.68302  1.0000
  H   H825      1.0  0.43215  0.08105  0.53702  1.0000
  H   H826      1.0  0.45192  0.06744  0.56004  1.0000
  H   H827      1.0  0.42035  0.06875  0.56551  1.0000
  H   H828      1.0  0.43714  0.14354  0.63971  1.0000
  H   H829      1.0  0.46750  0.02581  0.69050  1.0000
  H   H830      1.0  0.40753  0.13874  0.65125  1.0000
  H   H831      1.0  0.35699  0.31917  0.70079  1.0000
  S   S106      1.0  0.26705  0.43814  0.78829  1.0000
  C   C475      1.0  0.41888  0.02802  0.65073  1.0000
  H   H832      1.0  0.41254  0.05581  0.68251  1.0000
  H   H833      1.0  0.40266  0.37175  0.67749  1.0000
  H   H834      1.0  0.39554  0.19446  0.52823  1.0000
  H   H835      1.0  0.28719  0.32378  0.89084  1.0000
  C   C476      1.0  0.29448  0.36188  0.85208  1.0000
  C   C477      1.0  0.27334  0.30341  0.72624  1.0000
  H   H836      1.0  0.34191  0.26745  0.71925  1.0000
  H   H837      1.0  0.30520  0.21322  0.72038  1.0000
  H   H838      1.0  0.29780  0.03399  0.63399  1.0000
  C   C478      1.0  0.36081  0.02586  0.58871  1.0000
  C   C479      1.0  0.41350  0.41283  0.65652  1.0000
  H   H839      1.0  0.34097  0.38213  0.83984  1.0000
  H   H840      1.0  0.50346  0.29353  0.68767  1.0000
  C   C480      1.0  0.29536  0.05350  0.70852  1.0000
  C   C481      1.0  0.33161  0.03752  0.84699  1.0000
  H   H841      1.0  0.30819  0.32257  0.81619  1.0000
  H   H842      1.0  0.39631  0.01205  0.91346  1.0000
  H   H843      1.0  0.38966  0.47518  0.67947  1.0000
  C   C482      1.0  0.45945  0.42819  0.52146  1.0000
  C   C483      1.0  0.41405  0.37747  0.66191  1.0000
  C   C484      1.0  0.28762  0.25963  0.61749  1.0000
  C   C485      1.0  0.40111  0.28028  0.65541  1.0000
  H   H844      1.0  0.43815  0.03354  0.65194  1.0000
  H   H845      1.0  0.37603  0.02650  0.62371  1.0000
  H   H846      1.0  0.26789  0.35662  0.80661  1.0000
  C   C486      1.0  0.33632  0.36106  0.69835  1.0000
  C   C487      1.0  0.43415  0.48168  0.69720  1.0000
  H   H847      1.0  0.48180  0.47640  0.73771  1.0000
  H   H848      1.0  0.32747  0.24468  0.64030  1.0000
  H   H849      1.0  0.28553  0.26368  0.65539  1.0000
  H   H850      1.0  0.45472  0.26265  0.54490  1.0000
  H   H851      1.0  0.32045  0.06148  0.81417  1.0000
  N   N26       1.0  0.28392  0.08181  0.66905  1.0000
  H   H852      1.0  0.28146  0.10342  0.63405  1.0000
  H   H853      1.0  0.34859  0.37182  0.68513  1.0000
  H   H854      1.0  0.44063  0.42103  0.68286  1.0000
  H   H855      1.0  0.29192  0.29991  0.64012  1.0000
  H   H856      1.0  0.37333  0.31445  0.65527  1.0000
  H   H857      1.0  0.40739  0.28618  0.67371  1.0000
  C   C488      1.0  0.32829  0.31183  0.67400  1.0000
  H   H858      1.0  0.29722  0.27011  0.60209  1.0000
  H   H859      1.0  0.33512  0.32652  0.65900  1.0000
  H   H860      1.0  0.31384  0.23434  0.67907  1.0000
  H   H861      1.0  0.28643  0.12211  0.55227  1.0000
  C   C489      1.0  0.32322  0.26959  0.64482  1.0000
  C   C490      1.0  0.28557  0.05306  0.62832  1.0000
  H   H862      1.0  0.34683  0.22959  0.70599  1.0000
  S   S107      1.0  0.47258  0.36623  0.56296  1.0000
  C   C491      1.0  0.31260  0.02953  0.71923  1.0000
  H   H863      1.0  0.37020  0.28362  0.63333  1.0000
  H   H864      1.0  0.34124  0.36976  0.71642  1.0000
  H   H865      1.0  0.32676  0.33431  0.86033  1.0000
  H   H866      1.0  0.41205  0.29387  0.64245  1.0000
  H   H867      1.0  0.29036  0.23373  0.61776  1.0000
  H   H868      1.0  0.40730  0.36418  0.64619  1.0000
  H   H869      1.0  0.36138  0.24416  0.66568  1.0000
  H   H870      1.0  0.33187  0.28444  0.63095  1.0000
  H   H871      1.0  0.27619  0.07587  0.59473  1.0000
  H   H872      1.0  0.31789  0.36871  0.69430  1.0000
  H   H873      1.0  0.32735  0.31578  0.71287  1.0000
  S   S108      1.0  0.30478  0.36557  0.77121  1.0000
  H   H874      1.0  0.37839  0.15948  0.53417  1.0000
  H   H875      1.0  0.30882  0.31651  0.67426  1.0000
  C   C492      1.0  0.35896  0.26967  0.66966  1.0000
  S   S109      1.0  0.49683  0.42372  0.59310  1.0000
  H   H876      1.0  0.35283  0.38021  0.86971  1.0000
  C   C493      1.0  0.46378  0.27965  0.64528  1.0000
  S   S110      1.0  0.31396  0.45932  0.75589  1.0000
  H   H877      1.0  0.29134  0.30208  0.76031  1.0000
  C   C494      1.0  0.33302  0.24720  0.71046  1.0000
  H   H878      1.0  0.40771  0.00999  0.52057  1.0000
  C   C495      1.0  0.40873  0.03168  0.67581  1.0000
  H   H879      1.0  0.49142  0.20770  0.76905  1.0000
  H   H880      1.0  0.47811  0.42168  0.52576  1.0000
  H   H881      1.0  0.32696  0.22116  0.74336  1.0000
  H   H882      1.0  0.42205  0.46306  0.50879  1.0000
  H   H883      1.0  0.30768  0.06871  0.59847  1.0000
  S   S111      1.0  0.35237  0.48373  0.51462  1.0000
  C   C496      1.0  0.33628  0.38317  0.85904  1.0000
  H   H884      1.0  0.38819  0.02097  0.86231  1.0000
  C   C497      1.0  0.26903  0.35518  0.70860  1.0000
  S   S112      1.0  0.26342  0.21164  0.67896  1.0000
  H   H885      1.0  0.27037  0.42648  0.90746  1.0000
  H   H886      1.0  0.41066  0.04588  0.63884  1.0000
  H   H887      1.0  0.45381  0.23035  0.52408  1.0000
  H   H888      1.0  0.45036  0.44405  0.71865  1.0000
  H   H889      1.0  0.49651  0.24949  0.76645  1.0000
  H   H890      1.0  0.41878  0.17769  0.64480  1.0000
  C   C498      1.0  0.47635  0.01103  0.67767  1.0000
  Fe  Fe58      1.0  0.50089  0.39024  0.62357  1.0000
  H   H891      1.0  0.46242  0.30505  0.64504  1.0000
  H   H892      1.0  0.30263  0.26863  0.69277  1.0000
  H   H893      1.0  0.36694  0.27305  0.68761  1.0000
  H   H894      1.0  0.31478  0.02388  0.84884  1.0000
  C   C499      1.0  0.30529  0.27252  0.81323  1.0000
  H   H895      1.0  0.27607  0.06042  0.76954  1.0000
  C   C500      1.0  0.29842  0.05644  0.68108  1.0000
  C   C501      1.0  0.28871  0.11373  0.67998  1.0000
  H   H896      1.0  0.31139  0.27290  0.79442  1.0000
  H   H897      1.0  0.29860  0.07622  0.71768  1.0000
  H   H898      1.0  0.33687  0.16214  0.69609  1.0000
  C   C502      1.0  0.31528  0.12345  0.68255  1.0000
  H   H899      1.0  0.44617  0.02690  0.61372  1.0000
  C   C503      1.0  0.44467  0.00121  0.61010  1.0000
  H   H900      1.0  0.31609  0.35769  0.88487  1.0000
  C   C504      1.0  0.29052  0.08334  0.64302  1.0000
  C   C505      1.0  0.31776  0.15581  0.69413  1.0000
  C   C506      1.0  0.26397  0.07448  0.75903  1.0000
  H   H901      1.0  0.49055  0.00779  0.73097  1.0000
  H   H902      1.0  0.44186  0.00788  0.57123  1.0000
  H   H903      1.0  0.31765  0.05951  0.67702  1.0000
  H   H904      1.0  0.33730  0.04516  0.86501  1.0000
  C   C507      1.0  0.49308  0.22756  0.75619  1.0000
  C   C508      1.0  0.46632  0.48793  0.72903  1.0000
  H   H905      1.0  0.30981  0.08844  0.64099  1.0000
  H   H906      1.0  0.26177  0.30434  0.92494  1.0000
  C   C509      1.0  0.32611  0.06737  0.83264  1.0000
  C   C510      1.0  0.31855  0.35701  0.86525  1.0000
  H   H907      1.0  0.36546  0.03410  0.82943  1.0000
  H   H908      1.0  0.32400  0.12477  0.66489  1.0000
  H   H909      1.0  0.32521  0.10661  0.69398  1.0000
  H   H910      1.0  0.30965  0.00588  0.71126  1.0000
  H   H911      1.0  0.39466  0.41881  0.65281  1.0000
  H   H912      1.0  0.29243  0.48065  0.68925  1.0000
  C   C511      1.0  0.37526  0.00303  0.86898  1.0000
  H   H913      1.0  0.28464  0.11720  0.76298  1.0000
  Fe  Fe59      1.0  0.33005  0.47899  0.78958  1.0000
  S   S113      1.0  0.32190  0.06288  0.51001  1.0000
  C   C512      1.0  0.45536  0.23658  0.54327  1.0000
  H   H914      1.0  0.33133  0.03705  0.71633  1.0000
  N   N27       1.0  0.33274  0.27739  0.66943  1.0000
  H   H915      1.0  0.44966  0.40661  0.51582  1.0000
  H   H916      1.0  0.30898  0.17399  0.68293  1.0000
  H   H917      1.0  0.30961  0.15555  0.71215  1.0000
  S   S114      1.0  0.50368  0.13888  0.69322  1.0000
  S   S115      1.0  0.49510  0.06539  0.65837  1.0000
  H   H918      1.0  0.49809  0.47528  0.54627  1.0000
  Fe  Fe60      1.0  0.28022  0.48148  0.76905  1.0000
  C   C513      1.0  0.31637  0.23192  0.72869  1.0000
  H   H919      1.0  0.47848  0.03719  0.58634  1.0000
  H   H920      1.0  0.47281  0.22860  0.55036  1.0000
  H   H921      1.0  0.29196  0.25324  0.81525  1.0000
  H   H922      1.0  0.28035  0.11549  0.69789  1.0000
  H   H923      1.0  0.31148  0.08042  0.84130  1.0000
  C   C514      1.0  0.28553  0.30465  0.84551  1.0000
  H   H924      1.0  0.35261  0.20211  0.52063  1.0000
  H   H925      1.0  0.31734  0.46488  0.67330  1.0000
  H   H926      1.0  0.38916  0.02793  0.67567  1.0000
  H   H927      1.0  0.36757  0.04965  0.58375  1.0000
  H   H928      1.0  0.40913  0.03165  0.59574  1.0000
  S   S116      1.0  0.27553  0.45017  0.85963  1.0000
  H   H929      1.0  0.30966  0.02759  0.73878  1.0000
  C   C515      1.0  0.35974  0.20279  0.53916  1.0000
  C   C516      1.0  0.26908  0.15759  0.60421  1.0000
  H   H930      1.0  0.43713  0.46990  0.63652  1.0000
  H   H931      1.0  0.41707  0.01454  0.68832  1.0000
  C   C517      1.0  0.47867  0.01188  0.58139  1.0000
  C   C518      1.0  0.39254  0.00664  0.75066  1.0000
  C   C519      1.0  0.26882  0.10665  0.75524  1.0000
  H   H932      1.0  0.36380  0.01606  0.88156  1.0000
  H   H933      1.0  0.49755  0.03298  0.51657  1.0000
  H   H934      1.0  0.27707  0.04532  0.71273  1.0000
  H   H935      1.0  0.47599  0.22974  0.74626  1.0000
  H   H936      1.0  0.49952  0.25250  0.71228  1.0000
  H   H937      1.0  0.48430  0.00985  0.56250  1.0000
  H   H938      1.0  0.47003  0.46084  0.69687  1.0000
  C   C520      1.0  0.45587  0.46640  0.70981  1.0000
  H   H939      1.0  0.26048  0.38961  0.82484  1.0000
  H   H940      1.0  0.28771  0.46034  0.66122  1.0000
  N   N28       1.0  0.42704  0.46715  0.67362  1.0000
  C   C521      1.0  0.44560  0.47174  0.65449  1.0000
  H   H941      1.0  0.41982  0.00896  0.89163  1.0000
  C   C522      1.0  0.38471  0.49425  0.55128  1.0000
  C   C523      1.0  0.40344  0.48061  0.66579  1.0000
  C   C524      1.0  0.45922  0.45309  0.50175  1.0000
  Fe  Fe61      1.0  0.31685  0.58149  0.47486  1.0000
  C   C525      1.0  0.28875  0.55648  0.40902  1.0000
  S   S117      1.0  0.28701  0.59589  0.44895  1.0000
  C   C526      1.0  0.35418  0.95630  0.26724  1.0000
  S   S118      1.0  0.40556  0.61284  0.47533  1.0000
  S   S119      1.0  0.35006  0.55326  0.46869  1.0000
  S   S120      1.0  0.45075  0.84674  0.26102  1.0000
  H   H942      1.0  0.37331  0.73914  0.19229  1.0000
  S   S121      1.0  0.46724  0.54637  0.39580  1.0000
  Fe  Fe62      1.0  0.28537  0.84229  0.15504  1.0000
  C   C527      1.0  0.38756  0.98612  0.44364  1.0000
  H   H943      1.0  0.49948  0.99838  0.44162  1.0000
  Fe  Fe63      1.0  0.33460  0.83960  0.18068  1.0000
  S   S122      1.0  0.31896  0.82084  0.21457  1.0000
  S   S123      1.0  0.37416  0.85085  0.17645  1.0000
  Fe  Fe64      1.0  0.29666  0.78976  0.19085  1.0000
  S   S124      1.0  0.29310  0.73709  0.19717  1.0000
  Fe  Fe65      1.0  0.29040  0.85685  0.20850  1.0000
  H   H944      1.0  0.34817  0.86136  0.00396  1.0000
  S   S125      1.0  0.31430  0.80592  0.15680  1.0000
  S   S126      1.0  0.30728  0.87777  0.17598  1.0000
  H   H945      1.0  0.33991  0.51158  0.36090  1.0000
  S   S127      1.0  0.26308  0.86063  0.12342  1.0000
  H   H946      1.0  0.29653  0.54028  0.29285  1.0000
  H   H947      1.0  0.48873  0.74665  0.33862  1.0000
  H   H948      1.0  0.39512  0.95244  0.24086  1.0000
  C   C528      1.0  0.28101  0.97736  0.22499  1.0000
  C   C529      1.0  0.28297  0.94438  0.22322  1.0000
  C   C530      1.0  0.34720  0.94486  0.17914  1.0000
  H   H949      1.0  0.29148  0.93398  0.20796  1.0000
  C   C531      1.0  0.27415  0.92499  0.24141  1.0000
  H   H950      1.0  0.45928  0.74500  0.28720  1.0000
  H   H951      1.0  0.28648  0.70082  0.47780  1.0000
  C   C532      1.0  0.46349  0.94169  0.47329  1.0000
  H   H952      1.0  0.29017  0.70693  0.43370  1.0000
  H   H953      1.0  0.48236  0.56918  0.48787  1.0000
  C   C533      1.0  0.49922  0.66175  0.40588  1.0000
  C   C534      1.0  0.43017  0.84713  0.23688  1.0000
  C   C535      1.0  0.40642  0.83843  0.24130  1.0000
  C   C536      1.0  0.38924  0.83877  0.22290  1.0000
  C   C537      1.0  0.39548  0.84862  0.19992  1.0000
  C   C538      1.0  0.41923  0.85739  0.19549  1.0000
  C   C539      1.0  0.43653  0.85657  0.21384  1.0000
  H   H954      1.0  0.40126  0.83125  0.25908  1.0000
  H   H955      1.0  0.37115  0.83157  0.22651  1.0000
  H   H956      1.0  0.42425  0.86505  0.17777  1.0000
  H   H957      1.0  0.45467  0.86371  0.21025  1.0000
  H   H958      1.0  0.29289  0.56035  0.25137  1.0000
  C   C540      1.0  0.27909  0.58334  0.41952  1.0000
  C   C541      1.0  0.26311  0.93873  0.26114  1.0000
  H   H959      1.0  0.48375  0.81726  0.20010  1.0000
  H   H960      1.0  0.46133  0.67905  0.22317  1.0000
  H   H961      1.0  0.48773  0.75888  0.20542  1.0000
  H   H962      1.0  0.29476  0.52081  0.24004  1.0000
  H   H963      1.0  0.45417  0.93946  0.49068  1.0000
  H   H964      1.0  0.26844  0.86349  0.02301  1.0000
  H   H965      1.0  0.42139  0.77461  0.25403  1.0000
  H   H966      1.0  0.32949  0.90255  0.24219  1.0000
  C   C542      1.0  0.42257  0.59378  0.45343  1.0000
  C   C543      1.0  0.44706  0.60021  0.45198  1.0000
  C   C544      1.0  0.46109  0.58551  0.43461  1.0000
  C   C545      1.0  0.45058  0.56472  0.41830  1.0000
  C   C546      1.0  0.42611  0.55829  0.41978  1.0000
  C   C547      1.0  0.41217  0.57263  0.43733  1.0000
  H   H967      1.0  0.45519  0.61659  0.46439  1.0000
  H   H968      1.0  0.47992  0.59057  0.43363  1.0000
  H   H969      1.0  0.41786  0.54226  0.40718  1.0000
  H   H970      1.0  0.39328  0.56779  0.43812  1.0000
  C   C548      1.0  0.38903  0.72504  0.19779  1.0000
  Fe  Fe66      1.0  0.36952  0.59323  0.48643  1.0000
  C   C549      1.0  0.46649  0.72303  0.24302  1.0000
  H   H971      1.0  0.46394  0.88117  0.49270  1.0000
  H   H972      1.0  0.35829  0.94623  0.28505  1.0000
  H   H973      1.0  0.27763  0.72734  0.99798  1.0000
  H   H974      1.0  0.26945  0.79669  0.10428  1.0000
  H   H975      1.0  0.26634  0.59948  0.19024  1.0000
  C   C550      1.0  0.40615  0.74570  0.21226  1.0000
  C   C551      1.0  0.46079  0.90964  0.46031  1.0000
  C   C552      1.0  0.35843  0.92964  0.20123  1.0000
  H   H976      1.0  0.30184  0.54287  0.41873  1.0000
  H   H977      1.0  0.28808  0.99230  0.21101  1.0000
  H   H978      1.0  0.32480  0.98504  0.25343  1.0000
  H   H979      1.0  0.46986  0.86040  0.46542  1.0000
  H   H980      1.0  0.39662  0.89223  0.27138  1.0000
  H   H981      1.0  0.35189  0.90497  0.20237  1.0000
  C   C553      1.0  0.39972  0.91792  0.26912  1.0000
  H   H982      1.0  0.33255  0.95079  0.22379  1.0000
  C   C554      1.0  0.26370  0.56387  0.37329  1.0000
  H   H983      1.0  0.48548  0.61406  0.32593  1.0000
  H   H984      1.0  0.34324  0.84610  0.03360  1.0000
  H   H985      1.0  0.27826  0.95936  0.16297  1.0000
  H   H986      1.0  0.33421  0.51933  0.30654  1.0000
  H   H987      1.0  0.43579  0.91186  0.28246  1.0000
  C   C555      1.0  0.34407  0.88942  0.27614  1.0000
  H   H988      1.0  0.49523  0.99086  0.39792  1.0000
  H   H989      1.0  0.25986  0.50016  0.31115  1.0000
  C   C556      1.0  0.27562  0.72177  0.22063  1.0000
  H   H990      1.0  0.47154  0.51905  0.44965  1.0000
  H   H991      1.0  0.43092  0.94874  0.26720  1.0000
  H   H992      1.0  0.41116  0.76599  0.20074  1.0000
  H   H993      1.0  0.36023  0.53102  0.34080  1.0000
  H   H994      1.0  0.38267  0.70475  0.20865  1.0000
  H   H995      1.0  0.39612  0.75461  0.22778  1.0000
  H   H996      1.0  0.48218  0.73749  0.24870  1.0000
  C   C557      1.0  0.38673  0.92964  0.24633  1.0000
  C   C558      1.0  0.32801  0.96754  0.26788  1.0000
  C   C559      1.0  0.26088  0.97161  0.26276  1.0000
  H   H997      1.0  0.32754  0.94558  0.18076  1.0000
  N   N29       1.0  0.36006  0.93347  0.24756  1.0000
  C   C560      1.0  0.44944  0.76516  0.27939  1.0000
  H   H998      1.0  0.46090  0.75327  0.18770  1.0000
  C   C561      1.0  0.33899  0.84262  0.01438  1.0000
  H   H999      1.0  0.32363  0.96656  0.30653  1.0000
  C   C562      1.0  0.46736  0.60569  0.33075  1.0000
  S   S128      1.0  0.33692  0.62302  0.49037  1.0000
  Fe  Fe67      1.0  0.49114  0.84079  0.26486  1.0000
  C   C563      1.0  0.35218  0.94813  0.22419  1.0000
  H   H1000     1.0  0.37792  0.92937  0.19825  1.0000
  S   S129      1.0  0.27676  0.88363  0.24044  1.0000
  C   C564      1.0  0.42850  0.72689  0.22022  1.0000
  N   N30       1.0  0.45438  0.97030  0.46008  1.0000
  H   H1001     1.0  0.43683  0.71832  0.20362  1.0000
  H   H1002     1.0  0.42187  0.73512  0.26489  1.0000
  C   C565      1.0  0.46554  0.97403  0.43579  1.0000
  H   H1003     1.0  0.37981  0.98168  0.46157  1.0000
  H   H1004     1.0  0.48669  0.79638  0.17237  1.0000
  H   H1005     1.0  0.43688  0.53801  0.47445  1.0000
  H   H1006     1.0  0.39408  0.93019  0.28548  1.0000
  H   H1007     1.0  0.33275  0.84693  0.29470  1.0000
  H   H1008     1.0  0.43346  0.91269  0.25040  1.0000
  H   H1009     1.0  0.34580  0.81921  0.00898  1.0000
  H   H1010     1.0  0.45917  0.95505  0.42362  1.0000
  H   H1011     1.0  0.46196  0.75414  0.35507  1.0000
  H   H1012     1.0  0.50702  0.67683  0.39184  1.0000
  H   H1013     1.0  0.26188  0.91986  0.01272  1.0000
  H   H1014     1.0  0.44178  0.90317  0.45792  1.0000
  H   H1015     1.0  0.46947  0.91029  0.44260  1.0000
  C   C566      1.0  0.41409  0.99387  0.44580  1.0000
  H   H1016     1.0  0.28706  0.67413  0.21466  1.0000
  C   C567      1.0  0.26036  0.67575  0.24211  1.0000
  C   C568      1.0  0.34763  0.90195  0.25035  1.0000
  H   H1017     1.0  0.26065  0.90956  0.17866  1.0000
  H   H1018     1.0  0.39155  0.91230  0.23234  1.0000
  H   H1019     1.0  0.49702  0.99787  0.48073  1.0000
  N   N31       1.0  0.45739  0.66206  0.38503  1.0000
  C   C569      1.0  0.46807  0.63719  0.36921  1.0000
  C   C570      1.0  0.47192  0.66573  0.40771  1.0000
  C   C571      1.0  0.43275  0.65071  0.39186  1.0000
  C   C572      1.0  0.45484  0.69327  0.37225  1.0000
  C   C573      1.0  0.47779  0.70802  0.36172  1.0000
  C   C574      1.0  0.45458  0.63047  0.34549  1.0000
  C   C575      1.0  0.42021  0.66925  0.41205  1.0000
  C   C576      1.0  0.42657  0.92318  0.26709  1.0000
  H   H1020     1.0  0.29394  0.66039  0.47515  1.0000
  C   C577      1.0  0.47198  0.73583  0.34532  1.0000
  C   C578      1.0  0.42789  0.96557  0.45660  1.0000
  C   C579      1.0  0.39461  0.65770  0.41535  1.0000
  H   H1021     1.0  0.46941  0.61450  0.37924  1.0000
  H   H1022     1.0  0.48664  0.64317  0.36426  1.0000
  H   H1023     1.0  0.46834  0.68894  0.41615  1.0000
  H   H1024     1.0  0.46645  0.64771  0.42108  1.0000
  H   H1025     1.0  0.43332  0.62556  0.39774  1.0000
  H   H1026     1.0  0.42054  0.65133  0.37616  1.0000
  H   H1027     1.0  0.44135  0.69137  0.35769  1.0000
  H   H1028     1.0  0.44763  0.71133  0.38447  1.0000
  C   C580      1.0  0.33562  0.85511  0.27608  1.0000
  H   H1029     1.0  0.42225  0.70530  0.22978  1.0000
  H   H1030     1.0  0.43642  0.62124  0.34893  1.0000
  H   H1031     1.0  0.45334  0.65210  0.33439  1.0000
  H   H1032     1.0  0.41954  0.69481  0.40807  1.0000
  H   H1033     1.0  0.42954  0.66597  0.42940  1.0000
  H   H1034     1.0  0.35163  0.93076  0.16313  1.0000
  H   H1035     1.0  0.31552  0.94750  0.26539  1.0000
  H   H1036     1.0  0.35972  0.97240  0.22233  1.0000
  C   C581      1.0  0.31207  0.84422  0.01058  1.0000
  H   H1037     1.0  0.42177  0.76174  0.30642  1.0000
  H   H1038     1.0  0.31852  0.85277  0.26617  1.0000
  H   H1039     1.0  0.33106  0.54718  0.34547  1.0000
  C   C582      1.0  0.27552  0.68915  0.22490  1.0000
  H   H1040     1.0  0.29523  0.51921  0.32900  1.0000
  C   C583      1.0  0.29033  0.52406  0.27864  1.0000
  H   H1041     1.0  0.38647  0.67006  0.43068  1.0000
  H   H1042     1.0  0.38379  0.66255  0.39911  1.0000
  H   H1043     1.0  0.39413  0.63202  0.41919  1.0000
  H   H1044     1.0  0.42480  0.80033  0.29278  1.0000
  H   H1045     1.0  0.35418  0.96919  0.17661  1.0000
  H   H1046     1.0  0.46139  0.72771  0.32970  1.0000
  C   C584      1.0  0.30012  0.53650  0.25500  1.0000
  H   H1047     1.0  0.48257  0.94417  0.47801  1.0000
  H   H1048     1.0  0.48925  0.71730  0.37631  1.0000
  H   H1049     1.0  0.42420  0.94536  0.44454  1.0000
  H   H1050     1.0  0.44655  0.78711  0.31413  1.0000
  C   C585      1.0  0.47489  0.69814  0.22474  1.0000
  C   C586      1.0  0.28096  0.54671  0.38615  1.0000
  H   H1051     1.0  0.35721  0.88365  0.24011  1.0000
  H   H1052     1.0  0.33030  0.90340  0.28537  1.0000
  H   H1053     1.0  0.50355  0.66467  0.22007  1.0000
  C   C587      1.0  0.26482  0.67663  0.45250  1.0000
  H   H1054     1.0  0.50493  0.65412  0.44402  1.0000
  H   H1055     1.0  0.48797  0.69099  0.35103  1.0000
  N   N32       1.0  0.44623  0.74438  0.23571  1.0000
  H   H1056     1.0  0.39779  0.71623  0.18143  1.0000
  C   C588      1.0  0.43462  0.77938  0.29936  1.0000
  H   H1057     1.0  0.36561  0.97779  0.26581  1.0000
  C   C589      1.0  0.27863  0.67680  0.47667  1.0000
  C   C590      1.0  0.43345  0.75455  0.25807  1.0000
  H   H1058     1.0  0.46278  0.78287  0.27378  1.0000
  H   H1059     1.0  0.34910  0.83975  0.26772  1.0000
  C   C591      1.0  0.47488  0.80024  0.18787  1.0000
  H   H1060     1.0  0.47769  0.70807  0.20672  1.0000
  H   H1061     1.0  0.44049  0.78973  0.21905  1.0000
  H   H1062     1.0  0.49620  0.67215  0.25084  1.0000
  C   C592      1.0  0.49305  0.97519  0.43504  1.0000
  C   C593      1.0  0.33169  0.50524  0.32306  1.0000
  C   C594      1.0  0.45537  0.77371  0.22343  1.0000
  Fe  Fe68      1.0  0.50694  0.55403  0.39136  1.0000
  H   H1063     1.0  0.46145  0.70868  0.25893  1.0000
  C   C595      1.0  0.43918  0.51838  0.48745  1.0000
  H   H1064     1.0  0.41934  0.95952  0.47399  1.0000
  H   H1065     1.0  0.36055  0.89075  0.28693  1.0000
  H   H1066     1.0  0.49888  0.60432  0.49532  1.0000
  H   H1067     1.0  0.46681  0.78766  0.23568  1.0000
  C   C596      1.0  0.47015  0.76891  0.20060  1.0000
  H   H1068     1.0  0.27064  0.52524  0.27767  1.0000
  H   H1069     1.0  0.30364  0.99244  0.29084  1.0000
  H   H1070     1.0  0.50349  0.63691  0.40163  1.0000
  H   H1071     1.0  0.40204  0.51339  0.45975  1.0000
  S   S130      1.0  0.26652  0.82404  0.18771  1.0000
  H   H1072     1.0  0.26860  0.81190  0.01033  1.0000
  H   H1073     1.0  0.38460  0.96508  0.43225  1.0000
  C   C597      1.0  0.26103  0.74111  0.23427  1.0000
  H   H1074     1.0  0.27032  0.75562  0.02065  1.0000
  H   H1075     1.0  0.45725  0.60113  0.31401  1.0000
  C   C598      1.0  0.34124  0.52494  0.34386  1.0000
  H   H1076     1.0  0.46865  0.58318  0.34089  1.0000
  H   H1077     1.0  0.28820  0.52555  0.37848  1.0000
  H   H1078     1.0  0.30399  0.82550  0.02179  1.0000
  H   H1079     1.0  0.31982  0.53818  0.25578  1.0000
  H   H1080     1.0  0.45959  0.99629  0.42712  1.0000
  S   S131      1.0  0.49801  0.81889  0.30088  1.0000
  H   H1081     1.0  0.45794  0.81048  0.18122  1.0000
  H   H1082     1.0  0.29546  0.66504  0.43064  1.0000
  C   C599      1.0  0.50051  0.57950  0.48938  1.0000
  H   H1083     1.0  0.27131  0.68321  0.41464  1.0000
  H   H1084     1.0  0.49168  0.88764  0.47714  1.0000
  C   C600      1.0  0.49822  0.68314  0.23291  1.0000
  H   H1085     1.0  0.26029  0.65059  0.24517  1.0000
  C   C601      1.0  0.26879  0.75020  0.00130  1.0000
  C   C602      1.0  0.50205  0.97159  0.40952  1.0000
  C   C603      1.0  0.28155  0.68345  0.43167  1.0000
  C   C604      1.0  0.26191  0.60053  0.40658  1.0000
  H   H1086     1.0  0.30637  0.86763  0.01704  1.0000
  C   C605      1.0  0.26990  0.99108  0.24476  1.0000
  C   C606      1.0  0.26733  0.94376  0.15132  1.0000
  H   H1087     1.0  0.27945  0.92775  0.14163  1.0000
  H   H1088     1.0  0.49642  0.94854  0.40194  1.0000
  C   C607      1.0  0.32218  0.98356  0.29148  1.0000
  C   C608      1.0  0.47232  0.88318  0.47484  1.0000
  H   H1089     1.0  0.45838  0.51818  0.49155  1.0000
  H   H1090     1.0  0.48876  0.52144  0.18379  1.0000
  H   H1091     1.0  0.50132  0.95619  0.44575  1.0000
  H   H1092     1.0  0.26120  0.76632  0.23133  1.0000
  H   H1093     1.0  0.42056  0.99972  0.42766  1.0000
  C   C609      1.0  0.45809  0.99974  0.47492  1.0000
  C   C610      1.0  0.29095  0.54005  0.60208  1.0000
  S   S132      1.0  0.30483  0.93297  0.80732  1.0000
  C   C611      1.0  0.32841  0.66874  0.76322  1.0000
  H   H1094     1.0  0.31550  0.52242  0.66800  1.0000
  H   H1095     1.0  0.27879  0.76899  0.96742  1.0000
  H   H1096     1.0  0.28747  0.51518  0.60709  1.0000
  N   N33       1.0  0.42095  0.75105  0.65513  1.0000
  H   H1097     1.0  0.38450  0.79235  0.63862  1.0000
  Fe  Fe69      1.0  0.27883  0.96688  0.82305  1.0000
  H   H1098     1.0  0.42498  0.81842  0.65114  1.0000
  Fe  Fe70      1.0  0.31447  0.97172  0.78128  1.0000
  H   H1099     1.0  0.29966  0.77685  0.99136  1.0000
  C   C612      1.0  0.40786  0.53415  0.78041  1.0000
  H   H1100     1.0  0.30011  0.65755  0.67744  1.0000
  S   S133      1.0  0.36629  0.57369  0.52355  1.0000
  H   H1101     1.0  0.30203  0.63136  0.76085  1.0000
  Fe  Fe71      1.0  0.33170  0.59989  0.52620  1.0000
  S   S134      1.0  0.32605  0.62921  0.56000  1.0000
  H   H1102     1.0  0.39164  0.80535  0.66860  1.0000
  Fe  Fe72      1.0  0.47564  0.58947  0.71999  1.0000
  S   S135      1.0  0.48592  0.60796  0.68352  1.0000
  S   S136      1.0  0.43753  0.56881  0.71882  1.0000
  H   H1103     1.0  0.26513  0.83782  0.90383  1.0000
  H   H1104     1.0  0.36940  0.59322  0.72753  1.0000
  S   S137      1.0  0.28678  0.95649  0.75439  1.0000
  C   C613      1.0  0.42303  0.75536  0.62844  1.0000
  C   C614      1.0  0.41494  0.99404  0.64114  1.0000
  H   H1105     1.0  0.28598  0.62960  0.69723  1.0000
  Fe  Fe73      1.0  0.47508  0.89312  0.56993  1.0000
  S   S138      1.0  0.30973  0.55996  0.51126  1.0000
  S   S139      1.0  0.45903  0.92037  0.53887  1.0000
  Fe  Fe74      1.0  0.48852  0.83339  0.59837  1.0000
  C   C615      1.0  0.26866  0.80844  0.99074  1.0000
  H   H1106     1.0  0.41516  0.97788  0.91314  1.0000
  H   H1107     1.0  0.25873  0.82272  0.94676  1.0000
  H   H1108     1.0  0.35838  0.63299  0.72594  1.0000
  S   S140      1.0  0.45871  0.86855  0.60155  1.0000
  H   H1109     1.0  0.45662  0.55373  0.52662  1.0000
  H   H1110     1.0  0.40035  0.72381  0.57527  1.0000
  H   H1111     1.0  0.31122  0.50234  0.64025  1.0000
  C   C616      1.0  0.49884  0.97276  0.64425  1.0000
  H   H1112     1.0  0.31885  0.93115  0.89151  1.0000
  H   H1113     1.0  0.49166  0.68140  0.64620  1.0000
  H   H1114     1.0  0.29377  0.69038  0.75755  1.0000
  C   C617      1.0  0.26563  0.86597  0.98326  1.0000
  H   H1115     1.0  0.49189  0.99948  0.59275  1.0000
  C   C618      1.0  0.32107  0.63471  0.75609  1.0000
  C   C619      1.0  0.48249  0.95941  0.66008  1.0000
  C   C620      1.0  0.47178  0.97844  0.67729  1.0000
  H   H1116     1.0  0.45561  0.76357  0.66953  1.0000
  H   H1117     1.0  0.45934  0.96814  0.68982  1.0000
  H   H1118     1.0  0.38228  0.94903  0.84037  1.0000
  C   C621      1.0  0.38711  0.96919  0.53060  1.0000
  C   C622      1.0  0.38812  0.93815  0.53938  1.0000
  C   C623      1.0  0.41016  0.92348  0.54359  1.0000
  C   C624      1.0  0.43134  0.93986  0.53915  1.0000
  C   C625      1.0  0.43025  0.97127  0.53132  1.0000
  H   H1119     1.0  0.40174  0.99610  0.58093  1.0000
  H   H1120     1.0  0.37178  0.92502  0.54209  1.0000
  H   H1121     1.0  0.41071  0.89902  0.54905  1.0000
  H   H1122     1.0  0.30679  0.52622  0.56846  1.0000
  H   H1123     1.0  0.43002  0.73844  0.58113  1.0000
  C   C626      1.0  0.47332  0.50837  0.63175  1.0000
  C   C627      1.0  0.26489  0.84815  0.75374  1.0000
  H   H1124     1.0  0.31600  0.82089  0.97641  1.0000
  C   C628      1.0  0.30037  0.63605  0.57756  1.0000
  C   C629      1.0  0.30184  0.65767  0.59652  1.0000
  C   C630      1.0  0.28181  0.66444  0.61060  1.0000
  C   C631      1.0  0.32272  0.91920  0.87439  1.0000
  H   H1125     1.0  0.41208  0.53368  0.79928  1.0000
  H   H1126     1.0  0.31855  0.66953  0.60019  1.0000
  H   H1127     1.0  0.28321  0.68121  0.62505  1.0000
  H   H1128     1.0  0.28615  0.86859  0.89666  1.0000
  C   C632      1.0  0.36203  0.61317  0.76254  1.0000
  H   H1129     1.0  0.31271  0.86211  0.97501  1.0000
  H   H1130     1.0  0.39657  0.98679  0.64579  1.0000
  H   H1131     1.0  0.40491  0.76485  0.58225  1.0000
  H   H1132     1.0  0.27746  0.60367  0.55891  1.0000
  H   H1133     1.0  0.36656  0.52390  0.67274  1.0000
  H   H1134     1.0  0.31545  0.56492  0.57839  1.0000
  N   N34       1.0  0.27965  0.55772  0.64478  1.0000
  S   S141      1.0  0.50438  0.70077  0.69497  1.0000
  H   H1135     1.0  0.34477  0.56307  0.84409  1.0000
  C   C633      1.0  0.31233  0.69304  0.75115  1.0000
  H   H1136     1.0  0.48528  0.52922  0.63334  1.0000
  Fe  Fe75      1.0  0.34490  0.53530  0.50635  1.0000
  H   H1137     1.0  0.44650  0.98424  0.52831  1.0000
  C   C634      1.0  0.39871  0.90124  0.61162  1.0000
  C   C635      1.0  0.42393  0.54856  0.76435  1.0000
  C   C636      1.0  0.41861  0.54973  0.73995  1.0000
  C   C637      1.0  0.39711  0.53605  0.73188  1.0000
  C   C638      1.0  0.38128  0.52113  0.74787  1.0000
  H   H1138     1.0  0.37231  0.59287  0.76972  1.0000
  H   H1139     1.0  0.44029  0.55905  0.77092  1.0000
  H   H1140     1.0  0.39261  0.53707  0.71315  1.0000
  H   H1141     1.0  0.31424  0.69676  0.55362  1.0000
  H   H1142     1.0  0.26549  0.60919  0.77880  1.0000
  C   C639      1.0  0.36982  0.61667  0.73623  1.0000
  S   S142      1.0  0.25960  0.69846  0.68257  1.0000
  C   C640      1.0  0.31155  0.54048  0.58441  1.0000
  H   H1143     1.0  0.32673  0.89408  0.87815  1.0000
  C   C641      1.0  0.40280  0.51641  0.66037  1.0000
  C   C642      1.0  0.41127  0.96546  0.80459  1.0000
  H   H1144     1.0  0.27952  0.72578  0.51713  1.0000
  C   C643      1.0  0.39539  0.93687  0.61343  1.0000
  H   H1145     1.0  0.34597  0.92267  0.84442  1.0000
  C   C644      1.0  0.40783  0.73283  0.61272  1.0000
  H   H1146     1.0  0.28501  0.71153  0.56085  1.0000
  H   H1147     1.0  0.30673  0.52655  0.73779  1.0000
  H   H1148     1.0  0.37615  0.96535  0.89568  1.0000
  H   H1149     1.0  0.42594  0.65911  0.68422  1.0000
  H   H1150     1.0  0.30104  0.58673  0.72978  1.0000
  H   H1151     1.0  0.31221  0.56778  0.76826  1.0000
  C   C645      1.0  0.43784  0.55787  0.52138  1.0000
  S   S143      1.0  0.49224  0.63147  0.73871  1.0000
  C   C646      1.0  0.50473  0.75437  0.66757  1.0000
  C   C647      1.0  0.34385  0.93476  0.86184  1.0000
  S   S144      1.0  0.27209  0.97065  0.86311  1.0000
  H   H1152     1.0  0.40750  0.61530  0.74599  1.0000
  C   C648      1.0  0.38890  0.97893  0.88457  1.0000
  H   H1153     1.0  0.41849  0.94528  0.81495  1.0000
  H   H1154     1.0  0.41088  0.89277  0.62594  1.0000
  H   H1155     1.0  0.33091  0.58656  0.71873  1.0000
  H   H1156     1.0  0.40959  0.50155  0.58021  1.0000
  H   H1157     1.0  0.31857  0.71721  0.75562  1.0000
  H   H1158     1.0  0.26918  0.52322  0.67134  1.0000
  H   H1159     1.0  0.33257  0.53018  0.71901  1.0000
  H   H1160     1.0  0.39609  0.65436  0.74054  1.0000
  C   C649      1.0  0.49430  0.70668  0.64642  1.0000
  H   H1161     1.0  0.26836  0.55094  0.77818  1.0000
  C   C650      1.0  0.45533  0.82865  0.67320  1.0000
  H   H1162     1.0  0.42823  0.50931  0.52465  1.0000
  H   H1163     1.0  0.30678  0.57208  0.67004  1.0000
  S   S145      1.0  0.35925  0.98577  0.52335  1.0000
  C   C651      1.0  0.43748  0.77379  0.66798  1.0000
  H   H1164     1.0  0.39681  0.98399  0.74307  1.0000
  H   H1165     1.0  0.30193  0.86723  0.93806  1.0000
  H   H1166     1.0  0.42632  0.97849  0.79628  1.0000
  H   H1167     1.0  0.42782  0.56492  0.53750  1.0000
  H   H1168     1.0  0.37808  0.51804  0.55181  1.0000
  C   C652      1.0  0.50511  0.99428  0.73961  1.0000
  H   H1169     1.0  0.50286  0.79768  0.64726  1.0000
  C   C653      1.0  0.41921  0.95459  0.60951  1.0000
  C   C654      1.0  0.26183  0.56337  0.76266  1.0000
  C   C655      1.0  0.27731  0.83012  0.95138  1.0000
  S   S146      1.0  0.47390  0.91974  0.65730  1.0000
  H   H1170     1.0  0.31617  0.62344  0.68707  1.0000
  C   C656      1.0  0.32750  0.57672  0.75755  1.0000
  S   S147      1.0  0.48484  0.77991  0.60017  1.0000
  H   H1171     1.0  0.42343  0.95023  0.59050  1.0000
  H   H1172     1.0  0.32782  0.53036  0.59266  1.0000
  H   H1173     1.0  0.44958  0.52385  0.65876  1.0000
  H   H1174     1.0  0.34172  0.55885  0.76005  1.0000
  H   H1175     1.0  0.30041  0.62034  0.64502  1.0000
  H   H1176     1.0  0.30667  0.91998  0.86276  1.0000
  C   C657      1.0  0.49267  0.75775  0.62591  1.0000
  H   H1177     1.0  0.39953  0.96253  0.87371  1.0000
  H   H1178     1.0  0.38768  0.94152  0.63117  1.0000
  H   H1179     1.0  0.40610  0.89490  0.59396  1.0000
  C   C658      1.0  0.29830  0.63215  0.68190  1.0000
  H   H1180     1.0  0.38249  0.94367  0.59925  1.0000
  N   N35       1.0  0.33578  0.60846  0.76681  1.0000
  C   C659      1.0  0.50058  0.77238  0.64682  1.0000
  H   H1181     1.0  0.31521  0.55680  0.63007  1.0000
  S   S148      1.0  0.35240  0.97668  0.76728  1.0000
  H   H1182     1.0  0.30343  0.53969  0.70758  1.0000
  C   C660      1.0  0.31520  0.54076  0.72348  1.0000
  C   C661      1.0  0.41102  0.74055  0.58625  1.0000
  H   H1183     1.0  0.38127  0.88911  0.61368  1.0000
  H   H1184     1.0  0.49766  0.97127  0.74557  1.0000
  H   H1185     1.0  0.43333  0.94244  0.62015  1.0000
  H   H1186     1.0  0.40151  0.62814  0.71592  1.0000
  H   H1187     1.0  0.36843  0.98818  0.61308  1.0000
  C   C662      1.0  0.33176  0.60877  0.79349  1.0000
  C   C663      1.0  0.34265  0.58088  0.80785  1.0000
  C   C664      1.0  0.33680  0.58332  0.83436  1.0000
  C   C665      1.0  0.28045  0.67364  0.52021  1.0000
  H   H1188     1.0  0.34693  0.67399  0.75768  1.0000
  H   H1189     1.0  0.31230  0.60895  0.79730  1.0000
  H   H1190     1.0  0.32121  0.63422  0.73634  1.0000
  H   H1191     1.0  0.33551  0.55792  0.80163  1.0000
  H   H1192     1.0  0.43150  0.77733  0.68669  1.0000
  H   H1193     1.0  0.27500  0.54908  0.59253  1.0000
  C   C666      1.0  0.28377  0.85806  0.93452  1.0000
  H   H1194     1.0  0.34419  0.60547  0.84198  1.0000
  H   H1195     1.0  0.31724  0.58254  0.83706  1.0000
  H   H1196     1.0  0.36230  0.58052  0.80627  1.0000
  H   H1197     1.0  0.31250  0.69038  0.73143  1.0000
  H   H1198     1.0  0.29536  0.65647  0.51984  1.0000
  C   C667      1.0  0.39751  0.98760  0.82082  1.0000
  C   C668      1.0  0.40829  0.98597  0.52711  1.0000
  H   H1199     1.0  0.45739  0.98951  0.62245  1.0000
  H   H1200     1.0  0.44191  0.75247  0.62308  1.0000
  H   H1201     1.0  0.49903  0.53477  0.57730  1.0000
  C   C669      1.0  0.28865  0.61436  0.66017  1.0000
  C   C670      1.0  0.31858  0.57496  0.73134  1.0000
  C   C671      1.0  0.39527  0.62941  0.73465  1.0000
  H   H1202     1.0  0.33924  0.63058  0.80159  1.0000
  H   H1203     1.0  0.36879  0.63386  0.77276  1.0000
  H   H1204     1.0  0.32697  0.67234  0.78274  1.0000
  C   C672      1.0  0.27870  0.62080  0.57311  1.0000
  C   C673      1.0  0.30550  0.84064  0.98385  1.0000
  C   C674      1.0  0.28829  0.57838  0.66498  1.0000
  H   H1205     1.0  0.41276  0.52148  0.64371  1.0000
  C   C675      1.0  0.44172  0.80668  0.65635  1.0000
  H   H1206     1.0  0.45259  0.80416  0.63999  1.0000
  H   H1207     1.0  0.29670  0.82996  0.90481  1.0000
  C   C676      1.0  0.42876  0.71784  0.66098  1.0000
  C   C677      1.0  0.39569  0.75458  0.66356  1.0000
  C   C678      1.0  0.38342  0.78624  0.65782  1.0000
  C   C679      1.0  0.43226  0.70978  0.68788  1.0000
  C   C680      1.0  0.35705  0.78495  0.66431  1.0000
  C   C681      1.0  0.43984  0.67548  0.69112  1.0000
  H   H1208     1.0  0.44587  0.71270  0.65195  1.0000
  H   H1209     1.0  0.41570  0.70030  0.65396  1.0000
  H   H1210     1.0  0.38429  0.73514  0.65650  1.0000
  H   H1211     1.0  0.39485  0.75197  0.68329  1.0000
  H   H1212     1.0  0.41329  0.70798  0.61529  1.0000
  H   H1213     1.0  0.38864  0.73496  0.61683  1.0000
  H   H1214     1.0  0.41558  0.71295  0.69797  1.0000
  H   H1215     1.0  0.44634  0.72471  0.69614  1.0000
  H   H1216     1.0  0.34754  0.76680  0.65356  1.0000
  H   H1217     1.0  0.35477  0.77954  0.68359  1.0000
  H   H1218     1.0  0.34874  0.80814  0.66056  1.0000
  H   H1219     1.0  0.45675  0.67111  0.68160  1.0000
  H   H1220     1.0  0.44280  0.67034  0.71037  1.0000
  H   H1221     1.0  0.45615  0.97157  0.58000  1.0000
  H   H1222     1.0  0.27704  0.85379  0.69437  1.0000
  H   H1223     1.0  0.47994  0.98310  0.50522  1.0000
  Fe  Fe76      1.0  0.26313  0.99019  0.77374  1.0000
  H   H1224     1.0  0.41839  0.77963  0.62283  1.0000
  H   H1225     1.0  0.27056  0.62333  0.65625  1.0000
  N   N36       1.0  0.41967  0.98947  0.61487  1.0000
  N   N37       1.0  0.27945  0.83638  0.97788  1.0000
  C   C682      1.0  0.48992  0.72477  0.62569  1.0000
  H   H1226     1.0  0.27658  0.88728  0.97917  1.0000
  H   H1227     1.0  0.29658  0.58558  0.61713  1.0000
  Fe  Fe77      1.0  0.48524  0.89671  0.62304  1.0000
  C   C683      1.0  0.29194  0.70691  0.52268  1.0000
  H   H1228     1.0  0.48871  0.51403  0.53722  1.0000
  C   C684      1.0  0.29657  0.56101  0.62410  1.0000
  S   S149      1.0  0.49976  0.92322  0.59168  1.0000
  C   C685      1.0  0.27153  0.84343  0.71113  1.0000
  H   H1229     1.0  0.30759  0.73779  0.54939  1.0000
  H   H1230     1.0  0.47243  0.51046  0.72096  1.0000
  Fe  Fe78      1.0  0.27532  0.92099  0.78184  1.0000
  H   H1231     1.0  0.46021  0.51283  0.61724  1.0000
  H   H1232     1.0  0.27755  0.57419  0.68133  1.0000
  H   H1233     1.0  0.48392  0.71321  0.60954  1.0000
  H   H1234     1.0  0.27094  0.66806  0.53698  1.0000
  H   H1235     1.0  0.33273  0.98095  0.87441  1.0000
  C   C686      1.0  0.38642  0.52036  0.77232  1.0000
  H   H1236     1.0  0.28890  0.81023  0.94613  1.0000
  H   H1237     1.0  0.50807  0.95811  0.63179  1.0000
  H   H1238     1.0  0.27886  0.88550  0.73167  1.0000
  H   H1239     1.0  0.44464  0.83360  0.68934  1.0000
  C   C687      1.0  0.40606  0.99560  0.90171  1.0000
  H   H1240     1.0  0.45910  0.85133  0.66397  1.0000
  H   H1241     1.0  0.32468  0.97165  0.84476  1.0000
  H   H1242     1.0  0.41048  0.53067  0.67505  1.0000
  H   H1243     1.0  0.39959  0.95636  0.79006  1.0000
  S   S150      1.0  0.29669  0.50312  0.80193  1.0000
  H   H1244     1.0  0.26760  0.50906  0.64182  1.0000
  H   H1245     1.0  0.35994  0.93006  0.87263  1.0000
  H   H1246     1.0  0.30790  0.70859  0.51113  1.0000
  C   C688      1.0  0.28288  0.84786  0.90839  1.0000
  C   C689      1.0  0.37549  0.97069  0.83169  1.0000
  H   H1247     1.0  0.36412  0.96210  0.81664  1.0000
  S   S151      1.0  0.26350  0.87023  0.78013  1.0000
  C   C690      1.0  0.26016  0.59636  0.76298  1.0000
  H   H1248     1.0  0.37739  0.55312  0.65199  1.0000
  C   C691      1.0  0.33979  0.97059  0.85767  1.0000
  C   C692      1.0  0.27856  0.52417  0.65388  1.0000
  S   S152      1.0  0.26056  0.79062  0.68498  1.0000
  C   C693      1.0  0.28055  0.77611  0.98637  1.0000
  H   H1249     1.0  0.36506  0.51030  0.74138  1.0000
  C   C694      1.0  0.25999  0.64963  0.60588  1.0000
  C   C695      1.0  0.50173  0.50089  0.54824  1.0000
  H   H1250     1.0  0.43793  0.50719  0.69529  1.0000
  H   H1251     1.0  0.47254  0.81808  0.67869  1.0000
  C   C696      1.0  0.26301  0.81224  0.71165  1.0000
  C   C697      1.0  0.49709  0.50903  0.57429  1.0000
  C   C698      1.0  0.37727  0.52756  0.65636  1.0000
  C   C699      1.0  0.30012  0.71354  0.54824  1.0000
  H   H1252     1.0  0.27105  0.87771  0.93662  1.0000
  H   H1253     1.0  0.49949  0.51592  0.49890  1.0000
  H   H1254     1.0  0.40760  0.53301  0.50763  1.0000
  C   C700      1.0  0.27254  0.86139  0.73218  1.0000
  H   H1255     1.0  0.47865  0.50180  0.57890  1.0000
  C   C701      1.0  0.46043  0.50280  0.65527  1.0000
  S   S153      1.0  0.36654  0.50331  0.79350  1.0000
  H   H1256     1.0  0.36884  0.51466  0.64125  1.0000
  C   C702      1.0  0.42667  0.52800  0.51088  1.0000
  S   S154      1.0  0.50248  0.85531  0.56442  1.0000
  H   H1257     1.0  0.50351  0.77770  0.55110  1.0000
  H   H1258     1.0  0.50698  0.56300  0.52504  1.0000
  H   H1259     1.0  0.43708  0.57755  0.50828  1.0000
  C   C703      1.0  0.50127  0.72152  0.66762  1.0000
  N   N38       1.0  0.36065  0.98993  0.84857  1.0000
  Fe  Fe79      1.0  0.50460  0.64774  0.70237  1.0000
  H   H1260     1.0  0.42658  0.97822  0.65196  1.0000
  H   H1261     1.0  0.47402  0.50152  0.66967  1.0000
  C   C704      1.0  0.30287  0.50762  0.65766  1.0000
  H   H1262     1.0  0.40992  0.99577  0.83500  1.0000
  C   C705      1.0  0.45407  0.99684  0.58436  1.0000
  N   N39       1.0  0.26436  0.66907  0.49878  1.0000
  C   C706      1.0  0.25858  0.62782  0.58701  1.0000
  H   H1263     1.0  0.27409  0.61990  0.49742  1.0000
  H   H1264     1.0  0.50796  0.94308  0.53807  1.0000
  H   H1265     1.0  0.62530  0.26375  0.45104  1.0000
  H   H1266     1.0  0.54154  0.18630  0.41811  1.0000
  H   H1267     1.0  0.64495  0.47709  0.40231  1.0000
  H   H1268     1.0  0.75389  0.03129  0.05061  1.0000
  H   H1269     1.0  0.55381  0.47093  0.47697  1.0000
  H   H1270     1.0  0.53447  0.48584  0.27009  1.0000
  C   C707      1.0  0.52253  0.17959  0.42021  1.0000
  Fe  Fe80      1.0  0.54274  0.33420  0.24869  1.0000
  S   S155      1.0  0.57317  0.34603  0.22312  1.0000
  S   S156      1.0  0.54784  0.31345  0.28541  1.0000
  H   H1271     1.0  0.66747  0.32717  0.29069  1.0000
  S   S157      1.0  0.55386  0.10369  0.42155  1.0000
  Fe  Fe81      1.0  0.56667  0.04668  0.36939  1.0000
  S   S158      1.0  0.59472  0.07960  0.38385  1.0000
  H   H1272     1.0  0.52319  0.47607  0.46930  1.0000
  Fe  Fe82      1.0  0.58089  0.06475  0.41966  1.0000
  S   S159      1.0  0.60390  0.05260  0.45171  1.0000
  Fe  Fe83      1.0  0.56569  0.11591  0.38421  1.0000
  S   S160      1.0  0.57217  0.16742  0.37421  1.0000
  S   S161      1.0  0.55474  0.02942  0.40522  1.0000
  H   H1273     1.0  0.75160  0.23653  0.48569  1.0000
  Fe  Fe84      1.0  0.68847  0.46141  0.20838  1.0000
  S   S162      1.0  0.71452  0.47983  0.23564  1.0000
  S   S163      1.0  0.65322  0.45333  0.22795  1.0000
  Fe  Fe85      1.0  0.72512  0.47447  0.16757  1.0000
  C   C708      1.0  0.74051  0.25373  0.47571  1.0000
  C   C709      1.0  0.59046  0.36766  0.45624  1.0000
  S   S164      1.0  0.73336  0.07449  0.20643  1.0000
  S   S165      1.0  0.71550  0.43096  0.18976  1.0000
  H   H1274     1.0  0.64643  0.03493  0.30895  1.0000
  H   H1275     1.0  0.56951  0.27700  0.38458  1.0000
  H   H1276     1.0  0.53103  0.03827  0.45756  1.0000
  H   H1277     1.0  0.62201  0.32114  0.29033  1.0000
  C   C710      1.0  0.66562  0.33633  0.27209  1.0000
  Fe  Fe86      1.0  0.67226  0.38743  0.45726  1.0000
  S   S166      1.0  0.65551  0.33963  0.45265  1.0000
  S   S167      1.0  0.66255  0.42607  0.43087  1.0000
  Fe  Fe87      1.0  0.51773  0.28060  0.27585  1.0000
  Fe  Fe88      1.0  0.69290  0.32126  0.45467  1.0000
  S   S168      1.0  0.70248  0.28201  0.42876  1.0000
  S   S169      1.0  0.70979  0.36912  0.45709  1.0000
  H   H1278     1.0  0.55003  0.36490  0.39304  1.0000
  Fe  Fe89      1.0  0.74165  0.45125  0.21620  1.0000
  H   H1279     1.0  0.65121  0.07592  0.28288  1.0000
  C   C711      1.0  0.72677  0.28204  0.40851  1.0000
  C   C712      1.0  0.72955  0.25634  0.39301  1.0000
  H   H1280     1.0  0.71900  0.08763  0.15312  1.0000
  H   H1281     1.0  0.66148  0.24427  0.41174  1.0000
  H   H1282     1.0  0.66854  0.22975  0.49396  1.0000
  H   H1283     1.0  0.67876  0.36955  0.19033  1.0000
  C   C713      1.0  0.68891  0.36065  0.23820  1.0000
  H   H1284     1.0  0.65998  0.29984  0.37779  1.0000
  C   C714      1.0  0.74261  0.09139  0.23357  1.0000
  H   H1285     1.0  0.53619  0.42356  0.45796  1.0000
  H   H1286     1.0  0.73846  0.04926  0.25470  1.0000
  H   H1287     1.0  0.66167  0.31533  0.26105  1.0000
  H   H1288     1.0  0.65837  0.47490  0.27736  1.0000
  C   C715      1.0  0.64301  0.35687  0.27142  1.0000
  C   C716      1.0  0.53859  0.41340  0.39771  1.0000
  H   H1289     1.0  0.67675  0.39943  0.27338  1.0000
  C   C717      1.0  0.63832  0.45167  0.43499  1.0000
  C   C718      1.0  0.62353  0.44896  0.45481  1.0000
  C   C719      1.0  0.60387  0.46897  0.45707  1.0000
  C   C720      1.0  0.60418  0.45857  0.35499  1.0000
  C   C721      1.0  0.59086  0.37662  0.41145  1.0000
  H   H1290     1.0  0.62730  0.43156  0.46845  1.0000
  C   C722      1.0  0.70907  0.33159  0.27125  1.0000
  C   C723      1.0  0.59493  0.37650  0.22467  1.0000
  C   C724      1.0  0.59506  0.39912  0.24277  1.0000
  C   C725      1.0  0.61307  0.42244  0.24348  1.0000
  C   C726      1.0  0.63100  0.42353  0.22606  1.0000
  C   C727      1.0  0.63065  0.40122  0.20780  1.0000
  C   C728      1.0  0.61273  0.37783  0.20716  1.0000
  H   H1291     1.0  0.58147  0.39839  0.25634  1.0000
  H   H1292     1.0  0.61317  0.43960  0.25770  1.0000
  H   H1293     1.0  0.64405  0.40213  0.19408  1.0000
  H   H1294     1.0  0.61268  0.36055  0.19300  1.0000
  H   H1295     1.0  0.61337  0.43748  0.34821  1.0000
  C   C729      1.0  0.54694  0.42035  0.30956  1.0000
  C   C730      1.0  0.55583  0.45137  0.30843  1.0000
  H   H1296     1.0  0.74342  0.28804  0.27768  1.0000
  C   C731      1.0  0.52591  0.46790  0.33649  1.0000
  H   H1297     1.0  0.62627  0.10169  0.30576  1.0000
  H   H1298     1.0  0.55521  0.40187  0.29936  1.0000
  H   H1299     1.0  0.58022  0.37227  0.47270  1.0000
  H   H1300     1.0  0.72837  0.25414  0.26516  1.0000
  C   C732      1.0  0.53257  0.21213  0.31037  1.0000
  C   C733      1.0  0.53164  0.17939  0.31419  1.0000
  C   C734      1.0  0.54385  0.16548  0.33351  1.0000
  C   C735      1.0  0.55692  0.18418  0.34944  1.0000
  C   C736      1.0  0.55788  0.21693  0.34566  1.0000
  C   C737      1.0  0.54574  0.23089  0.32625  1.0000
  H   H1301     1.0  0.59288  0.46678  0.47262  1.0000
  H   H1302     1.0  0.54340  0.14024  0.33585  1.0000
  H   H1303     1.0  0.67099  0.02935  0.26666  1.0000
  H   H1304     1.0  0.54660  0.25611  0.32350  1.0000
  H   H1305     1.0  0.64310  0.27722  0.41565  1.0000
  H   H1306     1.0  0.64127  0.23179  0.37236  1.0000
  H   H1307     1.0  0.63145  0.01947  0.48691  1.0000
  C   C738      1.0  0.65091  0.22801  0.45940  1.0000
  H   H1308     1.0  0.51170  0.38160  0.41229  1.0000
  H   H1309     1.0  0.65789  0.27751  0.35050  1.0000
  H   H1310     1.0  0.66632  0.23972  0.45082  1.0000
  N   N40       1.0  0.68842  0.35241  0.26447  1.0000
  H   H1311     1.0  0.56148  0.30314  0.40840  1.0000
  H   H1312     1.0  0.67286  0.32901  0.18273  1.0000
  H   H1313     1.0  0.60898  0.37626  0.45898  1.0000
  H   H1314     1.0  0.57100  0.45683  0.29735  1.0000
  C   C739      1.0  0.64041  0.25536  0.38076  1.0000
  C   C740      1.0  0.69098  0.38256  0.27860  1.0000
  C   C741      1.0  0.59805  0.03991  0.23950  1.0000
  C   C742      1.0  0.66027  0.27573  0.37015  1.0000
  H   H1315     1.0  0.55700  0.05263  0.47314  1.0000
  H   H1316     1.0  0.60201  0.33076  0.37632  1.0000
  H   H1317     1.0  0.58852  0.00873  0.48786  1.0000
  H   H1318     1.0  0.61043  0.38058  0.41356  1.0000
  H   H1319     1.0  0.61756  0.32183  0.25829  1.0000
  H   H1320     1.0  0.75257  0.31740  0.20728  1.0000
  C   C743      1.0  0.51739  0.43694  0.33803  1.0000
  S   S170      1.0  0.53888  0.08410  0.36668  1.0000
  C   C744      1.0  0.51732  0.48200  0.26055  1.0000
  C   C745      1.0  0.70940  0.29803  0.26048  1.0000
  C   C746      1.0  0.67643  0.33740  0.22079  1.0000
  H   H1321     1.0  0.70233  0.34088  0.19208  1.0000
  C   C747      1.0  0.62415  0.13971  0.42228  1.0000
  N   N41       1.0  0.58177  0.39369  0.38955  1.0000
  C   C748      1.0  0.58888  0.42794  0.39148  1.0000
  C   C749      1.0  0.59442  0.38042  0.36814  1.0000
  C   C750      1.0  0.55529  0.38870  0.38637  1.0000
  H   H1322     1.0  0.61289  0.12191  0.43155  1.0000
  C   C751      1.0  0.58245  0.44917  0.36972  1.0000
  C   C752      1.0  0.59097  0.34456  0.36361  1.0000
  H   H1323     1.0  0.62259  0.13577  0.40275  1.0000
  C   C753      1.0  0.63339  0.47467  0.41757  1.0000
  C   C754      1.0  0.59874  0.33558  0.33846  1.0000
  H   H1324     1.0  0.60835  0.42981  0.39498  1.0000
  H   H1325     1.0  0.58090  0.43915  0.40732  1.0000
  H   H1326     1.0  0.61394  0.38506  0.36952  1.0000
  H   H1327     1.0  0.58834  0.39255  0.35157  1.0000
  H   H1328     1.0  0.55043  0.38834  0.36712  1.0000
  C   C755      1.0  0.57879  0.38493  0.43534  1.0000
  H   H1329     1.0  0.56907  0.43793  0.35790  1.0000
  S   S171      1.0  0.51465  0.29848  0.23778  1.0000
  H   H1330     1.0  0.57211  0.33720  0.36559  1.0000
  H   H1331     1.0  0.62195  0.00529  0.25341  1.0000
  H   H1332     1.0  0.54414  0.42015  0.41594  1.0000
  C   C756      1.0  0.53473  0.42325  0.21073  1.0000
  S   S172      1.0  0.69159  0.31465  0.49466  1.0000
  H   H1333     1.0  0.59672  0.30973  0.33600  1.0000
  H   H1334     1.0  0.58743  0.34754  0.32487  1.0000
  C   C757      1.0  0.52807  0.41306  0.32488  1.0000
  N   N42       1.0  0.62523  0.23207  0.42091  1.0000
  C   C758      1.0  0.60016  0.23905  0.41287  1.0000
  C   C759      1.0  0.63062  0.19819  0.41504  1.0000
  C   C760      1.0  0.62720  0.23812  0.44737  1.0000
  C   C761      1.0  0.64311  0.25288  0.40828  1.0000
  C   C762      1.0  0.59191  0.27353  0.41639  1.0000
  H   H1335     1.0  0.61762  0.01927  0.31359  1.0000
  C   C763      1.0  0.61585  0.17283  0.42860  1.0000
  C   C764      1.0  0.56787  0.27910  0.40425  1.0000
  H   H1336     1.0  0.52129  0.16055  0.43383  1.0000
  H   H1337     1.0  0.58723  0.22418  0.42287  1.0000
  H   H1338     1.0  0.59747  0.23220  0.39385  1.0000
  H   H1339     1.0  0.62745  0.19373  0.39570  1.0000
  H   H1340     1.0  0.64983  0.19315  0.41799  1.0000
  H   H1341     1.0  0.61752  0.17538  0.44821  1.0000
  Fe  Fe90      1.0  0.65579  0.33788  0.49271  1.0000
  H   H1342     1.0  0.62326  0.26636  0.37566  1.0000
  C   C765      1.0  0.74030  0.00736  0.08208  1.0000
  H   H1343     1.0  0.60479  0.29078  0.40897  1.0000
  H   H1344     1.0  0.61226  0.22662  0.45712  1.0000
  H   H1345     1.0  0.58981  0.27856  0.43569  1.0000
  H   H1346     1.0  0.59675  0.17424  0.42366  1.0000
  S   S173      1.0  0.51551  0.36922  0.26008  1.0000
  C   C766      1.0  0.53302  0.42847  0.47708  1.0000
  H   H1347     1.0  0.74993  0.06676  0.11057  1.0000
  H   H1348     1.0  0.75167  0.40910  0.47361  1.0000
  H   H1349     1.0  0.55982  0.37751  0.43492  1.0000
  H   H1350     1.0  0.66947  0.08398  0.23058  1.0000
  C   C767      1.0  0.51695  0.37315  0.19309  1.0000
  C   C768      1.0  0.71482  0.40083  0.27561  1.0000
  C   C769      1.0  0.75795  0.36411  0.22159  1.0000
  S   S174      1.0  0.57461  0.01578  0.33773  1.0000
  C   C770      1.0  0.64150  0.06275  0.26869  1.0000
  H   H1351     1.0  0.54411  0.40734  0.22352  1.0000
  C   C771      1.0  0.74911  0.12332  0.23380  1.0000
  H   H1352     1.0  0.74081  0.13949  0.14057  1.0000
  H   H1353     1.0  0.56489  0.45411  0.24166  1.0000
  H   H1354     1.0  0.56810  0.23155  0.35773  1.0000
  H   H1355     1.0  0.57428  0.47129  0.37625  1.0000
  C   C772      1.0  0.59458  0.49288  0.21164  1.0000
  H   H1356     1.0  0.60797  0.49145  0.19719  1.0000
  H   H1357     1.0  0.53293  0.03481  0.48960  1.0000
  C   C773      1.0  0.74359  0.07388  0.25473  1.0000
  H   H1358     1.0  0.71795  0.27121  0.29258  1.0000
  H   H1359     1.0  0.71622  0.29926  0.24192  1.0000
  H   H1360     1.0  0.61764  0.07087  0.32619  1.0000
  H   H1361     1.0  0.59715  0.08167  0.27552  1.0000
  H   H1362     1.0  0.63397  0.08128  0.25679  1.0000
  C   C774      1.0  0.71428  0.43244  0.28850  1.0000
  N   N43       1.0  0.53170  0.45547  0.22171  1.0000
  S   S175      1.0  0.69322  0.00979  0.18064  1.0000
  H   H1363     1.0  0.72992  0.38748  0.28338  1.0000
  H   H1364     1.0  0.52417  0.35838  0.20776  1.0000
  N   N44       1.0  0.62189  0.04291  0.27942  1.0000
  H   H1365     1.0  0.64182  0.36981  0.25430  1.0000
  C   C775      1.0  0.74887  0.25505  0.37706  1.0000
  H   H1366     1.0  0.59722  0.12045  0.33509  1.0000
  H   H1367     1.0  0.65284  0.03095  0.23984  1.0000
  H   H1368     1.0  0.64340  0.37421  0.28622  1.0000
  Fe  Fe91      1.0  0.72410  0.02266  0.20426  1.0000
  S   S176      1.0  0.73037  0.48109  0.12729  1.0000
  H   H1369     1.0  0.58478  0.12200  0.30543  1.0000
  Fe  Fe92      1.0  0.52880  0.06944  0.40388  1.0000
  H   H1370     1.0  0.51487  0.42004  0.48171  1.0000
  H   H1371     1.0  0.55442  0.26177  0.41067  1.0000
  H   H1372     1.0  0.73534  0.10358  0.11097  1.0000
  H   H1373     1.0  0.53840  0.43521  0.38674  1.0000
  H   H1374     1.0  0.71140  0.42890  0.30792  1.0000
  C   C776      1.0  0.67850  0.06790  0.24337  1.0000
  C   C777      1.0  0.60953  0.02256  0.26104  1.0000
  C   C778      1.0  0.51933  0.47768  0.20455  1.0000
  H   H1375     1.0  0.70764  0.36378  0.23225  1.0000
  H   H1376     1.0  0.65339  0.20216  0.45834  1.0000
  H   H1377     1.0  0.75085  0.23502  0.36538  1.0000
  C   C779      1.0  0.51880  0.45179  0.24509  1.0000
  H   H1378     1.0  0.67793  0.26510  0.37389  1.0000
  H   H1379     1.0  0.73156  0.44486  0.28599  1.0000
  H   H1380     1.0  0.68041  0.38395  0.23483  1.0000
  S   S177      1.0  0.75296  0.49230  0.19302  1.0000
  H   H1381     1.0  0.75616  0.34981  0.47920  1.0000
  H   H1382     1.0  0.72187  0.25159  0.48200  1.0000
  C   C780      1.0  0.51176  0.40638  0.20198  1.0000
  H   H1383     1.0  0.74801  0.13699  0.21756  1.0000
  H   H1384     1.0  0.52787  0.43389  0.25647  1.0000
  C   C781      1.0  0.70145  0.06454  0.12371  1.0000
  H   H1385     1.0  0.74862  0.37572  0.20713  1.0000
  Fe  Fe93      1.0  0.51843  0.34597  0.29571  1.0000
  H   H1386     1.0  0.74141  0.32671  0.41933  1.0000
  H   H1387     1.0  0.64290  0.13620  0.42797  1.0000
  H   H1388     1.0  0.57993  0.41046  0.43922  1.0000
  H   H1389     1.0  0.60337  0.48636  0.22872  1.0000
  H   H1390     1.0  0.58274  0.05425  0.24530  1.0000
  H   H1391     1.0  0.69184  0.28619  0.26023  1.0000
  H   H1392     1.0  0.52997  0.37379  0.17827  1.0000
  H   H1393     1.0  0.58833  0.35081  0.40960  1.0000
  H   H1394     1.0  0.52407  0.14892  0.39008  1.0000
  H   H1395     1.0  0.71017  0.32942  0.29109  1.0000
  H   H1396     1.0  0.68778  0.05334  0.13524  1.0000
  H   H1397     1.0  0.71845  0.40553  0.25648  1.0000
  H   H1398     1.0  0.61113  0.05542  0.23040  1.0000
  H   H1399     1.0  0.64984  0.26304  0.48774  1.0000
  H   H1400     1.0  0.75145  0.07493  0.29245  1.0000
  H   H1401     1.0  0.68122  0.31264  0.22434  1.0000
  C   C782      1.0  0.62056  0.33663  0.27438  1.0000
  H   H1402     1.0  0.58146  0.44684  0.20271  1.0000
  C   C783      1.0  0.63416  0.01397  0.42654  1.0000
  C   C784      1.0  0.51307  0.40088  0.39889  1.0000
  H   H1403     1.0  0.69402  0.08665  0.11619  1.0000
  H   H1404     1.0  0.62031  0.49866  0.29375  1.0000
  C   C785      1.0  0.60347  0.06491  0.28945  1.0000
  H   H1405     1.0  0.74749  0.18985  0.16336  1.0000
  C   C786      1.0  0.59112  0.10590  0.31976  1.0000
  C   C787      1.0  0.61157  0.08554  0.31093  1.0000
  H   H1406     1.0  0.68865  0.37772  0.29803  1.0000
  C   C788      1.0  0.66072  0.04495  0.25459  1.0000
  H   H1407     1.0  0.66256  0.43368  0.30731  1.0000
  H   H1408     1.0  0.57607  0.09081  0.32578  1.0000
  C   C789      1.0  0.72384  0.07144  0.13846  1.0000
  H   H1409     1.0  0.71679  0.23717  0.39339  1.0000
  H   H1410     1.0  0.70548  0.04806  0.10895  1.0000
  C   C790      1.0  0.68303  0.34475  0.19492  1.0000
  C   C791      1.0  0.74388  0.08571  0.12274  1.0000
  C   C792      1.0  0.57384  0.47048  0.20619  1.0000
  H   H1411     1.0  0.58745  0.05123  0.29515  1.0000
  H   H1412     1.0  0.68783  0.08199  0.25729  1.0000
  H   H1413     1.0  0.60482  0.35192  0.27663  1.0000
  H   H1414     1.0  0.69197  0.05434  0.23343  1.0000
  C   C793      1.0  0.54561  0.47502  0.32238  1.0000
  C   C794      1.0  0.63142  0.02270  0.29968  1.0000
  H   H1415     1.0  0.59060  0.34181  0.45324  1.0000
  H   H1416     1.0  0.65682  0.33936  0.22237  1.0000
  H   H1417     1.0  0.72965  0.04868  0.14635  1.0000
  C   C795      1.0  0.72580  0.27662  0.27488  1.0000
  C   C796      1.0  0.74350  0.30660  0.40780  1.0000
  H   H1418     1.0  0.63166  0.44408  0.30477  1.0000
  H   H1419     1.0  0.54625  0.42452  0.19473  1.0000
  H   H1420     1.0  0.74081  0.24788  0.45640  1.0000
  H   H1421     1.0  0.72625  0.34237  0.26563  1.0000
  H   H1422     1.0  0.51711  0.48630  0.34618  1.0000
  C   C797      1.0  0.55621  0.46846  0.22738  1.0000
  H   H1423     1.0  0.54625  0.41519  0.48786  1.0000
  H   H1424     1.0  0.61766  0.34218  0.33557  1.0000
  H   H1425     1.0  0.74966  0.12118  0.16747  1.0000
  C   C798      1.0  0.53555  0.46382  0.48162  1.0000
  C   C799      1.0  0.54324  0.03374  0.47284  1.0000
  C   C800      1.0  0.59845  0.49140  0.43933  1.0000
  H   H1426     1.0  0.52436  0.47198  0.18587  1.0000
  H   H1427     1.0  0.61679  0.47274  0.36596  1.0000
  C   C801      1.0  0.62640  0.02399  0.44890  1.0000
  C   C802      1.0  0.65141  0.23711  0.48577  1.0000
  C   C803      1.0  0.75686  0.13773  0.25498  1.0000
  S   S178      1.0  0.51708  0.22834  0.28557  1.0000
  H   H1428     1.0  0.62645  0.02394  0.41049  1.0000
  H   H1429     1.0  0.55486  0.49265  0.23482  1.0000
  S   S179      1.0  0.51877  0.37404  0.32940  1.0000
  H   H1430     1.0  0.56500  0.47886  0.18962  1.0000
  C   C804      1.0  0.75100  0.08843  0.27606  1.0000
  C   C805      1.0  0.63686  0.01119  0.46957  1.0000
  C   C806      1.0  0.74963  0.28729  0.47985  1.0000
  H   H1431     1.0  0.58004  0.02912  0.20606  1.0000
  H   H1432     1.0  0.59528  0.00824  0.26975  1.0000
  H   H1433     1.0  0.64954  0.45800  0.32981  1.0000
  H   H1434     1.0  0.52166  0.16469  0.30192  1.0000
  C   C807      1.0  0.64953  0.45270  0.31043  1.0000
  C   C808      1.0  0.58867  0.01632  0.22107  1.0000
  H   H1435     1.0  0.69997  0.44748  0.28104  1.0000
  H   H1436     1.0  0.57536  0.00013  0.22923  1.0000
  H   H1437     1.0  0.73697  0.30363  0.47103  1.0000
  C   C809      1.0  0.65662  0.48206  0.29625  1.0000
  H   H1438     1.0  0.59855  0.47316  0.33952  1.0000
  C   C810      1.0  0.61333  0.49416  0.41953  1.0000
  H   H1439     1.0  0.60349  0.00216  0.21377  1.0000
  H   H1440     1.0  0.56455  0.00147  0.45299  1.0000
  H   H1441     1.0  0.67437  0.48966  0.30286  1.0000
  C   C811      1.0  0.55475  0.00143  0.47012  1.0000
  H   H1442     1.0  0.72292  0.00309  0.07430  1.0000
  C   C812      1.0  0.75643  0.12857  0.14961  1.0000
  C   C813      1.0  0.75786  0.02333  0.06855  1.0000
  H   H1443     1.0  0.51265  0.20050  0.42650  1.0000
  H   H1444     1.0  0.51387  0.18811  0.38337  1.0000
  C   C814      1.0  0.51253  0.16829  0.39627  1.0000
  H   H1445     1.0  0.50909  0.10450  0.32035  1.0000
  H   H1446     1.0  0.63664  0.22538  0.49552  1.0000
  C   C815      1.0  0.75786  0.12031  0.27617  1.0000
  S   S180      1.0  0.73516  0.38079  0.52310  1.0000
  C   C816      1.0  0.72509  0.15897  0.71170  1.0000
  C   C817      1.0  0.58443  0.46981  0.69440  1.0000
  Fe  Fe94      1.0  0.72138  0.09282  0.81930  1.0000
  Fe  Fe95      1.0  0.67666  0.09073  0.78614  1.0000
  S   S181      1.0  0.69667  0.11125  0.75518  1.0000
  S   S182      1.0  0.63830  0.07190  0.78405  1.0000
  Fe  Fe96      1.0  0.72655  0.07893  0.76564  1.0000
  H   H1447     1.0  0.54425  0.29565  0.70471  1.0000
  Fe  Fe97      1.0  0.71284  0.14448  0.78208  1.0000
  S   S183      1.0  0.71362  0.19677  0.77328  1.0000
  S   S184      1.0  0.70562  0.05582  0.79478  1.0000
  S   S185      1.0  0.69081  0.12604  0.81277  1.0000
  C   C818      1.0  0.61704  0.09240  0.84991  1.0000
  H   H1448     1.0  0.65724  0.05149  0.83247  1.0000
  S   S186      1.0  0.54591  0.14248  0.74399  1.0000
  C   C819      1.0  0.75148  0.01393  0.73619  1.0000
  S   S187      1.0  0.53655  0.39941  0.54241  1.0000
  H   H1449     1.0  0.67748  0.14677  0.86632  1.0000
  H   H1450     1.0  0.61350  0.10837  0.90195  1.0000
  H   H1451     1.0  0.65149  0.11415  0.84505  1.0000
  H   H1452     1.0  0.54849  0.33378  0.55210  1.0000
  H   H1453     1.0  0.61781  0.12149  0.81767  1.0000
  C   C820      1.0  0.70543  0.18329  0.70837  1.0000
  C   C821      1.0  0.61306  0.09130  0.77161  1.0000
  C   C822      1.0  0.61422  0.12243  0.76338  1.0000
  C   C823      1.0  0.59356  0.13746  0.75476  1.0000
  C   C824      1.0  0.57151  0.12156  0.75394  1.0000
  C   C825      1.0  0.57039  0.09023  0.76178  1.0000
  C   C826      1.0  0.59101  0.07531  0.77072  1.0000
  H   H1454     1.0  0.63097  0.13513  0.76406  1.0000
  H   H1455     1.0  0.59466  0.16170  0.74882  1.0000
  H   H1456     1.0  0.55352  0.07782  0.76159  1.0000
  H   H1457     1.0  0.58979  0.05142  0.77739  1.0000
  C   C827      1.0  0.62192  0.08839  0.91154  1.0000
  H   H1458     1.0  0.74938  0.29178  0.49932  1.0000
  H   H1459     1.0  0.71896  0.25510  0.74773  1.0000
  C   C828      1.0  0.51897  0.46357  0.68090  1.0000
  C   C829      1.0  0.52518  0.32043  0.66383  1.0000
  H   H1460     1.0  0.68979  0.17638  0.71927  1.0000
  C   C830      1.0  0.60397  0.34742  0.59933  1.0000
  H   H1461     1.0  0.66554  0.28671  0.54542  1.0000
  H   H1462     1.0  0.73673  0.48882  0.82671  1.0000
  H   H1463     1.0  0.53996  0.31732  0.65102  1.0000
  C   C831      1.0  0.74815  0.16929  0.69865  1.0000
  H   H1464     1.0  0.62086  0.07011  0.84062  1.0000
  S   S188      1.0  0.62610  0.31694  0.51493  1.0000
  C   C832      1.0  0.64778  0.36223  0.59795  1.0000
  N   N45       1.0  0.65401  0.08894  0.87855  1.0000
  H   H1465     1.0  0.59543  0.42082  0.69057  1.0000
  C   C833      1.0  0.56196  0.37659  0.53634  1.0000
  C   C834      1.0  0.58106  0.39048  0.52403  1.0000
  C   C835      1.0  0.60105  0.37261  0.51779  1.0000
  C   C836      1.0  0.60188  0.34054  0.52348  1.0000
  C   C837      1.0  0.58299  0.32677  0.53618  1.0000
  C   C838      1.0  0.56312  0.34474  0.54267  1.0000
  H   H1466     1.0  0.57925  0.00470  0.65176  1.0000
  H   H1467     1.0  0.51128  0.46432  0.51068  1.0000
  H   H1468     1.0  0.58782  0.34279  0.58835  1.0000
  C   C839      1.0  0.55821  0.07963  0.69527  1.0000
  C   C840      1.0  0.68647  0.41585  0.55748  1.0000
  C   C841      1.0  0.73632  0.24438  0.74893  1.0000
  H   H1469     1.0  0.69120  0.40137  0.60658  1.0000
  H   H1470     1.0  0.51171  0.00729  0.75552  1.0000
  H   H1471     1.0  0.62711  0.05285  0.88462  1.0000
  H   H1472     1.0  0.55643  0.27652  0.67974  1.0000
  H   H1473     1.0  0.61552  0.38351  0.50811  1.0000
  H   H1474     1.0  0.54705  0.18988  0.63089  1.0000
  H   H1475     1.0  0.50912  0.19933  0.72904  1.0000
  H   H1476     1.0  0.71870  0.38743  0.64109  1.0000
  H   H1477     1.0  0.57587  0.10621  0.66694  1.0000
  H   H1478     1.0  0.69507  0.45702  0.53610  1.0000
  H   H1479     1.0  0.73022  0.35260  0.62685  1.0000
  S   S189      1.0  0.74880  0.05546  0.73697  1.0000
  H   H1480     1.0  0.57825  0.47121  0.51266  1.0000
  C   C842      1.0  0.74181  0.46137  0.74039  1.0000
  C   C843      1.0  0.53553  0.19157  0.64684  1.0000
  H   H1481     1.0  0.69253  0.40031  0.54305  1.0000
  H   H1482     1.0  0.53352  0.44811  0.62342  1.0000
  H   H1483     1.0  0.58358  0.30200  0.54077  1.0000
  H   H1484     1.0  0.70793  0.37260  0.59125  1.0000
  C   C844      1.0  0.63846  0.06945  0.89487  1.0000
  H   H1485     1.0  0.51299  0.45181  0.69696  1.0000
  H   H1486     1.0  0.69740  0.29319  0.54468  1.0000
  H   H1487     1.0  0.59871  0.13609  0.84089  1.0000
  H   H1488     1.0  0.60774  0.32601  0.61013  1.0000
  H   H1489     1.0  0.54006  0.03527  0.72961  1.0000
  C   C845      1.0  0.60926  0.48132  0.70282  1.0000
  C   C846      1.0  0.63997  0.10774  0.86041  1.0000
  C   C847      1.0  0.75597  0.25929  0.73812  1.0000
  C   C848      1.0  0.60514  0.11452  0.83191  1.0000
  S   S190      1.0  0.73509  0.07361  0.85533  1.0000
  C   C849      1.0  0.74441  0.33191  0.55520  1.0000
  H   H1490     1.0  0.52230  0.03234  0.70337  1.0000
  H   H1491     1.0  0.72871  0.15680  0.73112  1.0000
  H   H1492     1.0  0.74246  0.12310  0.67195  1.0000
  H   H1493     1.0  0.68499  0.26374  0.56420  1.0000
  H   H1494     1.0  0.54061  0.45615  0.51968  1.0000
  C   C850      1.0  0.52172  0.44636  0.65987  1.0000
  C   C851      1.0  0.57856  0.49438  0.52169  1.0000
  C   C852      1.0  0.53000  0.47180  0.50792  1.0000
  H   H1495     1.0  0.75477  0.29428  0.57910  1.0000
  H   H1496     1.0  0.67740  0.36523  0.63658  1.0000
  H   H1497     1.0  0.63237  0.09804  0.92679  1.0000
  H   H1498     1.0  0.67447  0.46451  0.55991  1.0000
  C   C853      1.0  0.69168  0.35715  0.62447  1.0000
  H   H1499     1.0  0.71157  0.20691  0.71436  1.0000
  H   H1500     1.0  0.56828  0.43067  0.67524  1.0000
  H   H1501     1.0  0.51381  0.27231  0.66206  1.0000
  N   N46       1.0  0.53654  0.24570  0.70343  1.0000
  H   H1502     1.0  0.52890  0.19720  0.69478  1.0000
  C   C854      1.0  0.54037  0.27707  0.69125  1.0000
  C   C855      1.0  0.52917  0.22059  0.68583  1.0000
  C   C856      1.0  0.55953  0.23570  0.71514  1.0000
  C   C857      1.0  0.56884  0.25718  0.73556  1.0000
  H   H1503     1.0  0.74645  0.13898  0.86923  1.0000
  C   C858      1.0  0.54515  0.21715  0.66350  1.0000
  Fe  Fe98      1.0  0.50972  0.38420  0.57029  1.0000
  H   H1504     1.0  0.73670  0.31626  0.54206  1.0000
  C   C859      1.0  0.59027  0.24237  0.74810  1.0000
  C   C860      1.0  0.74703  0.49091  0.75062  1.0000
  H   H1505     1.0  0.72185  0.34440  0.78309  1.0000
  C   C861      1.0  0.55981  0.04719  0.68258  1.0000
  C   C862      1.0  0.53034  0.46148  0.63942  1.0000
  C   C863      1.0  0.74517  0.36435  0.55070  1.0000
  H   H1506     1.0  0.58033  0.41507  0.51908  1.0000
  H   H1507     1.0  0.54596  0.23932  0.65301  1.0000
  H   H1508     1.0  0.61574  0.46303  0.71545  1.0000
  H   H1509     1.0  0.55804  0.21106  0.72203  1.0000
  H   H1510     1.0  0.57403  0.23489  0.70178  1.0000
  H   H1511     1.0  0.55514  0.26123  0.74931  1.0000
  H   H1512     1.0  0.57458  0.28039  0.72833  1.0000
  H   H1513     1.0  0.72819  0.35720  0.75286  1.0000
  H   H1514     1.0  0.72214  0.00461  0.75970  1.0000
  H   H1515     1.0  0.56349  0.21048  0.66871  1.0000
  H   H1516     1.0  0.75462  0.19039  0.70853  1.0000
  H   H1517     1.0  0.67815  0.09841  0.90812  1.0000
  S   S191      1.0  0.74428  0.11386  0.79034  1.0000
  S   S192      1.0  0.51448  0.40602  0.65950  1.0000
  C   C864      1.0  0.75447  0.48203  0.81991  1.0000
  H   H1518     1.0  0.68376  0.08120  0.85493  1.0000
  H   H1519     1.0  0.60482  0.23807  0.73521  1.0000
  H   H1520     1.0  0.59707  0.25848  0.76220  1.0000
  H   H1521     1.0  0.58508  0.21970  0.75667  1.0000
  H   H1522     1.0  0.55848  0.49095  0.76436  1.0000
  C   C865      1.0  0.66816  0.11157  0.89402  1.0000
  H   H1523     1.0  0.71804  0.13609  0.70520  1.0000
  C   C866      1.0  0.51344  0.22117  0.73898  1.0000
  H   H1524     1.0  0.59129  0.08149  0.93440  1.0000
  S   S193      1.0  0.51682  0.35203  0.60135  1.0000
  H   H1525     1.0  0.74774  0.10046  0.69800  1.0000
  C   C867      1.0  0.51908  0.28928  0.67616  1.0000
  C   C868      1.0  0.73890  0.21538  0.76082  1.0000
  H   H1526     1.0  0.54146  0.08180  0.70544  1.0000
  C   C869      1.0  0.66157  0.04122  0.85023  1.0000
  H   H1527     1.0  0.58971  0.10242  0.82338  1.0000
  C   C870      1.0  0.67989  0.01529  0.84646  1.0000
  H   H1528     1.0  0.69234  0.35156  0.55626  1.0000
  H   H1529     1.0  0.71513  0.34929  0.65490  1.0000
  H   H1530     1.0  0.65607  0.12778  0.90357  1.0000
  C   C871      1.0  0.62492  0.35537  0.58307  1.0000
  H   H1531     1.0  0.69715  0.02539  0.84058  1.0000
  H   H1532     1.0  0.62153  0.48000  0.68737  1.0000
  H   H1533     1.0  0.68224  0.49293  0.75730  1.0000
  H   H1534     1.0  0.63436  0.13064  0.86817  1.0000
  H   H1535     1.0  0.57336  0.08333  0.70772  1.0000
  H   H1536     1.0  0.68285  0.00195  0.86330  1.0000
  H   H1537     1.0  0.72421  0.45126  0.74230  1.0000
  H   H1538     1.0  0.65046  0.34122  0.60943  1.0000
  H   H1539     1.0  0.66462  0.44406  0.53324  1.0000
  H   H1540     1.0  0.59624  0.44378  0.66319  1.0000
  H   H1541     1.0  0.68373  0.17258  0.90594  1.0000
  H   H1542     1.0  0.53534  0.16833  0.65598  1.0000
  H   H1543     1.0  0.66183  0.34378  0.55194  1.0000
  C   C872      1.0  0.67165  0.06751  0.86665  1.0000
  C   C873      1.0  0.58111  0.01881  0.71398  1.0000
  H   H1544     1.0  0.65122  0.39660  0.55642  1.0000
  H   H1545     1.0  0.70716  0.14472  0.91272  1.0000
  C   C874      1.0  0.67961  0.44729  0.54604  1.0000
  C   C875      1.0  0.55902  0.10662  0.67715  1.0000
  H   H1546     1.0  0.73615  0.31815  0.76258  1.0000
  H   H1547     1.0  0.64373  0.38174  0.61053  1.0000
  H   H1548     1.0  0.69985  0.18468  0.68936  1.0000
  H   H1549     1.0  0.74384  0.39119  0.79802  1.0000
  C   C876      1.0  0.74860  0.09083  0.88113  1.0000
  H   H1550     1.0  0.62755  0.33495  0.57108  1.0000
  C   C877      1.0  0.75207  0.12336  0.88346  1.0000
  H   H1551     1.0  0.55804  0.12947  0.68670  1.0000
  H   H1552     1.0  0.54512  0.04607  0.66911  1.0000
  H   H1553     1.0  0.70174  0.42039  0.56965  1.0000
  C   C878      1.0  0.53674  0.02033  0.71360  1.0000
  H   H1554     1.0  0.70093  0.11960  0.87332  1.0000
  H   H1555     1.0  0.57664  0.04800  0.67231  1.0000
  H   H1556     1.0  0.65763  0.41857  0.58280  1.0000
  H   H1557     1.0  0.51481  0.01571  0.63121  1.0000
  H   H1558     1.0  0.54371  0.10491  0.66456  1.0000
  C   C879      1.0  0.68009  0.31176  0.57625  1.0000
  H   H1559     1.0  0.59722  0.02196  0.70276  1.0000
  C   C880      1.0  0.71537  0.36203  0.63755  1.0000
  H   H1560     1.0  0.53025  0.33867  0.67714  1.0000
  Fe  Fe99      1.0  0.50900  0.12563  0.73162  1.0000
  H   H1561     1.0  0.66539  0.30388  0.58794  1.0000
  H   H1562     1.0  0.61961  0.37602  0.57214  1.0000
  H   H1563     1.0  0.64267  0.47691  0.74118  1.0000
  C   C881      1.0  0.51695  0.24922  0.72150  1.0000
  H   H1564     1.0  0.51722  0.19732  0.64077  1.0000
  H   H1565     1.0  0.51958  0.27099  0.73224  1.0000
  C   C882      1.0  0.68210  0.28747  0.55634  1.0000
  C   C883      1.0  0.58635  0.43942  0.67999  1.0000
  C   C884      1.0  0.75616  0.07100  0.89989  1.0000
  N   N47       1.0  0.55899  0.01840  0.69857  1.0000
  H   H1566     1.0  0.75369  0.28134  0.72865  1.0000
  C   C885      1.0  0.60226  0.06751  0.92194  1.0000
  C   C886      1.0  0.69748  0.15713  0.89813  1.0000
  H   H1567     1.0  0.60015  0.36744  0.61141  1.0000
  C   C887      1.0  0.73481  0.34311  0.76826  1.0000
  H   H1568     1.0  0.69711  0.31137  0.58639  1.0000
  C   C888      1.0  0.68621  0.13336  0.88093  1.0000
  H   H1569     1.0  0.75699  0.37605  0.83267  1.0000
  N   N48       1.0  0.66993  0.37033  0.58401  1.0000
  H   H1570     1.0  0.68923  0.33157  0.62159  1.0000
  C   C889      1.0  0.69080  0.37627  0.60076  1.0000
  C   C890      1.0  0.66497  0.40054  0.57050  1.0000
  C   C891      1.0  0.67584  0.34520  0.56606  1.0000
  H   H1571     1.0  0.60379  0.08742  0.86402  1.0000
  H   H1572     1.0  0.58112  0.03959  0.72597  1.0000
  H   H1573     1.0  0.74317  0.17778  0.68044  1.0000
  H   H1574     1.0  0.61004  0.04739  0.93197  1.0000
  H   H1575     1.0  0.56474  0.00391  0.50753  1.0000
  C   C892      1.0  0.75676  0.11600  0.68472  1.0000
  H   H1576     1.0  0.75112  0.40403  0.76911  1.0000
  H   H1577     1.0  0.52958  0.21687  0.74994  1.0000
  H   H1578     1.0  0.64545  0.02955  0.85728  1.0000
  H   H1579     1.0  0.51057  0.22424  0.67961  1.0000
  H   H1580     1.0  0.68338  0.05644  0.88044  1.0000
  H   H1581     1.0  0.50937  0.32898  0.65380  1.0000
  H   H1582     1.0  0.61246  0.01364  0.75216  1.0000
  H   H1583     1.0  0.71045  0.17218  0.88838  1.0000
  S   S194      1.0  0.75260  0.40649  0.71718  1.0000
  H   H1584     1.0  0.57547  0.48738  0.68287  1.0000
  H   H1585     1.0  0.64968  0.05411  0.90652  1.0000
  H   H1586     1.0  0.59048  0.05836  0.90751  1.0000
  C   C893      1.0  0.75585  0.38420  0.56784  1.0000
  H   H1587     1.0  0.61703  0.49199  0.52457  1.0000
  H   H1588     1.0  0.73934  0.44867  0.79531  1.0000
  H   H1589     1.0  0.57316  0.46433  0.71007  1.0000
  H   H1590     1.0  0.59896  0.49156  0.74703  1.0000
  C   C894      1.0  0.75317  0.44878  0.80960  1.0000
  H   H1591     1.0  0.68212  0.49157  0.72516  1.0000
  H   H1592     1.0  0.74699  0.43277  0.82388  1.0000
  H   H1593     1.0  0.74502  0.06808  0.65308  1.0000
  H   H1594     1.0  0.70791  0.02080  0.69271  1.0000
  H   H1595     1.0  0.53902  0.49251  0.55205  1.0000
  H   H1596     1.0  0.57623  0.49039  0.54109  1.0000
  C   C895      1.0  0.75485  0.31949  0.57618  1.0000
  H   H1597     1.0  0.75362  0.04580  0.89834  1.0000
  H   H1598     1.0  0.67800  0.00515  0.69166  1.0000
  C   C896      1.0  0.53519  0.49396  0.63974  1.0000
  H   H1599     1.0  0.75679  0.40930  0.56449  1.0000
  H   H1600     1.0  0.50956  0.49623  0.58629  1.0000
  C   C897      1.0  0.52337  0.49616  0.68109  1.0000
  C   C898      1.0  0.75803  0.38999  0.78446  1.0000
  H   H1601     1.0  0.75793  0.04992  0.67942  1.0000
  Fe  Fe100     1.0  0.70604  0.36396  0.49713  1.0000
  S   S195      1.0  0.66994  0.38702  0.49734  1.0000
  S   S196      1.0  0.53429  0.87612  0.33933  1.0000
  C   C899      1.0  0.65443  0.98784  0.46796  1.0000
  C   C900      1.0  0.74492  0.99739  0.10566  1.0000
  H   H1602     1.0  0.54219  0.75180  0.33195  1.0000
  H   H1603     1.0  0.62846  0.58168  0.32249  1.0000
  H   H1604     1.0  0.68649  0.78070  0.33537  1.0000
  H   H1605     1.0  0.63963  0.97236  0.33054  1.0000
  Fe  Fe101     1.0  0.54502  0.84143  0.25397  1.0000
  S   S197      1.0  0.57458  0.84979  0.22679  1.0000
  S   S198      1.0  0.55489  0.81833  0.28890  1.0000
  H   H1606     1.0  0.62286  0.58142  0.27745  1.0000
  S   S199      1.0  0.53127  0.58125  0.41558  1.0000
  Fe  Fe102     1.0  0.54730  0.53744  0.35737  1.0000
  S   S200      1.0  0.57476  0.56367  0.37899  1.0000
  H   H1607     1.0  0.57662  0.57863  0.30464  1.0000
  Fe  Fe103     1.0  0.55703  0.54125  0.41074  1.0000
  H   H1608     1.0  0.64764  0.57956  0.24526  1.0000
  Fe  Fe104     1.0  0.54659  0.60111  0.38143  1.0000
  S   S201      1.0  0.55386  0.65363  0.37741  1.0000
  H   H1609     1.0  0.55367  0.82046  0.37943  1.0000
  C   C901      1.0  0.74874  0.63397  0.16621  1.0000
  Fe  Fe105     1.0  0.68578  0.97034  0.20679  1.0000
  H   H1610     1.0  0.60873  0.54798  0.32424  1.0000
  S   S202      1.0  0.65006  0.96343  0.22568  1.0000
  H   H1611     1.0  0.72620  0.80567  0.34263  1.0000
  Fe  Fe106     1.0  0.73803  0.95365  0.21056  1.0000
  C   C902      1.0  0.54492  0.91511  0.33815  1.0000
  C   C903      1.0  0.62096  0.55919  0.28772  1.0000
  S   S203      1.0  0.70856  0.93603  0.18678  1.0000
  H   H1612     1.0  0.65725  0.60333  0.28499  1.0000
  C   C904      1.0  0.75419  0.50211  0.11337  1.0000
  C   C905      1.0  0.52468  0.67908  0.31329  1.0000
  H   H1613     1.0  0.54045  0.98337  0.46883  1.0000
  C   C906      1.0  0.64110  0.84159  0.38362  1.0000
  Fe  Fe107     1.0  0.68902  0.90857  0.46602  1.0000
  S   S204      1.0  0.67018  0.86752  0.44924  1.0000
  S   S205      1.0  0.68681  0.95236  0.44292  1.0000
  H   H1614     1.0  0.57373  0.96737  0.30194  1.0000
  Fe  Fe108     1.0  0.70320  0.84027  0.45804  1.0000
  S   S206      1.0  0.71554  0.80180  0.43214  1.0000
  S   S207      1.0  0.72313  0.88195  0.47328  1.0000
  C   C907      1.0  0.63779  0.85437  0.35778  1.0000
  H   H1615     1.0  0.70179  0.90293  0.36924  1.0000
  C   C908      1.0  0.73574  0.77252  0.39341  1.0000
  C   C909      1.0  0.73612  0.79948  0.40802  1.0000
  C   C910      1.0  0.54301  0.93399  0.35845  1.0000
  H   H1616     1.0  0.60536  0.54678  0.27955  1.0000
  H   H1617     1.0  0.65161  0.98786  0.27831  1.0000
  H   H1618     1.0  0.72247  0.75439  0.39648  1.0000
  C   C911      1.0  0.69699  0.88038  0.27826  1.0000
  H   H1619     1.0  0.73195  0.87809  0.20840  1.0000
  H   H1620     1.0  0.72928  0.81969  0.21196  1.0000
  H   H1621     1.0  0.75619  0.57423  0.29530  1.0000
  Fe  Fe109     1.0  0.72292  0.51840  0.20983  1.0000
  H   H1622     1.0  0.72365  0.88671  0.38937  1.0000
  Fe  Fe110     1.0  0.52865  0.85247  0.30391  1.0000
  H   H1623     1.0  0.52177  0.97266  0.40948  1.0000
  H   H1624     1.0  0.73046  0.91044  0.14470  1.0000
  H   H1625     1.0  0.73996  0.64119  0.12020  1.0000
  H   H1626     1.0  0.52561  0.50239  0.20726  1.0000
  C   C912      1.0  0.66259  0.97837  0.44560  1.0000
  S   S208      1.0  0.52052  0.57627  0.35760  1.0000
  H   H1627     1.0  0.59045  0.87045  0.32051  1.0000
  H   H1628     1.0  0.68035  0.53899  0.29448  1.0000
  H   H1629     1.0  0.74259  0.63570  0.07550  1.0000
  C   C913      1.0  0.60894  0.86305  0.32522  1.0000
  H   H1630     1.0  0.73879  0.54669  0.26003  1.0000
  C   C914      1.0  0.59562  0.88132  0.22701  1.0000
  C   C915      1.0  0.59259  0.90800  0.24121  1.0000
  C   C916      1.0  0.60950  0.93269  0.24063  1.0000
  C   C917      1.0  0.62968  0.93111  0.22594  1.0000
  C   C918      1.0  0.63286  0.90428  0.21193  1.0000
  C   C919      1.0  0.61585  0.87962  0.21240  1.0000
  H   H1631     1.0  0.57711  0.90972  0.25247  1.0000
  H   H1632     1.0  0.60670  0.95317  0.25153  1.0000
  H   H1633     1.0  0.64824  0.90268  0.20051  1.0000
  H   H1634     1.0  0.61834  0.85911  0.20132  1.0000
  C   C920      1.0  0.65172  0.97306  0.31494  1.0000
  C   C921      1.0  0.71220  0.82608  0.30883  1.0000
  H   H1635     1.0  0.65245  0.87155  0.35433  1.0000
  S   S209      1.0  0.61918  0.84225  0.49227  1.0000
  H   H1636     1.0  0.74014  0.56428  0.13642  1.0000
  H   H1637     1.0  0.73354  0.89377  0.28255  1.0000
  H   H1638     1.0  0.72969  0.85600  0.26950  1.0000
  H   H1639     1.0  0.60174  0.96511  0.46302  1.0000
  H   H1640     1.0  0.62995  0.82023  0.38641  1.0000
  C   C922      1.0  0.52826  0.71189  0.31270  1.0000
  H   H1641     1.0  0.53460  0.92466  0.37431  1.0000
  C   C923      1.0  0.53241  0.66099  0.33295  1.0000
  C   C924      1.0  0.54372  0.67556  0.35234  1.0000
  H   H1642     1.0  0.52408  0.52629  0.48098  1.0000
  C   C925      1.0  0.53940  0.72655  0.33215  1.0000
  H   H1643     1.0  0.74078  0.77578  0.47479  1.0000
  H   H1644     1.0  0.69821  0.62377  0.29250  1.0000
  H   H1645     1.0  0.51393  0.50335  0.24963  1.0000
  C   C926      1.0  0.55159  0.96508  0.35822  1.0000
  H   H1646     1.0  0.58748  0.59743  0.33134  1.0000
  C   C927      1.0  0.74341  0.83239  0.22103  1.0000
  H   H1647     1.0  0.65661  0.94856  0.31027  1.0000
  C   C928      1.0  0.58789  0.94865  0.47002  1.0000
  H   H1648     1.0  0.62970  0.91504  0.34525  1.0000
  H   H1649     1.0  0.67313  0.81507  0.37489  1.0000
  H   H1650     1.0  0.64162  0.83399  0.34595  1.0000
  C   C929      1.0  0.59861  0.91507  0.46968  1.0000
  H   H1651     1.0  0.68463  0.60823  0.31917  1.0000
  C   C930      1.0  0.60391  0.90462  0.44424  1.0000
  Fe  Fe111     1.0  0.71901  0.97721  0.16284  1.0000
  H   H1652     1.0  0.57332  0.94869  0.45649  1.0000
  H   H1653     1.0  0.73593  0.50578  0.07953  1.0000
  H   H1654     1.0  0.50896  0.57948  0.47150  1.0000
  N   N49       1.0  0.72742  0.85572  0.30803  1.0000
  C   C931      1.0  0.72098  0.86173  0.13751  1.0000
  H   H1655     1.0  0.59926  0.96074  0.37295  1.0000
  N   N50       1.0  0.75428  0.60991  0.14730  1.0000
  H   H1656     1.0  0.70476  0.85784  0.17277  1.0000
  C   C932      1.0  0.73951  0.88716  0.14502  1.0000
  C   C933      1.0  0.62599  0.87975  0.30742  1.0000
  C   C934      1.0  0.72544  0.86827  0.35336  1.0000
  H   H1657     1.0  0.57739  0.86940  0.36281  1.0000
  C   C935      1.0  0.66692  0.83221  0.38838  1.0000
  H   H1658     1.0  0.61152  0.88053  0.44460  1.0000
  H   H1659     1.0  0.58737  0.90411  0.43331  1.0000
  H   H1660     1.0  0.61716  0.92081  0.43598  1.0000
  S   S210      1.0  0.55831  0.51285  0.32347  1.0000
  H   H1661     1.0  0.67456  0.57701  0.13215  1.0000
  C   C936      1.0  0.62448  0.86472  0.28272  1.0000
  C   C937      1.0  0.73475  0.58931  0.23952  1.0000
  C   C938      1.0  0.74143  0.57196  0.25968  1.0000
  Fe  Fe112     1.0  0.65754  0.85701  0.48633  1.0000
  C   C939      1.0  0.69447  0.89239  0.25261  1.0000
  H   H1662     1.0  0.60570  0.86351  0.27649  1.0000
  H   H1663     1.0  0.63490  0.87895  0.26973  1.0000
  H   H1664     1.0  0.63178  0.84048  0.28316  1.0000
  C   C940      1.0  0.73484  0.58515  0.14710  1.0000
  H   H1665     1.0  0.64543  0.52348  0.21069  1.0000
  C   C941      1.0  0.59224  0.59071  0.31285  1.0000
  S   S211      1.0  0.53140  0.51257  0.38898  1.0000
  H   H1666     1.0  0.53107  0.66583  0.42768  1.0000
  C   C942      1.0  0.64718  0.53059  0.25974  1.0000
  H   H1667     1.0  0.69009  0.88505  0.15256  1.0000
  C   C943      1.0  0.69936  0.86208  0.15392  1.0000
  H   H1668     1.0  0.73264  0.91535  0.36733  1.0000
  H   H1669     1.0  0.56276  0.51959  0.49204  1.0000
  H   H1670     1.0  0.57689  0.81991  0.34187  1.0000
  C   C944      1.0  0.75594  0.62640  0.12346  1.0000
  C   C945      1.0  0.59360  0.85493  0.36546  1.0000
  N   N51       1.0  0.61399  0.86882  0.35139  1.0000
  C   C946      1.0  0.61653  0.91587  0.38094  1.0000
  H   H1671     1.0  0.74620  0.73708  0.43874  1.0000
  C   C947      1.0  0.57007  0.80615  0.37792  1.0000
  H   H1672     1.0  0.63681  0.51320  0.31866  1.0000
  H   H1673     1.0  0.60955  0.51155  0.40588  1.0000
  H   H1674     1.0  0.56485  0.78190  0.37250  1.0000
  C   C948      1.0  0.63796  0.50864  0.29915  1.0000
  C   C949      1.0  0.74491  0.86545  0.21894  1.0000
  S   S212      1.0  0.71506  0.98608  0.23183  1.0000
  H   H1675     1.0  0.59702  0.85613  0.38494  1.0000
  C   C950      1.0  0.67222  0.58657  0.28603  1.0000
  H   H1676     1.0  0.61580  0.91445  0.47953  1.0000
  C   C951      1.0  0.61377  0.56887  0.31337  1.0000
  H   H1677     1.0  0.75393  0.90024  0.05534  1.0000
  C   C952      1.0  0.54706  0.70844  0.35188  1.0000
  S   S213      1.0  0.57319  0.51567  0.44263  1.0000
  H   H1678     1.0  0.74506  0.62215  0.18358  1.0000
  C   C953      1.0  0.75531  0.62023  0.27888  1.0000
  C   C954      1.0  0.64099  0.55581  0.24055  1.0000
  H   H1679     1.0  0.64580  0.56472  0.20267  1.0000
  S   S214      1.0  0.75004  0.99198  0.18535  1.0000
  H   H1680     1.0  0.68664  0.84322  0.14854  1.0000
  Fe  Fe113     1.0  0.52321  0.78653  0.28283  1.0000
  C   C955      1.0  0.70269  0.77202  0.32637  1.0000
  H   H1681     1.0  0.61483  0.95938  0.40094  1.0000
  C   C956      1.0  0.58662  0.82047  0.35920  1.0000
  H   H1682     1.0  0.66837  0.82090  0.40624  1.0000
  H   H1683     1.0  0.71358  0.84843  0.35846  1.0000
  S   S215      1.0  0.72261  0.57119  0.21412  1.0000
  H   H1684     1.0  0.69789  0.76290  0.30839  1.0000
  H   H1685     1.0  0.73736  0.78801  0.31615  1.0000
  H   H1686     1.0  0.74422  0.86130  0.35597  1.0000
  H   H1687     1.0  0.73204  0.64656  0.16171  1.0000
  C   C957      1.0  0.56507  0.95815  0.31770  1.0000
  H   H1688     1.0  0.72873  0.90193  0.32419  1.0000
  H   H1689     1.0  0.62136  0.55720  0.23836  1.0000
  H   H1690     1.0  0.69385  0.83170  0.31473  1.0000
  H   H1691     1.0  0.65919  0.98509  0.40762  1.0000
  H   H1692     1.0  0.72876  0.83782  0.13862  1.0000
  H   H1693     1.0  0.68874  0.56365  0.15921  1.0000
  S   S216      1.0  0.75704  0.77442  0.23826  1.0000
  H   H1694     1.0  0.67120  0.54773  0.21741  1.0000
  H   H1695     1.0  0.71017  0.81590  0.29057  1.0000
  C   C958      1.0  0.72131  0.79827  0.32439  1.0000
  H   H1696     1.0  0.69808  0.87315  0.23979  1.0000
  C   C959      1.0  0.69167  0.60192  0.30135  1.0000
  H   H1697     1.0  0.68472  0.85998  0.28030  1.0000
  H   H1698     1.0  0.59812  0.91471  0.34704  1.0000
  H   H1699     1.0  0.73163  0.63567  0.22417  1.0000
  H   H1700     1.0  0.60961  0.83737  0.32125  1.0000
  C   C960      1.0  0.71010  0.59601  0.13793  1.0000
  C   C961      1.0  0.55595  0.92720  0.31771  1.0000
  S   S217      1.0  0.52022  0.87750  0.26955  1.0000
  H   H1701     1.0  0.69099  0.89955  0.29015  1.0000
  H   H1702     1.0  0.67870  0.85331  0.38826  1.0000
  C   C962      1.0  0.69174  0.56945  0.14012  1.0000
  H   H1703     1.0  0.70696  0.58577  0.30372  1.0000
  H   H1704     1.0  0.62352  0.97389  0.28918  1.0000
  C   C963      1.0  0.72028  0.87846  0.32730  1.0000
  C   C964      1.0  0.66457  0.55432  0.29655  1.0000
  H   H1705     1.0  0.58617  0.89770  0.47773  1.0000
  H   H1706     1.0  0.60255  0.80537  0.35765  1.0000
  H   H1707     1.0  0.69779  0.54800  0.13064  1.0000
  H   H1708     1.0  0.70084  0.88288  0.32643  1.0000
  H   H1709     1.0  0.60168  0.90667  0.39186  1.0000
  C   C965      1.0  0.65259  0.99180  0.42494  1.0000
  H   H1710     1.0  0.71078  0.60303  0.11887  1.0000
  H   H1711     1.0  0.70347  0.61620  0.14838  1.0000
  C   C966      1.0  0.56274  0.97725  0.33793  1.0000
  H   H1712     1.0  0.62093  0.90493  0.30549  1.0000
  H   H1713     1.0  0.70694  0.91232  0.24920  1.0000
  C   C967      1.0  0.75352  0.82258  0.40383  1.0000
  H   H1714     1.0  0.71008  0.75226  0.33710  1.0000
  C   C968      1.0  0.72319  0.87144  0.28410  1.0000
  H   H1715     1.0  0.64476  0.87864  0.31354  1.0000
  C   C969      1.0  0.75132  0.58754  0.27953  1.0000
  N   N52       1.0  0.64283  0.53890  0.28561  1.0000
  C   C970      1.0  0.75439  0.89898  0.10526  1.0000
  H   H1716     1.0  0.55578  0.71991  0.36679  1.0000
  H   H1717     1.0  0.67979  0.58319  0.26797  1.0000
  H   H1718     1.0  0.55766  0.91264  0.30202  1.0000
  H   H1719     1.0  0.58827  0.51756  0.21278  1.0000
  H   H1720     1.0  0.75421  0.84338  0.41490  1.0000
  H   H1721     1.0  0.57913  0.80489  0.39557  1.0000
  H   H1722     1.0  0.66606  0.52343  0.25722  1.0000
  H   H1723     1.0  0.54978  0.97946  0.37384  1.0000
  H   H1724     1.0  0.59626  0.61261  0.30269  1.0000
  N   N53       1.0  0.57888  0.95996  0.49387  1.0000
  C   C971      1.0  0.65147  0.54730  0.21636  1.0000
  H   H1725     1.0  0.63138  0.96256  0.37360  1.0000
  C   C972      1.0  0.61451  0.90411  0.35492  1.0000
  C   C973      1.0  0.74834  0.63750  0.25880  1.0000
  H   H1726     1.0  0.73205  0.57563  0.16534  1.0000
  H   H1727     1.0  0.74530  0.58654  0.10001  1.0000
  H   H1728     1.0  0.63377  0.90886  0.38896  1.0000
  S   S218      1.0  0.72237  0.97714  0.12210  1.0000
  C   C974      1.0  0.61545  0.95180  0.38203  1.0000
  H   H1729     1.0  0.71437  0.86586  0.11909  1.0000
  H   H1730     1.0  0.66242  0.55681  0.31618  1.0000
  H   H1731     1.0  0.67605  0.90078  0.24942  1.0000
  H   H1732     1.0  0.75075  0.66281  0.25843  1.0000
  H   H1733     1.0  0.63608  0.85900  0.39729  1.0000
  H   H1734     1.0  0.74361  0.88257  0.16409  1.0000
  C   C975      1.0  0.72054  0.89505  0.37078  1.0000
  H   H1735     1.0  0.75222  0.74730  0.36435  1.0000
  S   S219      1.0  0.51521  0.80654  0.24641  1.0000
  C   C976      1.0  0.75266  0.76837  0.37516  1.0000
  C   C977      1.0  0.51163  0.66963  0.42948  1.0000
  H   H1736     1.0  0.75359  0.94038  0.06626  1.0000
  H   H1737     1.0  0.66245  0.97823  0.48398  1.0000
  H   H1738     1.0  0.75725  0.82887  0.47488  1.0000
  C   C978      1.0  0.73768  0.62210  0.23936  1.0000
  H   H1739     1.0  0.63632  0.50959  0.25453  1.0000
  H   H1740     1.0  0.75809  0.83119  0.29465  1.0000
  C   C979      1.0  0.75349  0.84743  0.30951  1.0000
  H   H1741     1.0  0.54815  0.93047  0.48553  1.0000
  H   H1742     1.0  0.52992  0.63576  0.33292  1.0000
  C   C980      1.0  0.57229  0.99419  0.49094  1.0000
  S   S220      1.0  0.68861  0.82584  0.49396  1.0000
  C   C981      1.0  0.63935  0.98862  0.29364  1.0000
  H   H1743     1.0  0.74374  0.69130  0.18903  1.0000
  H   H1744     1.0  0.51262  0.70121  0.23383  1.0000
  C   C982      1.0  0.75212  0.51129  0.08924  1.0000
  H   H1745     1.0  0.75667  0.74456  0.48788  1.0000
  H   H1746     1.0  0.75766  0.83402  0.32603  1.0000
  S   S221      1.0  0.51829  0.73344  0.28742  1.0000
  S   S222      1.0  0.69536  0.50225  0.18362  1.0000
  H   H1747     1.0  0.51612  0.66754  0.29832  1.0000
  H   H1748     1.0  0.66820  0.98624  0.31977  1.0000
  H   H1749     1.0  0.74226  0.91960  0.10607  1.0000
  H   H1750     1.0  0.74399  0.87996  0.09632  1.0000
  H   H1751     1.0  0.50872  0.69468  0.43423  1.0000
  S   S223      1.0  0.71967  0.86166  0.54732  1.0000
  H   H1752     1.0  0.61803  0.65892  0.76952  1.0000
  H   H1753     1.0  0.58343  0.96751  0.72106  1.0000
  Fe  Fe114     1.0  0.73179  0.58371  0.83140  1.0000
  Fe  Fe115     1.0  0.69782  0.58858  0.78725  1.0000
  S   S224      1.0  0.72792  0.60606  0.76423  1.0000
  S   S225      1.0  0.66444  0.58665  0.76343  1.0000
  C   C983      1.0  0.73681  0.96252  0.58067  1.0000
  Fe  Fe116     1.0  0.51969  0.58103  0.68921  1.0000
  Fe  Fe117     1.0  0.73735  0.63718  0.79499  1.0000
  H   H1754     1.0  0.56074  0.74560  0.62149  1.0000
  S   S226      1.0  0.71991  0.54910  0.80281  1.0000
  S   S227      1.0  0.70668  0.62117  0.81771  1.0000
  Fe  Fe118     1.0  0.52657  0.60379  0.73976  1.0000
  S   S228      1.0  0.53951  0.62233  0.70471  1.0000
  S   S229      1.0  0.55182  0.60120  0.77189  1.0000
  H   H1755     1.0  0.63130  0.72667  0.75422  1.0000
  S   S230      1.0  0.56504  0.89404  0.58293  1.0000
  Fe  Fe119     1.0  0.70632  0.86953  0.50885  1.0000
  H   H1756     1.0  0.58274  0.53583  0.69294  1.0000
  H   H1757     1.0  0.73538  0.96313  0.68701  1.0000
  H   H1758     1.0  0.54826  0.86176  0.53998  1.0000
  S   S231      1.0  0.73765  0.56453  0.86936  1.0000
  H   H1759     1.0  0.59152  0.80044  0.54692  1.0000
  C   C984      1.0  0.63348  0.59300  0.76693  1.0000
  C   C985      1.0  0.62211  0.59083  0.78901  1.0000
  C   C986      1.0  0.59714  0.59385  0.79032  1.0000
  C   C987      1.0  0.58332  0.59909  0.76965  1.0000
  C   C988      1.0  0.59485  0.60217  0.74772  1.0000
  C   C989      1.0  0.61973  0.59913  0.74640  1.0000
  H   H1760     1.0  0.63242  0.58602  0.80496  1.0000
  H   H1761     1.0  0.58843  0.59159  0.80741  1.0000
  H   H1762     1.0  0.58455  0.60675  0.73175  1.0000
  H   H1763     1.0  0.62840  0.60152  0.72931  1.0000
  C   C990      1.0  0.56344  0.81238  0.61117  1.0000
  H   H1764     1.0  0.65408  0.77226  0.54686  1.0000
  C   C991      1.0  0.53113  0.51154  0.66039  1.0000
  H   H1765     1.0  0.56464  0.91800  0.51066  1.0000
  H   H1766     1.0  0.59031  0.95206  0.63819  1.0000
  H   H1767     1.0  0.71709  0.75484  0.55910  1.0000
  C   C992      1.0  0.68525  0.77545  0.79585  1.0000
  H   H1768     1.0  0.70432  0.76868  0.79566  1.0000
  H   H1769     1.0  0.54161  0.50561  0.62380  1.0000
  H   H1770     1.0  0.60597  0.59181  0.66826  1.0000
  H   H1771     1.0  0.61511  0.97007  0.50458  1.0000
  H   H1772     1.0  0.59222  0.81827  0.58729  1.0000
  H   H1773     1.0  0.71962  0.85510  0.66312  1.0000
  H   H1774     1.0  0.53940  0.52421  0.75917  1.0000
  H   H1775     1.0  0.58229  0.95202  0.54639  1.0000
  H   H1776     1.0  0.65064  0.75411  0.79701  1.0000
  C   C993      1.0  0.57976  0.87919  0.55769  1.0000
  C   C994      1.0  0.60453  0.88257  0.55616  1.0000
  C   C995      1.0  0.61682  0.87149  0.53613  1.0000
  C   C996      1.0  0.60438  0.85678  0.51753  1.0000
  C   C997      1.0  0.57962  0.85315  0.51913  1.0000
  C   C998      1.0  0.56734  0.86441  0.53910  1.0000
  H   H1777     1.0  0.61430  0.89374  0.57055  1.0000
  H   H1778     1.0  0.63594  0.87403  0.53522  1.0000
  H   H1779     1.0  0.60655  0.51324  0.49872  1.0000
  H   H1780     1.0  0.62374  0.98954  0.72829  1.0000
  C   C999      1.0  0.60187  0.53900  0.69743  1.0000
  C   C1000     1.0  0.70308  0.97973  0.66966  1.0000
  H   H1781     1.0  0.60462  0.93235  0.51377  1.0000
  H   H1782     1.0  0.64784  0.51508  0.70374  1.0000
  S   S232      1.0  0.67402  0.90012  0.50262  1.0000
  C   C1001     1.0  0.60499  0.56920  0.65836  1.0000
  H   H1783     1.0  0.75809  0.81375  0.53095  1.0000
  H   H1784     1.0  0.60290  0.56220  0.70655  1.0000
  H   H1785     1.0  0.75210  0.53968  0.91504  1.0000
  H   H1786     1.0  0.53332  0.57253  0.50830  1.0000
  C   C1002     1.0  0.61519  0.54233  0.67339  1.0000
  H   H1787     1.0  0.63952  0.54581  0.72324  1.0000
  H   H1788     1.0  0.60493  0.53259  0.74944  1.0000
  H   H1789     1.0  0.51884  0.80229  0.52955  1.0000
  H   H1790     1.0  0.61181  0.97134  0.75478  1.0000
  H   H1791     1.0  0.73621  0.74849  0.52044  1.0000
  H   H1792     1.0  0.61379  0.97574  0.57059  1.0000
  C   C1003     1.0  0.72998  0.97201  0.66909  1.0000
  N   N54       1.0  0.57461  0.77509  0.57586  1.0000
  H   H1793     1.0  0.53238  0.53277  0.54779  1.0000
  H   H1794     1.0  0.51018  0.76605  0.68387  1.0000
  H   H1795     1.0  0.61528  0.57178  0.64161  1.0000
  H   H1796     1.0  0.72914  0.79403  0.56220  1.0000
  C   C1004     1.0  0.59710  0.51440  0.73734  1.0000
  C   C1005     1.0  0.74167  0.94500  0.60405  1.0000
  H   H1797     1.0  0.67391  0.73270  0.81252  1.0000
  H   H1798     1.0  0.68134  0.79032  0.77996  1.0000
  C   C1006     1.0  0.73591  0.99439  0.74889  1.0000
  H   H1799     1.0  0.70584  0.92112  0.64465  1.0000
  S   S233      1.0  0.51355  0.85992  0.62231  1.0000
  H   H1800     1.0  0.71337  0.96704  0.62311  1.0000
  H   H1801     1.0  0.72565  0.94652  0.75712  1.0000
  H   H1802     1.0  0.56990  0.84170  0.50482  1.0000
  H   H1803     1.0  0.63430  0.54778  0.67629  1.0000
  C   C1007     1.0  0.55084  0.78520  0.56581  1.0000
  S   S234      1.0  0.53611  0.55250  0.65976  1.0000
  C   C1008     1.0  0.69711  0.99877  0.69193  1.0000
  C   C1009     1.0  0.52780  0.50873  0.54123  1.0000
  C   C1010     1.0  0.55808  0.93950  0.50140  1.0000
  H   H1804     1.0  0.74041  0.98838  0.62483  1.0000
  C   C1011     1.0  0.51558  0.56101  0.50735  1.0000
  H   H1805     1.0  0.69187  0.95814  0.66985  1.0000
  H   H1806     1.0  0.67269  0.74093  0.75771  1.0000
  C   C1012     1.0  0.59459  0.96869  0.53728  1.0000
  H   H1807     1.0  0.59603  0.78586  0.60717  1.0000
  C   C1013     1.0  0.73792  0.96143  0.74737  1.0000
  C   C1014     1.0  0.59919  0.95732  0.51154  1.0000
  H   H1808     1.0  0.51736  0.97611  0.70641  1.0000
  H   H1809     1.0  0.69866  0.66169  0.76106  1.0000
  C   C1015     1.0  0.52523  0.98875  0.72195  1.0000
  H   H1810     1.0  0.50961  0.76289  0.52175  1.0000
  S   S235      1.0  0.50884  0.56050  0.72438  1.0000
  H   H1811     1.0  0.69274  0.71846  0.77560  1.0000
  H   H1812     1.0  0.54723  0.96760  0.53290  1.0000
  H   H1813     1.0  0.56042  0.50965  0.72220  1.0000
  H   H1814     1.0  0.53755  0.74030  0.55103  1.0000
  H   H1815     1.0  0.65517  0.65842  0.74545  1.0000
  C   C1016     1.0  0.67493  0.50409  0.74088  1.0000
  H   H1816     1.0  0.75636  0.66573  0.74604  1.0000
  H   H1817     1.0  0.58566  0.69382  0.78360  1.0000
  C   C1017     1.0  0.74359  0.86685  0.56807  1.0000
  H   H1818     1.0  0.67021  0.66439  0.84045  1.0000
  H   H1819     1.0  0.65924  0.64916  0.78492  1.0000
  H   H1820     1.0  0.57191  0.99073  0.74540  1.0000
  H   H1821     1.0  0.73510  0.80795  0.50956  1.0000
  H   H1822     1.0  0.63959  0.65827  0.84857  1.0000
  H   H1823     1.0  0.62569  0.71809  0.78441  1.0000
  H   H1824     1.0  0.52864  0.97244  0.50725  1.0000
  C   C1018     1.0  0.59253  0.77698  0.55585  1.0000
  H   H1825     1.0  0.64332  0.70155  0.81932  1.0000
  H   H1826     1.0  0.53731  0.74153  0.59938  1.0000
  H   H1827     1.0  0.75787  0.75893  0.54328  1.0000
  H   H1828     1.0  0.70217  0.69558  0.74185  1.0000
  H   H1829     1.0  0.57190  0.68960  0.61520  1.0000
  C   C1019     1.0  0.63667  0.52028  0.71955  1.0000
  H   H1830     1.0  0.58713  0.99274  0.53775  1.0000
  C   C1020     1.0  0.74125  0.85411  0.59120  1.0000
  C   C1021     1.0  0.75099  0.70874  0.76540  1.0000
  H   H1831     1.0  0.62620  0.66927  0.80800  1.0000
  C   C1022     1.0  0.55421  0.69862  0.60966  1.0000
  H   H1832     1.0  0.59147  0.73502  0.59266  1.0000
  H   H1833     1.0  0.57674  0.67173  0.75768  1.0000
  C   C1023     1.0  0.60331  0.50865  0.51798  1.0000
  C   C1024     1.0  0.51667  0.77785  0.53642  1.0000
  H   H1834     1.0  0.71535  0.64873  0.72110  1.0000
  H   H1835     1.0  0.73230  0.92195  0.60296  1.0000
  C   C1025     1.0  0.57546  0.95465  0.65100  1.0000
  H   H1836     1.0  0.68718  0.62923  0.72577  1.0000
  H   H1837     1.0  0.56202  0.53988  0.51940  1.0000
  H   H1838     1.0  0.55645  0.96770  0.69325  1.0000
  H   H1839     1.0  0.62497  0.78763  0.57735  1.0000
  H   H1840     1.0  0.74711  0.75555  0.77958  1.0000
  H   H1841     1.0  0.53693  0.78564  0.57975  1.0000
  C   C1026     1.0  0.57464  0.83002  0.63222  1.0000
  H   H1842     1.0  0.62167  0.74690  0.56901  1.0000
  H   H1843     1.0  0.68904  0.66377  0.70671  1.0000
  H   H1844     1.0  0.58618  0.56419  0.65352  1.0000
  H   H1845     1.0  0.61656  0.67661  0.74047  1.0000
  C   C1027     1.0  0.54053  0.76498  0.54511  1.0000
  C   C1028     1.0  0.61769  0.96941  0.55182  1.0000
  H   H1846     1.0  0.55213  0.80994  0.55937  1.0000
  C   C1029     1.0  0.72292  0.77615  0.54911  1.0000
  H   H1847     1.0  0.69805  0.99406  0.65382  1.0000
  C   C1030     1.0  0.72439  0.91861  0.65144  1.0000
  H   H1848     1.0  0.57103  0.72494  0.56987  1.0000
  H   H1849     1.0  0.71070  0.86038  0.69365  1.0000
  H   H1850     1.0  0.54787  0.68564  0.59363  1.0000
  C   C1031     1.0  0.57026  0.52284  0.73609  1.0000
  H   H1851     1.0  0.63447  0.80228  0.53576  1.0000
  H   H1852     1.0  0.55849  0.95481  0.64069  1.0000
  C   C1032     1.0  0.72324  0.90319  0.67650  1.0000
  H   H1853     1.0  0.55247  0.76514  0.52945  1.0000
  H   H1854     1.0  0.58849  0.75925  0.54183  1.0000
  H   H1855     1.0  0.71355  0.91807  0.68937  1.0000
  H   H1856     1.0  0.65982  0.69607  0.73200  1.0000
  C   C1033     1.0  0.61899  0.77154  0.56293  1.0000
  H   H1857     1.0  0.68109  0.52901  0.74038  1.0000
  H   H1858     1.0  0.58646  0.84928  0.62570  1.0000
  H   H1859     1.0  0.58501  0.81365  0.64370  1.0000
  Fe  Fe120     1.0  0.52586  0.88383  0.58863  1.0000
  H   H1860     1.0  0.68207  0.78961  0.81213  1.0000
  H   H1861     1.0  0.74137  0.89939  0.68356  1.0000
  H   H1862     1.0  0.74651  0.98541  0.58033  1.0000
  C   C1034     1.0  0.64447  0.67705  0.81284  1.0000
  C   C1035     1.0  0.73285  0.96410  0.62583  1.0000
  H   H1863     1.0  0.65347  0.63139  0.82827  1.0000
  H   H1864     1.0  0.53826  0.97293  0.73056  1.0000
  H   H1865     1.0  0.56049  0.84063  0.64325  1.0000
  C   C1036     1.0  0.63539  0.77730  0.54166  1.0000
  H   H1866     1.0  0.55067  0.79486  0.61832  1.0000
  H   H1867     1.0  0.55321  0.82967  0.60042  1.0000
  H   H1868     1.0  0.54150  0.69403  0.62440  1.0000
  H   H1869     1.0  0.57549  0.93395  0.66320  1.0000
  C   C1037     1.0  0.55545  0.73400  0.60455  1.0000
  H   H1870     1.0  0.72512  0.84152  0.59587  1.0000
  C   C1038     1.0  0.63246  0.70744  0.76779  1.0000
  H   H1871     1.0  0.61350  0.52038  0.66279  1.0000
  N   N55       1.0  0.73776  0.94952  0.64992  1.0000
  C   C1039     1.0  0.58888  0.69067  0.76422  1.0000
  C   C1040     1.0  0.53916  0.95506  0.51758  1.0000
  H   H1872     1.0  0.69173  0.87419  0.66974  1.0000
  C   C1041     1.0  0.71050  0.87127  0.67558  1.0000
  C   C1042     1.0  0.57392  0.74159  0.58493  1.0000
  H   H1873     1.0  0.68006  0.67525  0.79782  1.0000
  C   C1043     1.0  0.66932  0.74609  0.79610  1.0000
  H   H1874     1.0  0.58458  0.71281  0.75453  1.0000
  C   C1044     1.0  0.65252  0.65647  0.83376  1.0000
  C   C1045     1.0  0.58279  0.79753  0.59526  1.0000
  N   N56       1.0  0.65793  0.69694  0.77068  1.0000
  H   H1875     1.0  0.63039  0.76184  0.52645  1.0000
  C   C1046     1.0  0.67377  0.72555  0.77387  1.0000
  C   C1047     1.0  0.66497  0.68119  0.74762  1.0000
  C   C1048     1.0  0.66138  0.67391  0.79111  1.0000
  C   C1049     1.0  0.61465  0.68127  0.75987  1.0000
  C   C1050     1.0  0.69173  0.67361  0.74484  1.0000
  C   C1051     1.0  0.69596  0.65253  0.72325  1.0000
  C   C1052     1.0  0.55901  0.51626  0.51135  1.0000
  H   H1876     1.0  0.63023  0.98719  0.54435  1.0000
  H   H1877     1.0  0.52078  0.50922  0.69725  1.0000
  H   H1878     1.0  0.59583  0.98415  0.67470  1.0000
  H   H1879     1.0  0.73925  0.99506  0.66723  1.0000
  C   C1053     1.0  0.52171  0.93079  0.52757  1.0000
  H   H1880     1.0  0.54105  0.99040  0.67191  1.0000
  H   H1881     1.0  0.53103  0.91418  0.53970  1.0000
  N   N57       1.0  0.53358  0.50571  0.51507  1.0000
  H   H1882     1.0  0.74301  0.94807  0.56546  1.0000
  C   C1054     1.0  0.74297  0.76765  0.53206  1.0000
  Fe  Fe121     1.0  0.75031  0.56922  0.78193  1.0000
  C   C1055     1.0  0.55774  0.98976  0.68267  1.0000
  S   S236      1.0  0.74184  0.69035  0.79217  1.0000
  H   H1883     1.0  0.64168  0.51263  0.75814  1.0000
  H   H1884     1.0  0.70739  0.78562  0.53910  1.0000
  H   H1885     1.0  0.73267  0.90092  0.63950  1.0000
  C   C1056     1.0  0.75570  0.94764  0.73347  1.0000
  H   H1886     1.0  0.62634  0.94596  0.55174  1.0000
  H   H1887     1.0  0.56818  0.54830  0.73193  1.0000
  C   C1057     1.0  0.57857  0.98527  0.66504  1.0000
  H   H1888     1.0  0.60523  0.53111  0.52795  1.0000
  C   C1058     1.0  0.60976  0.99135  0.74212  1.0000
  S   S237      1.0  0.75680  0.90604  0.73172  1.0000
  H   H1889     1.0  0.70066  0.98465  0.70831  1.0000
  H   H1890     1.0  0.71745  0.96664  0.57829  1.0000
  H   H1891     1.0  0.73347  0.50345  0.76026  1.0000
  N   N58       1.0  0.61068  0.51353  0.71412  1.0000
  C   C1059     1.0  0.75117  0.79675  0.51746  1.0000
  C   C1060     1.0  0.75400  0.58182  0.89349  1.0000
  C   C1061     1.0  0.75254  0.74177  0.76439  1.0000
  H   H1892     1.0  0.56726  0.52986  0.77452  1.0000
  C   C1062     1.0  0.55820  0.51649  0.76002  1.0000
  C   C1063     1.0  0.58498  0.99019  0.73067  1.0000
  H   H1893     1.0  0.51277  0.91746  0.51301  1.0000
  C   C1064     1.0  0.75774  0.69116  0.74557  1.0000
  H   H1894     1.0  0.75751  0.84714  0.62597  1.0000
  C   C1065     1.0  0.51768  0.52605  0.49978  1.0000
  H   H1895     1.0  0.67337  0.99867  0.83257  1.0000
  C   C1066     1.0  0.64773  0.50216  0.74109  1.0000
  Fe  Fe122     1.0  0.96605  0.08372  0.22572  1.0000
  S   S238      1.0  0.97436  0.06586  0.18877  1.0000
  S   S239      1.0  0.92683  0.09833  0.22886  1.0000
  C   C1067     1.0  0.78361  0.10799  0.11760  1.0000
  C   C1068     1.0  0.97644  0.19782  0.17392  1.0000
  C   C1069     1.0  0.82691  0.32674  0.20831  1.0000
  C   C1070     1.0  0.77466  0.15586  0.15344  1.0000
  S   S240      1.0  0.98513  0.04303  0.24371  1.0000
  H   H1896     1.0  0.79920  0.11985  0.12589  1.0000
  H   H1897     1.0  0.82135  0.06277  0.19280  1.0000
  S   S241      1.0  0.98506  0.33039  0.06183  1.0000
  Fe  Fe123     1.0  0.97292  0.28235  0.11932  1.0000
  S   S242      1.0  0.94363  0.30751  0.09954  1.0000
  H   H1898     1.0  0.82189  0.30013  0.47010  1.0000
  Fe  Fe124     1.0  0.96081  0.28821  0.06655  1.0000
  S   S243      1.0  0.94436  0.26265  0.03479  1.0000
  Fe  Fe125     1.0  0.97032  0.34739  0.09689  1.0000
  S   S244      1.0  0.96172  0.39957  0.10055  1.0000
  S   S245      1.0  0.98816  0.26067  0.08661  1.0000
  H   H1899     1.0  0.81382  0.30714  0.20904  1.0000
  H   H1900     1.0  0.79099  0.08597  0.10987  1.0000
  H   H1901     1.0  0.99857  0.15865  0.00964  1.0000
  Fe  Fe126     1.0  0.83749  0.14099  0.02147  1.0000
  S   S246      1.0  0.85050  0.09279  0.03057  1.0000
  S   S247      1.0  0.85029  0.17938  0.04696  1.0000
  Fe  Fe127     1.0  0.81225  0.07679  0.02805  1.0000
  S   S248      1.0  0.80359  0.04917  0.06261  1.0000
  S   S249      1.0  0.79899  0.12579  0.02002  1.0000
  Fe  Fe128     1.0  0.83437  0.21562  0.29211  1.0000
  S   S250      1.0  0.80638  0.19953  0.26624  1.0000
  S   S251      1.0  0.87422  0.20717  0.28656  1.0000
  Fe  Fe129     1.0  0.79675  0.24609  0.32559  1.0000
  Fe  Fe130     1.0  0.78568  0.18547  0.29872  1.0000
  H   H1902     1.0  0.81121  0.09353  0.15726  1.0000
  Fe  Fe131     1.0  0.78991  0.24733  0.27146  1.0000
  H   H1903     1.0  0.98262  0.15191  0.18888  1.0000
  S   S252      1.0  0.81469  0.19867  0.32475  1.0000
  S   S253      1.0  0.81929  0.26467  0.29526  1.0000
  S   S254      1.0  0.99823  0.11540  0.22778  1.0000
  H   H1904     1.0  0.80778  0.04927  0.33085  1.0000
  H   H1905     1.0  0.93472  0.26975  0.21767  1.0000
  C   C1071     1.0  0.77320  0.34972  0.46922  1.0000
  C   C1072     1.0  0.81906  0.46455  0.07063  1.0000
  C   C1073     1.0  0.78263  0.33358  0.25862  1.0000
  H   H1906     1.0  0.87537  0.00723  0.30425  1.0000
  H   H1907     1.0  0.79219  0.32204  0.27296  1.0000
  C   C1074     1.0  0.00525  0.29202  0.00136  1.0000
  C   C1075     1.0  0.81136  0.32175  0.43660  1.0000
  C   C1076     1.0  0.76841  0.38207  0.23978  1.0000
  S   S255      1.0  0.96511  0.25362  0.15233  1.0000
  H   H1908     1.0  0.92717  0.27958  0.18709  1.0000
  C   C1077     1.0  0.81915  0.34888  0.18819  1.0000
  S   S256      1.0  0.79150  0.27783  0.35815  1.0000
  H   H1909     1.0  0.97084  0.49480  0.14981  1.0000
  H   H1910     1.0  0.83560  0.32428  0.40672  1.0000
  C   C1078     1.0  0.78054  0.02874  0.07824  1.0000
  H   H1911     1.0  0.78435  0.49643  0.24612  1.0000
  H   H1912     1.0  0.00152  0.11947  0.04160  1.0000
  H   H1913     1.0  0.76080  0.06764  0.16558  1.0000
  H   H1914     1.0  0.98647  0.41867  0.04917  1.0000
  H   H1915     1.0  0.88210  0.18954  0.00635  1.0000
  C   C1079     1.0  0.86969  0.05448  0.28990  1.0000
  C   C1080     1.0  0.91846  0.23906  0.03846  1.0000
  C   C1081     1.0  0.90651  0.23766  0.06026  1.0000
  C   C1082     1.0  0.88566  0.21932  0.06250  1.0000
  C   C1083     1.0  0.87672  0.20181  0.04314  1.0000
  C   C1084     1.0  0.88887  0.20280  0.02142  1.0000
  C   C1085     1.0  0.90960  0.22146  0.01909  1.0000
  H   H1916     1.0  0.91311  0.25112  0.07528  1.0000
  H   H1917     1.0  0.87629  0.21886  0.07929  1.0000
  H   H1918     1.0  0.86735  0.47655  0.12515  1.0000
  C   C1086     1.0  0.99684  0.13360  0.00409  1.0000
  C   C1087     1.0  0.91324  0.13070  0.24352  1.0000
  C   C1088     1.0  0.88886  0.13625  0.23957  1.0000
  C   C1089     1.0  0.87676  0.16004  0.25210  1.0000
  C   C1090     1.0  0.88893  0.17861  0.26880  1.0000
  C   C1091     1.0  0.91354  0.17404  0.27194  1.0000
  C   C1092     1.0  0.92562  0.15017  0.25949  1.0000
  H   H1919     1.0  0.87920  0.12164  0.22699  1.0000
  H   H1920     1.0  0.85795  0.16364  0.24916  1.0000
  H   H1921     1.0  0.92323  0.18847  0.28463  1.0000
  H   H1922     1.0  0.94439  0.14639  0.26266  1.0000
  C   C1093     1.0  0.92934  0.28913  0.20542  1.0000
  H   H1923     1.0  0.00362  0.24537  0.03566  1.0000
  H   H1924     1.0  0.78686  0.38656  0.49301  1.0000
  H   H1925     1.0  0.80374  0.29952  0.42938  1.0000
  H   H1926     1.0  0.77746  0.20121  0.17114  1.0000
  H   H1927     1.0  0.91862  0.22253  0.00212  1.0000
  C   C1094     1.0  0.96819  0.41969  0.12752  1.0000
  C   C1095     1.0  0.97492  0.40339  0.14817  1.0000
  C   C1096     1.0  0.98002  0.41993  0.16934  1.0000
  C   C1097     1.0  0.97861  0.45295  0.17013  1.0000
  C   C1098     1.0  0.98814  0.16886  0.17560  1.0000
  C   C1099     1.0  0.96668  0.45276  0.12824  1.0000
  C   C1100     1.0  0.77452  0.07532  0.15266  1.0000
  H   H1928     1.0  0.88959  0.33043  0.28609  1.0000
  H   H1929     1.0  0.94385  0.30703  0.20510  1.0000
  H   H1930     1.0  0.91299  0.39856  0.11908  1.0000
  H   H1931     1.0  0.82283  0.10563  0.22134  1.0000
  H   H1932     1.0  0.80799  0.12560  0.07614  1.0000
  H   H1933     1.0  0.80161  0.07698  0.36960  1.0000
  C   C1101     1.0  0.76885  0.40880  0.46395  1.0000
  H   H1934     1.0  0.79139  0.04764  0.19495  1.0000
  H   H1935     1.0  0.90975  0.31437  0.23173  1.0000
  C   C1102     1.0  0.81177  0.32138  0.46435  1.0000
  C   C1103     1.0  0.83647  0.32478  0.42654  1.0000
  H   H1936     1.0  0.92132  0.11813  0.05403  1.0000
  C   C1104     1.0  0.76026  0.33107  0.22168  1.0000
  H   H1937     1.0  0.76536  0.11311  0.08312  1.0000
  H   H1938     1.0  0.99100  0.27574  0.00761  1.0000
  H   H1939     1.0  0.00444  0.42647  0.08945  1.0000
  S   S257      1.0  0.98528  0.47237  0.19736  1.0000
  H   H1940     1.0  0.82586  0.34014  0.22522  1.0000
  C   C1105     1.0  0.86247  0.48059  0.07586  1.0000
  H   H1941     1.0  0.84111  0.44919  0.09964  1.0000
  H   H1942     1.0  0.76252  0.17129  0.18833  1.0000
  H   H1943     1.0  0.77870  0.16768  0.13623  1.0000
  H   H1944     1.0  0.76265  0.14704  0.10192  1.0000
  H   H1945     1.0  0.76174  0.16242  0.25497  1.0000
  N   N59       1.0  0.88489  0.48234  0.09094  1.0000
  C   C1106     1.0  0.91070  0.49894  0.05449  1.0000
  H   H1946     1.0  0.80092  0.34185  0.42957  1.0000
  N   N60       1.0  0.78786  0.32163  0.47652  1.0000
  C   C1107     1.0  0.76590  0.27928  0.37670  1.0000
  H   H1947     1.0  0.92080  0.16040  0.04865  1.0000
  C   C1108     1.0  0.97200  0.46937  0.14941  1.0000
  H   H1948     1.0  0.00414  0.42576  0.02291  1.0000
  H   H1949     1.0  0.81005  0.03662  0.17015  1.0000
  H   H1950     1.0  0.77405  0.06311  0.35662  1.0000
  N   N61       1.0  0.83698  0.09340  0.30454  1.0000
  C   C1109     1.0  0.85674  0.11773  0.30507  1.0000
  C   C1110     1.0  0.82080  0.10042  0.28356  1.0000
  C   C1111     1.0  0.82239  0.09757  0.32690  1.0000
  C   C1112     1.0  0.84613  0.06002  0.30367  1.0000
  H   H1951     1.0  0.78175  0.10430  0.35468  1.0000
  C   C1113     1.0  0.87290  0.11708  0.32770  1.0000
  H   H1952     1.0  0.90255  0.44367  0.07318  1.0000
  C   C1114     1.0  0.83107  0.09523  0.25841  1.0000
  C   C1115     1.0  0.81435  0.10789  0.23906  1.0000
  H   H1953     1.0  0.80280  0.02175  0.10923  1.0000
  C   C1116     1.0  0.89682  0.13336  0.32349  1.0000
  C   C1117     1.0  0.80526  0.05611  0.18235  1.0000
  H   H1954     1.0  0.84929  0.14198  0.30376  1.0000
  H   H1955     1.0  0.86826  0.11573  0.28919  1.0000
  H   H1956     1.0  0.80457  0.08548  0.28394  1.0000
  H   H1957     1.0  0.81452  0.12523  0.28460  1.0000
  H   H1958     1.0  0.81510  0.12195  0.32757  1.0000
  C   C1118     1.0  0.78467  0.38245  0.47358  1.0000
  H   H1959     1.0  0.84947  0.05092  0.32207  1.0000
  H   H1960     1.0  0.83216  0.04415  0.29605  1.0000
  H   H1961     1.0  0.88505  0.06449  0.29992  1.0000
  H   H1962     1.0  0.86977  0.06553  0.27202  1.0000
  H   H1963     1.0  0.86404  0.12976  0.34247  1.0000
  H   H1964     1.0  0.87635  0.09265  0.33381  1.0000
  C   C1119     1.0  0.92917  0.13232  0.01746  1.0000
  C   C1120     1.0  0.76759  0.00277  0.11529  1.0000
  H   H1965     1.0  0.84829  0.10733  0.25633  1.0000
  H   H1966     1.0  0.83337  0.06966  0.25509  1.0000
  H   H1967     1.0  0.81049  0.13319  0.24203  1.0000
  H   H1968     1.0  0.79738  0.09430  0.23893  1.0000
  H   H1969     1.0  0.80578  0.16001  0.09508  1.0000
  H   H1970     1.0  0.76539  0.40575  0.44455  1.0000
  C   C1121     1.0  0.77270  0.31568  0.24013  1.0000
  H   H1971     1.0  0.90645  0.12209  0.30856  1.0000
  H   H1972     1.0  0.89415  0.15869  0.31939  1.0000
  H   H1973     1.0  0.90801  0.13163  0.33984  1.0000
  H   H1974     1.0  0.89689  0.49031  0.12724  1.0000
  H   H1975     1.0  0.84485  0.34739  0.43211  1.0000
  H   H1976     1.0  0.92422  0.48000  0.05521  1.0000
  S   S258      1.0  0.76801  0.13781  0.30281  1.0000
  H   H1977     1.0  0.79110  0.10269  0.18142  1.0000
  H   H1978     1.0  0.96233  0.20307  0.18624  1.0000
  H   H1979     1.0  0.86912  0.41569  0.08898  1.0000
  H   H1980     1.0  0.78875  0.38032  0.27250  1.0000
  H   H1981     1.0  0.82289  0.34177  0.46990  1.0000
  H   H1982     1.0  0.77921  0.05392  0.14245  1.0000
  H   H1983     1.0  0.96131  0.15784  0.02739  1.0000
  Fe  Fe132     1.0  0.99548  0.02773  0.20663  1.0000
  C   C1122     1.0  0.98242  0.21947  0.15599  1.0000
  H   H1984     1.0  0.83131  0.36958  0.18705  1.0000
  C   C1123     1.0  0.79579  0.14383  0.08309  1.0000
  H   H1985     1.0  0.88849  0.37329  0.11084  1.0000
  H   H1986     1.0  0.77597  0.32405  0.39185  1.0000
  H   H1987     1.0  0.98503  0.40704  0.18528  1.0000
  H   H1988     1.0  0.84768  0.30484  0.43269  1.0000
  H   H1989     1.0  0.83325  0.48963  0.10063  1.0000
  C   C1124     1.0  0.95663  0.13383  0.02088  1.0000
  H   H1990     1.0  0.81873  0.20507  0.18981  1.0000
  N   N62       1.0  0.97111  0.12537  0.99929  1.0000
  C   C1125     1.0  0.88031  0.49247  0.11631  1.0000
  H   H1991     1.0  0.80094  0.35757  0.19176  1.0000
  H   H1992     1.0  0.83370  0.09492  0.34309  1.0000
  C   C1126     1.0  0.00661  0.16184  0.15998  1.0000
  H   H1993     1.0  0.96148  0.46559  0.11236  1.0000
  H   H1994     1.0  0.81888  0.33632  0.17083  1.0000
  S   S259      1.0  0.76724  0.42376  0.23973  1.0000
  H   H1995     1.0  0.89418  0.28190  0.26182  1.0000
  C   C1127     1.0  0.91638  0.13691  0.04111  1.0000
  C   C1128     1.0  0.77499  0.12833  0.09616  1.0000
  H   H1996     1.0  0.80606  0.22374  0.21550  1.0000
  C   C1129     1.0  0.82302  0.21715  0.20685  1.0000
  H   H1997     1.0  0.82322  0.44392  0.05931  1.0000
  H   H1998     1.0  0.96113  0.11787  0.03604  1.0000
  H   H1999     1.0  0.00760  0.08837  0.02083  1.0000
  C   C1130     1.0  0.87811  0.30942  0.28921  1.0000
  H   H2000     1.0  0.79167  0.14749  0.16108  1.0000
  H   H2001     1.0  0.89151  0.01612  0.27733  1.0000
  C   C1131     1.0  0.80144  0.07396  0.33067  1.0000
  C   C1132     1.0  0.78905  0.08002  0.35440  1.0000
  N   N63       1.0  0.91669  0.15505  0.12884  1.0000
  C   C1133     1.0  0.92584  0.16896  0.10578  1.0000
  C   C1134     1.0  0.89093  0.14449  0.12605  1.0000
  C   C1135     1.0  0.91746  0.18086  0.14729  1.0000
  C   C1136     1.0  0.93189  0.12815  0.13767  1.0000
  C   C1137     1.0  0.93727  0.10207  0.11928  1.0000
  C   C1138     1.0  0.95179  0.18180  0.10628  1.0000
  C   C1139     1.0  0.90937  0.17107  0.17277  1.0000
  C   C1140     1.0  0.88247  0.13351  0.10093  1.0000
  C   C1141     1.0  0.85734  0.11960  0.10181  1.0000
  C   C1142     1.0  0.95351  0.07696  0.12996  1.0000
  C   C1143     1.0  0.96216  0.18405  0.08118  1.0000
  C   C1144     1.0  0.90542  0.19992  0.18844  1.0000
  H   H2002     1.0  0.91424  0.18876  0.09991  1.0000
  H   H2003     1.0  0.92464  0.15152  0.09123  1.0000
  H   H2004     1.0  0.88667  0.12527  0.13897  1.0000
  H   H2005     1.0  0.87860  0.16398  0.13068  1.0000
  H   H2006     1.0  0.90662  0.20129  0.14113  1.0000
  H   H2007     1.0  0.93574  0.19041  0.14939  1.0000
  H   H2008     1.0  0.94913  0.13706  0.14501  1.0000
  H   H2009     1.0  0.92339  0.11624  0.15322  1.0000
  H   H2010     1.0  0.94643  0.11175  0.10337  1.0000
  H   H2011     1.0  0.92062  0.09001  0.11375  1.0000
  H   H2012     1.0  0.95212  0.20583  0.11406  1.0000
  H   H2013     1.0  0.96386  0.16675  0.11696  1.0000
  H   H2014     1.0  0.92326  0.15639  0.18150  1.0000
  H   H2015     1.0  0.89255  0.15727  0.17240  1.0000
  H   H2016     1.0  0.88203  0.15392  0.08844  1.0000
  H   H2017     1.0  0.89423  0.11548  0.09327  1.0000
  H   H2018     1.0  0.85148  0.11316  0.08348  1.0000
  H   H2019     1.0  0.85690  0.09802  0.11308  1.0000
  H   H2020     1.0  0.84470  0.13713  0.10893  1.0000
  H   H2021     1.0  0.94462  0.06498  0.14517  1.0000
  H   H2022     1.0  0.95752  0.05894  0.11628  1.0000
  H   H2023     1.0  0.97058  0.08768  0.13611  1.0000
  H   H2024     1.0  0.98080  0.19269  0.08229  1.0000
  H   H2025     1.0  0.96232  0.16049  0.07267  1.0000
  H   H2026     1.0  0.95169  0.20065  0.06999  1.0000
  H   H2027     1.0  0.92174  0.21474  0.18942  1.0000
  H   H2028     1.0  0.89067  0.21427  0.18110  1.0000
  H   H2029     1.0  0.90075  0.19225  0.20682  1.0000
  H   H2030     1.0  0.83288  0.20043  0.21851  1.0000
  C   C1145     1.0  0.79626  0.08460  0.16821  1.0000
  H   H2031     1.0  0.85389  0.23877  0.19193  1.0000
  H   H2032     1.0  0.80211  0.38473  0.46464  1.0000
  N   N64       1.0  0.86184  0.29154  0.22251  1.0000
  C   C1146     1.0  0.88569  0.27969  0.21435  1.0000
  C   C1147     1.0  0.84529  0.26359  0.22535  1.0000
  C   C1148     1.0  0.85250  0.31450  0.20414  1.0000
  C   C1149     1.0  0.86387  0.30832  0.24613  1.0000
  C   C1150     1.0  0.87604  0.28962  0.26657  1.0000
  C   C1151     1.0  0.90627  0.30426  0.21382  1.0000
  C   C1152     1.0  0.83807  0.24651  0.20187  1.0000
  H   H2033     1.0  0.86000  0.00833  0.27570  1.0000
  C   C1153     1.0  0.00468  0.41718  0.04166  1.0000
  H   H2034     1.0  0.88430  0.27035  0.19590  1.0000
  H   H2035     1.0  0.89152  0.25926  0.22547  1.0000
  H   H2036     1.0  0.85355  0.24552  0.23720  1.0000
  H   H2037     1.0  0.82871  0.27047  0.23470  1.0000
  H   H2038     1.0  0.85325  0.30417  0.18593  1.0000
  H   H2039     1.0  0.86412  0.33580  0.20337  1.0000
  H   H2040     1.0  0.87333  0.33130  0.24403  1.0000
  H   H2041     1.0  0.84588  0.31438  0.25284  1.0000
  C   C1154     1.0  0.00115  0.21268  0.14055  1.0000
  H   H2042     1.0  0.86532  0.26850  0.27095  1.0000
  H   H2043     1.0  0.90216  0.32382  0.20131  1.0000
  H   H2044     1.0  0.81628  0.48552  0.05902  1.0000
  H   H2045     1.0  0.82746  0.26212  0.19006  1.0000
  H   H2046     1.0  0.88619  0.29503  0.30372  1.0000
  H   H2047     1.0  0.86028  0.31715  0.29517  1.0000
  H   H2048     1.0  0.78766  0.07617  0.31664  1.0000
  H   H2049     1.0  0.97599  0.37796  0.14796  1.0000
  C   C1155     1.0  0.78531  0.01793  0.10157  1.0000
  H   H2050     1.0  0.89685  0.13565  0.03811  1.0000
  S   S260      1.0  0.77622  0.27429  0.23902  1.0000
  C   C1156     1.0  0.78065  0.36663  0.25832  1.0000
  C   C1157     1.0  0.89755  0.45104  0.09147  1.0000
  C   C1158     1.0  0.76304  0.30506  0.39215  1.0000
  H   H2051     1.0  0.87561  0.42772  0.11931  1.0000
  H   H2052     1.0  0.96973  0.07670  0.01144  1.0000
  H   H2053     1.0  0.80222  0.45963  0.08028  1.0000
  H   H2054     1.0  0.92308  0.15114  0.00508  1.0000
  C   C1159     1.0  0.83912  0.47064  0.08862  1.0000
  H   H2055     1.0  0.91463  0.45326  0.10164  1.0000
  H   H2056     1.0  0.90834  0.38773  0.08812  1.0000
  C   C1160     1.0  0.89936  0.39387  0.10507  1.0000
  H   H2057     1.0  0.78899  0.15783  0.06775  1.0000
  C   C1161     1.0  0.76484  0.18100  0.17008  1.0000
  H   H2058     1.0  0.76781  0.34807  0.45014  1.0000
  S   S261      1.0  0.76648  0.23144  0.30171  1.0000
  H   H2059     1.0  0.89595  0.49137  0.04252  1.0000
  H   H2060     1.0  0.78561  0.27095  0.47305  1.0000
  H   H2061     1.0  0.00641  0.22956  0.12712  1.0000
  C   C1162     1.0  0.88345  0.42259  0.10170  1.0000
  N   N65       1.0  0.76486  0.10011  0.13591  1.0000
  H   H2062     1.0  0.86510  0.46428  0.06059  1.0000
  S   S262      1.0  0.99819  0.32349  0.11928  1.0000
  C   C1163     1.0  0.77467  0.29214  0.46893  1.0000
  C   C1164     1.0  0.87433  0.01933  0.28666  1.0000
  H   H2063     1.0  0.77780  0.43193  0.46672  1.0000
  H   H2064     1.0  0.98162  0.34972  0.00690  1.0000
  H   H2065     1.0  0.80438  0.49468  0.27129  1.0000
  H   H2066     1.0  0.92321  0.10932  0.01018  1.0000
  H   H2067     1.0  0.96019  0.31808  0.00284  1.0000
  H   H2068     1.0  0.77163  0.29185  0.44932  1.0000
  Fe  Fe133     1.0  0.00735  0.09542  0.19206  1.0000
  Fe  Fe134     1.0  0.80525  0.11457  0.98093  1.0000
  H   H2069     1.0  0.82953  0.00069  0.92830  1.0000
  S   S263      1.0  0.78323  0.13337  0.94914  1.0000
  C   C1165     1.0  0.79660  0.11391  0.72452  1.0000
  S   S264      1.0  0.88523  0.06164  0.97512  1.0000
  S   S265      1.0  0.84255  0.13466  0.98212  1.0000
  H   H2070     1.0  0.88527  0.12673  0.95841  1.0000
  S   S266      1.0  0.97464  0.33293  0.71028  1.0000
  S   S267      1.0  0.95255  0.13738  0.90434  1.0000
  Fe  Fe135     1.0  0.83315  0.36283  0.69001  1.0000
  S   S268      1.0  0.80992  0.35370  0.72180  1.0000
  S   S269      1.0  0.86826  0.38497  0.70306  1.0000
  Fe  Fe136     1.0  0.79357  0.33962  0.65505  1.0000
  H   H2071     1.0  0.82820  0.22139  0.68444  1.0000
  C   C1166     1.0  0.82287  0.24453  0.79476  1.0000
  Fe  Fe137     1.0  0.78062  0.37549  0.70026  1.0000
  H   H2072     1.0  0.79610  0.36277  0.80959  1.0000
  Fe  Fe138     1.0  0.80006  0.30822  0.70429  1.0000
  S   S270      1.0  0.80355  0.26309  0.72596  1.0000
  S   S271      1.0  0.80397  0.38785  0.66912  1.0000
  S   S272      1.0  0.82483  0.31571  0.67343  1.0000
  C   C1167     1.0  0.76184  0.06396  0.66309  1.0000
  H   H2073     1.0  0.99275  0.39196  0.68450  1.0000
  C   C1168     1.0  0.77845  0.24557  0.73957  1.0000
  C   C1169     1.0  0.78114  0.21699  0.75199  1.0000
  H   H2074     1.0  0.81784  0.13466  0.84786  1.0000
  H   H2075     1.0  0.80771  0.25865  0.78786  1.0000
  H   H2076     1.0  0.79850  0.20634  0.75331  1.0000
  H   H2077     1.0  0.83136  0.10119  0.83385  1.0000
  H   H2078     1.0  0.98311  0.03982  0.79549  1.0000
  H   H2079     1.0  0.92044  0.07863  0.88385  1.0000
  C   C1170     1.0  0.96748  0.03014  0.78565  1.0000
  H   H2080     1.0  0.94224  0.43225  0.81921  1.0000
  H   H2081     1.0  0.77519  0.33147  0.51231  1.0000
  C   C1171     1.0  0.96436  0.17992  0.97960  1.0000
  C   C1172     1.0  0.94480  0.34664  0.70885  1.0000
  C   C1173     1.0  0.93570  0.36697  0.72602  1.0000
  C   C1174     1.0  0.91253  0.37902  0.72356  1.0000
  C   C1175     1.0  0.89742  0.36910  0.70490  1.0000
  C   C1176     1.0  0.90628  0.34821  0.68793  1.0000
  C   C1177     1.0  0.92996  0.33742  0.68973  1.0000
  H   H2082     1.0  0.94668  0.37356  0.74104  1.0000
  H   H2083     1.0  0.90616  0.39594  0.73629  1.0000
  H   H2084     1.0  0.89510  0.34091  0.67314  1.0000
  H   H2085     1.0  0.93680  0.32177  0.67626  1.0000
  H   H2086     1.0  0.95580  0.48236  0.69553  1.0000
  S   S273      1.0  0.99211  0.36677  0.77379  1.0000
  C   C1178     1.0  0.81360  0.33564  0.51439  1.0000
  H   H2087     1.0  0.94730  0.40244  0.79700  1.0000
  C   C1179     1.0  0.85964  0.08824  0.87331  1.0000
  H   H2088     1.0  0.85553  0.18616  0.93493  1.0000
  H   H2089     1.0  0.82781  0.25282  0.81291  1.0000
  C   C1180     1.0  0.98419  0.07612  0.97556  1.0000
  C   C1181     1.0  0.77745  0.43904  0.79892  1.0000
  H   H2090     1.0  0.85350  0.29155  0.79338  1.0000
  S   S274      1.0  0.76854  0.32879  0.68531  1.0000
  H   H2091     1.0  0.81698  0.21954  0.79607  1.0000
  C   C1182     1.0  0.90406  0.08303  0.95574  1.0000
  C   C1183     1.0  0.92351  0.06791  0.94535  1.0000
  C   C1184     1.0  0.93893  0.08446  0.92998  1.0000
  C   C1185     1.0  0.93451  0.11602  0.92437  1.0000
  C   C1186     1.0  0.91477  0.13090  0.93434  1.0000
  C   C1187     1.0  0.89995  0.11470  0.95039  1.0000
  H   H2092     1.0  0.92657  0.04325  0.94909  1.0000
  H   H2093     1.0  0.95383  0.07259  0.92196  1.0000
  H   H2094     1.0  0.91107  0.15520  0.92985  1.0000
  H   H2095     1.0  0.78138  0.01514  0.71229  1.0000
  H   H2096     1.0  0.94451  0.13655  0.97266  1.0000
  H   H2097     1.0  0.93688  0.44789  0.72889  1.0000
  H   H2098     1.0  0.77844  0.10774  0.65300  1.0000
  H   H2099     1.0  0.79491  0.11372  0.81309  1.0000
  C   C1188     1.0  0.77371  0.09524  0.66981  1.0000
  C   C1189     1.0  0.00099  0.24404  0.84249  1.0000
  C   C1190     1.0  0.79078  0.32050  0.50349  1.0000
  C   C1191     1.0  0.98077  0.42225  0.71304  1.0000
  C   C1192     1.0  0.75932  0.44468  0.72801  1.0000
  H   H2100     1.0  0.82903  0.34685  0.54903  1.0000
  H   H2101     1.0  0.77809  0.11290  0.84024  1.0000
  H   H2102     1.0  0.81589  0.06519  0.86438  1.0000
  C   C1193     1.0  0.82224  0.42194  0.77642  1.0000
  H   H2103     1.0  0.81848  0.44756  0.77706  1.0000
  H   H2104     1.0  0.00523  0.45065  0.73375  1.0000
  C   C1194     1.0  0.83202  0.04261  0.90607  1.0000
  H   H2105     1.0  0.90049  0.05114  0.86968  1.0000
  H   H2106     1.0  0.85526  0.43134  0.75762  1.0000
  C   C1195     1.0  0.95221  0.19592  0.95839  1.0000
  H   H2107     1.0  0.81838  0.14181  0.89043  1.0000
  H   H2108     1.0  0.79554  0.44548  0.71591  1.0000
  H   H2109     1.0  0.79077  0.40917  0.75620  1.0000
  H   H2110     1.0  0.00544  0.32922  0.97341  1.0000
  S   S275      1.0  0.78023  0.32178  0.61845  1.0000
  C   C1196     1.0  0.83889  0.41684  0.75536  1.0000
  H   H2111     1.0  0.80179  0.14146  0.67970  1.0000
  C   C1197     1.0  0.79925  0.18903  0.69232  1.0000
  C   C1198     1.0  0.78569  0.36272  0.85568  1.0000
  H   H2112     1.0  0.81601  0.03532  0.89576  1.0000
  H   H2113     1.0  0.78673  0.33838  0.84854  1.0000
  C   C1199     1.0  0.81638  0.10884  0.84517  1.0000
  H   H2114     1.0  0.77254  0.06786  0.93498  1.0000
  H   H2115     1.0  0.86436  0.13345  0.91942  1.0000
  H   H2116     1.0  0.97381  0.13718  0.96173  1.0000
  H   H2117     1.0  0.81233  0.12273  0.71468  1.0000
  C   C1200     1.0  0.90361  0.07649  0.87354  1.0000
  C   C1201     1.0  0.98138  0.04031  0.97458  1.0000
  H   H2118     1.0  0.75993  0.49927  0.80597  1.0000
  H   H2119     1.0  0.81666  0.08670  0.91734  1.0000
  H   H2120     1.0  0.86268  0.10367  0.85752  1.0000
  H   H2121     1.0  0.98268  0.40253  0.72594  1.0000
  H   H2122     1.0  0.80375  0.37082  0.86114  1.0000
  C   C1202     1.0  0.88302  0.08993  0.88792  1.0000
  H   H2123     1.0  0.84761  0.08389  0.92191  1.0000
  C   C1203     1.0  0.97363  0.33316  0.99374  1.0000
  H   H2124     1.0  0.83018  0.42396  0.73834  1.0000
  H   H2125     1.0  0.80465  0.37732  0.77113  1.0000
  S   S276      1.0  0.00573  0.10491  0.86380  1.0000
  C   C1204     1.0  0.94559  0.47103  0.73267  1.0000
  H   H2126     1.0  0.79043  0.07689  0.82863  1.0000
  H   H2127     1.0  0.84388  0.48904  0.94336  1.0000
  H   H2128     1.0  0.83201  0.41528  0.79290  1.0000
  H   H2129     1.0  0.99056  0.47128  0.71068  1.0000
  C   C1205     1.0  0.80397  0.11014  0.75069  1.0000
  H   H2130     1.0  0.88191  0.07632  0.90481  1.0000
  H   H2131     1.0  0.83425  0.18098  0.67691  1.0000
  C   C1206     1.0  0.77527  0.13647  0.72202  1.0000
  N   N66       1.0  0.76737  0.14467  0.69699  1.0000
  H   H2132     1.0  0.98405  0.24831  0.85087  1.0000
  H   H2133     1.0  0.78660  0.20896  0.69234  1.0000
  C   C1207     1.0  0.81646  0.09052  0.86927  1.0000
  H   H2134     1.0  0.00204  0.24128  0.97693  1.0000
  C   C1208     1.0  0.96297  0.14347  0.97756  1.0000
  N   N67       1.0  0.83713  0.09757  0.88587  1.0000
  H   H2135     1.0  0.93341  0.45314  0.77909  1.0000
  H   H2136     1.0  0.86080  0.34487  0.79040  1.0000
  H   H2137     1.0  0.79044  0.08979  0.67938  1.0000
  H   H2138     1.0  0.89246  0.38272  0.80196  1.0000
  C   C1209     1.0  0.94406  0.49131  0.70974  1.0000
  H   H2139     1.0  0.78062  0.16430  0.66402  1.0000
  H   H2140     1.0  0.85781  0.06400  0.86596  1.0000
  C   C1210     1.0  0.96784  0.44179  0.76279  1.0000
  C   C1211     1.0  0.95233  0.45085  0.78452  1.0000
  C   C1212     1.0  0.95362  0.42553  0.80396  1.0000
  H   H2141     1.0  0.80912  0.13326  0.75849  1.0000
  S   S277      1.0  0.81605  0.06437  0.98879  1.0000
  H   H2142     1.0  0.95567  0.18858  0.99598  1.0000
  H   H2143     1.0  0.96006  0.41965  0.75572  1.0000
  C   C1213     1.0  0.76588  0.33927  0.59319  1.0000
  H   H2144     1.0  0.81377  0.03416  0.93969  1.0000
  H   H2145     1.0  0.93293  0.19009  0.95811  1.0000
  H   H2146     1.0  0.77886  0.45340  0.78228  1.0000
  H   H2147     1.0  0.84593  0.03268  0.94180  1.0000
  H   H2148     1.0  0.84405  0.39171  0.75411  1.0000
  N   N68       1.0  0.78102  0.40452  0.79337  1.0000
  H   H2149     1.0  0.83437  0.13593  0.92987  1.0000
  H   H2150     1.0  0.88759  0.11483  0.89187  1.0000
  S   S278      1.0  0.99693  0.30335  0.82351  1.0000
  H   H2151     1.0  0.80828  0.31425  0.54959  1.0000
  C   C1214     1.0  0.77023  0.11600  0.92313  1.0000
  H   H2152     1.0  0.83140  0.19049  0.91389  1.0000
  H   H2153     1.0  0.95192  0.03061  0.79776  1.0000
  H   H2154     1.0  0.84676  0.14587  0.87690  1.0000
  H   H2155     1.0  0.88424  0.38751  0.77107  1.0000
  H   H2156     1.0  0.97940  0.08565  0.95781  1.0000
  H   H2157     1.0  0.76547  0.33967  0.79102  1.0000
  H   H2158     1.0  0.76734  0.48313  0.83501  1.0000
  C   C1215     1.0  0.79355  0.10258  0.83100  1.0000
  H   H2159     1.0  0.81692  0.35972  0.50746  1.0000
  H   H2160     1.0  0.81940  0.09403  0.75205  1.0000
  H   H2161     1.0  0.96035  0.18832  0.94135  1.0000
  C   C1216     1.0  0.81198  0.33776  0.54156  1.0000
  C   C1217     1.0  0.78201  0.45798  0.72561  1.0000
  H   H2162     1.0  0.96231  0.42232  0.70600  1.0000
  H   H2163     1.0  0.96254  0.03352  0.97135  1.0000
  N   N69       1.0  0.97006  0.46622  0.74326  1.0000
  H   H2164     1.0  0.93378  0.48247  0.74586  1.0000
  H   H2165     1.0  0.84810  0.03341  0.89722  1.0000
  H   H2166     1.0  0.78914  0.09973  0.76117  1.0000
  H   H2167     1.0  0.98575  0.43553  0.76971  1.0000
  C   C1218     1.0  0.79100  0.38711  0.81468  1.0000
  H   H2168     1.0  0.82929  0.32096  0.51012  1.0000
  H   H2169     1.0  0.83736  0.29508  0.76601  1.0000
  C   C1219     1.0  0.79900  0.40217  0.77350  1.0000
  H   H2170     1.0  0.86187  0.18824  0.90346  1.0000
  C   C1220     1.0  0.76267  0.13581  0.90436  1.0000
  H   H2171     1.0  0.95832  0.47335  0.79266  1.0000
  H   H2172     1.0  0.95419  0.22189  0.95993  1.0000
  H   H2173     1.0  0.77131  0.35256  0.76085  1.0000
  Fe  Fe139     1.0  0.99102  0.12428  0.89801  1.0000
  Fe  Fe140     1.0  0.00206  0.34250  0.73989  1.0000
  H   H2174     1.0  0.79939  0.09528  0.87848  1.0000
  H   H2175     1.0  0.79766  0.35422  0.54669  1.0000
  H   H2176     1.0  0.97220  0.42306  0.81061  1.0000
  H   H2177     1.0  0.90589  0.08967  0.85653  1.0000
  C   C1221     1.0  0.84674  0.14352  0.91556  1.0000
  C   C1222     1.0  0.83695  0.13264  0.89099  1.0000
  H   H2178     1.0  0.91319  0.46675  0.69466  1.0000
  C   C1223     1.0  0.83335  0.07896  0.90861  1.0000
  C   C1224     1.0  0.99286  0.31294  0.98239  1.0000
  C   C1225     1.0  0.84899  0.17935  0.91690  1.0000
  H   H2179     1.0  0.79194  0.44777  0.81089  1.0000
  N   N70       1.0  0.87522  0.28768  0.76172  1.0000
  C   C1226     1.0  0.87935  0.32286  0.76054  1.0000
  C   C1227     1.0  0.87160  0.27545  0.73667  1.0000
  C   C1228     1.0  0.85218  0.28209  0.77495  1.0000
  C   C1229     1.0  0.89518  0.27052  0.77444  1.0000
  C   C1230     1.0  0.92073  0.28465  0.77212  1.0000
  C   C1231     1.0  0.87942  0.33999  0.78504  1.0000
  C   C1232     1.0  0.84405  0.24720  0.77787  1.0000
  C   C1233     1.0  0.89343  0.27673  0.72009  1.0000
  C   C1234     1.0  0.88643  0.26901  0.69435  1.0000
  C   C1235     1.0  0.93935  0.26277  0.78308  1.0000
  C   C1236     1.0  0.89278  0.37143  0.78413  1.0000
  H   H2180     1.0  0.86547  0.33430  0.74917  1.0000
  H   H2181     1.0  0.89623  0.32852  0.75137  1.0000
  H   H2182     1.0  0.86623  0.25026  0.73682  1.0000
  H   H2183     1.0  0.85666  0.28827  0.72777  1.0000
  H   H2184     1.0  0.89171  0.26915  0.79398  1.0000
  H   H2185     1.0  0.89574  0.24555  0.76840  1.0000
  H   H2186     1.0  0.92220  0.30741  0.78169  1.0000
  H   H2187     1.0  0.92580  0.28912  0.75338  1.0000
  H   H2188     1.0  0.88768  0.32535  0.79925  1.0000
  H   H2189     1.0  0.85855  0.23237  0.78518  1.0000
  H   H2190     1.0  0.83816  0.23716  0.76057  1.0000
  H   H2191     1.0  0.90186  0.30025  0.72006  1.0000
  H   H2192     1.0  0.90675  0.25906  0.72592  1.0000
  H   H2193     1.0  0.87809  0.24525  0.69324  1.0000
  H   H2194     1.0  0.87379  0.28682  0.68730  1.0000
  H   H2195     1.0  0.90253  0.26946  0.68297  1.0000
  H   H2196     1.0  0.93569  0.25848  0.80228  1.0000
  H   H2197     1.0  0.93964  0.23992  0.77349  1.0000
  H   H2198     1.0  0.95728  0.27385  0.78166  1.0000
  H   H2199     1.0  0.91164  0.36778  0.77907  1.0000
  H   H2200     1.0  0.99225  0.03091  0.95977  1.0000
  H   H2201     1.0  0.81441  0.20430  0.65840  1.0000
  H   H2202     1.0  0.96400  0.04546  0.76991  1.0000
  H   H2203     1.0  0.80784  0.39842  0.82079  1.0000
  C   C1237     1.0  0.98747  0.45391  0.72517  1.0000
  C   C1238     1.0  0.83022  0.02667  0.93050  1.0000
  C   C1239     1.0  0.77505  0.38500  0.83701  1.0000
  H   H2204     1.0  0.98388  0.29782  0.96890  1.0000
  C   C1240     1.0  0.76698  0.08344  0.92070  1.0000
  H   H2205     1.0  0.79160  0.09012  0.71803  1.0000
  H   H2206     1.0  0.79086  0.29567  0.51010  1.0000
  C   C1241     1.0  0.76591  0.37183  0.58906  1.0000
  C   C1242     1.0  0.82032  0.19938  0.67700  1.0000
  H   H2207     1.0  0.77397  0.05020  0.65164  1.0000
  H   H2208     1.0  0.96442  0.34714  0.97971  1.0000
  C   C1243     1.0  0.78729  0.48736  0.73603  1.0000
  H   H2209     1.0  0.77960  0.15815  0.73209  1.0000
  C   C1244     1.0  0.78731  0.15866  0.68231  1.0000
  H   H2210     1.0  0.77439  0.38738  0.60184  1.0000
  C   C1245     1.0  0.76143  0.20184  0.76246  1.0000
  C   C1246     1.0  0.91872  0.49109  0.69962  1.0000
  H   H2211     1.0  0.80603  0.18527  0.71072  1.0000
  Fe  Fe141     1.0  0.85300  0.08524  0.99120  1.0000
  H   H2212     1.0  0.76366  0.17976  0.77188  1.0000
  C   C1247     1.0  0.97954  0.49626  0.75453  1.0000
  H   H2213     1.0  0.00745  0.13210  0.98738  1.0000
  H   H2214     1.0  0.98322  0.18782  0.97980  1.0000
  H   H2215     1.0  0.99301  0.23314  0.93404  1.0000
  C   C1248     1.0  0.76919  0.00020  0.72208  1.0000
  H   H2216     1.0  0.77382  0.40853  0.84546  1.0000
  H   H2217     1.0  0.00365  0.19653  0.85593  1.0000
  C   C1249     1.0  0.96777  0.09057  0.99465  1.0000
  H   H2218     1.0  0.99127  0.49061  0.77013  1.0000
  H   H2219     1.0  0.94930  0.08556  0.98845  1.0000
  H   H2220     1.0  0.98755  0.02945  0.99157  1.0000
  H   H2221     1.0  0.76042  0.12522  0.73207  1.0000
  C   C1250     1.0  0.75926  0.35514  0.77629  1.0000
  H   H2222     1.0  0.76500  0.16104  0.90603  1.0000
  H   H2223     1.0  0.00326  0.08122  0.97897  1.0000
  H   H2224     1.0  0.99501  0.43342  0.67784  1.0000
  C   C1251     1.0  0.99722  0.41543  0.69211  1.0000
  H   H2225     1.0  0.77421  0.36221  0.87175  1.0000
  H   H2226     1.0  0.80497  0.49732  0.73432  1.0000
  Fe  Fe142     1.0  0.96424  0.58244  0.22926  1.0000
  S   S279      1.0  0.95297  0.55610  0.19619  1.0000
  S   S280      1.0  0.93659  0.59839  0.25665  1.0000
  H   H2227     1.0  0.81878  0.53310  0.24079  1.0000
  H   H2228     1.0  0.80343  0.80595  0.13577  1.0000
  C   C1252     1.0  0.77802  0.83239  0.24683  1.0000
  H   H2229     1.0  0.89274  0.52969  0.07860  1.0000
  S   S281      1.0  0.99452  0.54878  0.23764  1.0000
  H   H2230     1.0  0.78589  0.92765  0.09492  1.0000
  H   H2231     1.0  0.81028  0.53026  0.12346  1.0000
  S   S282      1.0  0.99334  0.83573  0.06115  1.0000
  H   H2232     1.0  0.85173  0.64029  0.32720  1.0000
  S   S283      1.0  0.95154  0.81056  0.09756  1.0000
  C   C1253     1.0  0.98653  0.83260  0.20153  1.0000
  Fe  Fe143     1.0  0.96959  0.79268  0.06463  1.0000
  S   S284      1.0  0.95342  0.76451  0.03395  1.0000
  Fe  Fe144     1.0  0.97781  0.85098  0.09633  1.0000
  S   S285      1.0  0.96746  0.90197  0.10293  1.0000
  C   C1254     1.0  0.76795  0.65999  0.17021  1.0000
  S   S286      1.0  0.76510  0.92348  0.22987  1.0000
  H   H2233     1.0  0.85858  0.50391  0.06747  1.0000
  C   C1255     1.0  0.90160  0.50637  0.07996  1.0000
  Fe  Fe145     1.0  0.84606  0.64404  0.02833  1.0000
  S   S287      1.0  0.86122  0.59843  0.04123  1.0000
  S   S288      1.0  0.85532  0.69039  0.04650  1.0000
  Fe  Fe146     1.0  0.82350  0.57977  0.04060  1.0000
  S   S289      1.0  0.81654  0.55434  0.07630  1.0000
  S   S290      1.0  0.80817  0.62662  0.02940  1.0000
  Fe  Fe147     1.0  0.82831  0.72105  0.27903  1.0000
  S   S291      1.0  0.79629  0.70226  0.25933  1.0000
  S   S292      1.0  0.86357  0.71410  0.25883  1.0000
  Fe  Fe148     1.0  0.79567  0.75121  0.31820  1.0000
  Fe  Fe149     1.0  0.78302  0.68824  0.29547  1.0000
  H   H2234     1.0  0.89256  0.53675  0.24699  1.0000
  Fe  Fe150     1.0  0.77923  0.74904  0.26636  1.0000
  H   H2235     1.0  0.98875  0.68381  0.20802  1.0000
  S   S293      1.0  0.81568  0.70504  0.31535  1.0000
  S   S294      1.0  0.81184  0.76921  0.28378  1.0000
  C   C1256     1.0  0.80393  0.53992  0.25259  1.0000
  H   H2236     1.0  0.91691  0.95097  0.21703  1.0000
  Fe  Fe151     1.0  0.97888  0.58806  0.17778  1.0000
  H   H2237     1.0  0.92926  0.52173  0.02516  1.0000
  H   H2238     1.0  0.98989  0.73953  0.24283  1.0000
  H   H2239     1.0  0.77746  0.88532  0.47269  1.0000
  C   C1257     1.0  0.96635  0.83683  0.18278  1.0000
  H   H2240     1.0  0.79092  0.81991  0.25751  1.0000
  H   H2241     1.0  0.93668  0.78274  0.24672  1.0000
  H   H2242     1.0  0.79700  0.57129  0.28189  1.0000
  N   N71       1.0  0.83053  0.58631  0.26707  1.0000
  H   H2243     1.0  0.84901  0.60838  0.34835  1.0000
  H   H2244     1.0  0.77284  0.93786  0.13337  1.0000
  H   H2245     1.0  0.92902  0.60227  0.06015  1.0000
  C   C1258     1.0  0.77138  0.87545  0.30899  1.0000
  H   H2246     1.0  0.96308  0.81384  0.17397  1.0000
  H   H2247     1.0  0.78013  0.57418  0.13989  1.0000
  C   C1259     1.0  0.79200  0.53430  0.08975  1.0000
  H   H2248     1.0  0.79929  0.85281  0.33000  1.0000
  H   H2249     1.0  0.76615  0.56261  0.18185  1.0000
  C   C1260     1.0  0.84150  0.61859  0.33168  1.0000
  H   H2250     1.0  0.79425  0.79715  0.16589  1.0000
  C   C1261     1.0  0.77478  0.90804  0.08785  1.0000
  H   H2251     1.0  0.79287  0.76337  0.46039  1.0000
  C   C1262     1.0  0.92649  0.74338  0.03844  1.0000
  C   C1263     1.0  0.90710  0.75756  0.04945  1.0000
  C   C1264     1.0  0.88528  0.74127  0.05132  1.0000
  C   C1265     1.0  0.88260  0.71064  0.04222  1.0000
  C   C1266     1.0  0.90193  0.69647  0.03104  1.0000
  C   C1267     1.0  0.92380  0.71273  0.02928  1.0000
  H   H2252     1.0  0.90880  0.78131  0.05622  1.0000
  H   H2253     1.0  0.87042  0.75242  0.05995  1.0000
  H   H2254     1.0  0.90003  0.67292  0.02392  1.0000
  H   H2255     1.0  0.93872  0.70140  0.02092  1.0000
  C   C1268     1.0  0.91662  0.63096  0.25664  1.0000
  C   C1269     1.0  0.90249  0.63601  0.27691  1.0000
  C   C1270     1.0  0.88618  0.66113  0.27779  1.0000
  C   C1271     1.0  0.88358  0.68156  0.25833  1.0000
  C   C1272     1.0  0.89789  0.67677  0.23810  1.0000
  C   C1273     1.0  0.91423  0.65159  0.23719  1.0000
  H   H2256     1.0  0.90437  0.62054  0.29220  1.0000
  H   H2257     1.0  0.87600  0.66515  0.29378  1.0000
  H   H2258     1.0  0.89633  0.69266  0.22305  1.0000
  H   H2259     1.0  0.92505  0.64825  0.22153  1.0000
  H   H2260     1.0  0.90959  0.54728  0.04100  1.0000
  H   H2261     1.0  0.85476  0.56926  0.24002  1.0000
  H   H2262     1.0  0.80081  0.94366  0.19397  1.0000
  S   S295      1.0  0.97120  0.75776  0.15070  1.0000
  N   N72       1.0  0.76181  0.88909  0.13020  1.0000
  C   C1274     1.0  0.78011  0.91803  0.16744  1.0000
  C   C1275     1.0  0.97626  0.92247  0.12907  1.0000
  H   H2263     1.0  0.79287  0.61010  0.14907  1.0000
  H   H2264     1.0  0.83300  0.57334  0.31725  1.0000
  C   C1276     1.0  0.77415  0.85776  0.12845  1.0000
  C   C1277     1.0  0.97547  0.97044  0.15323  1.0000
  C   C1278     1.0  0.96858  0.95354  0.13264  1.0000
  C   C1279     1.0  0.96096  0.69817  0.16642  1.0000
  H   H2265     1.0  0.91277  0.90444  0.19110  1.0000
  C   C1280     1.0  0.82005  0.60510  0.24660  1.0000
  C   C1281     1.0  0.83459  0.63449  0.23850  1.0000
  C   C1282     1.0  0.82496  0.64794  0.21506  1.0000
  H   H2266     1.0  0.82007  0.54490  0.28762  1.0000
  H   H2267     1.0  0.79900  0.73337  0.49386  1.0000
  H   H2268     1.0  0.80178  0.61320  0.25116  1.0000
  H   H2269     1.0  0.81804  0.59006  0.23052  1.0000
  H   H2270     1.0  0.85362  0.62880  0.23591  1.0000
  C   C1283     1.0  0.96917  0.65065  0.14412  1.0000
  H   H2271     1.0  0.83495  0.66983  0.21052  1.0000
  H   H2272     1.0  0.82713  0.63079  0.20035  1.0000
  H   H2273     1.0  0.80587  0.65391  0.21689  1.0000
  N   N73       1.0  0.94339  0.85029  0.19184  1.0000
  C   C1284     1.0  0.93425  0.83192  0.21305  1.0000
  C   C1285     1.0  0.94799  0.88392  0.19934  1.0000
  C   C1286     1.0  0.92506  0.84844  0.17209  1.0000
  H   H2274     1.0  0.79384  0.87790  0.25363  1.0000
  H   H2275     1.0  0.95581  0.62586  0.05984  1.0000
  C   C1287     1.0  0.93123  0.79581  0.20934  1.0000
  C   C1288     1.0  0.93019  0.86891  0.14967  1.0000
  C   C1289     1.0  0.99008  0.95629  0.17044  1.0000
  C   C1290     1.0  0.79690  0.86390  0.31215  1.0000
  H   H2276     1.0  0.95458  0.70932  0.18243  1.0000
  C   C1291     1.0  0.92323  0.77944  0.23232  1.0000
  C   C1292     1.0  0.90989  0.86636  0.13150  1.0000
  H   H2277     1.0  0.91649  0.84077  0.21838  1.0000
  H   H2278     1.0  0.94586  0.83587  0.22895  1.0000
  H   H2279     1.0  0.95999  0.88466  0.21519  1.0000
  H   H2280     1.0  0.95775  0.89701  0.18520  1.0000
  H   H2281     1.0  0.90709  0.85441  0.17887  1.0000
  H   H2282     1.0  0.92338  0.82380  0.16551  1.0000
  C   C1293     1.0  0.99109  0.90856  0.14616  1.0000
  H   H2283     1.0  0.99179  0.85559  0.20937  1.0000
  C   C1294     1.0  0.83312  0.60849  0.28794  1.0000
  C   C1295     1.0  0.92582  0.90345  0.20600  1.0000
  H   H2284     1.0  0.91755  0.79078  0.19549  1.0000
  H   H2285     1.0  0.79729  0.85419  0.15987  1.0000
  H   H2286     1.0  0.94657  0.86084  0.14076  1.0000
  H   H2287     1.0  0.93238  0.89419  0.15417  1.0000
  C   C1296     1.0  0.77965  0.86530  0.24456  1.0000
  H   H2288     1.0  0.92100  0.75375  0.22914  1.0000
  H   H2289     1.0  0.79845  0.96352  0.16560  1.0000
  H   H2290     1.0  0.77678  0.59251  0.10301  1.0000
  H   H2291     1.0  0.78423  0.83602  0.38295  1.0000
  S   S296      1.0  0.99711  0.76519  0.08472  1.0000
  H   H2292     1.0  0.86045  0.54241  0.29102  1.0000
  H   H2293     1.0  0.86210  0.58866  0.30934  1.0000
  H   H2294     1.0  0.76970  0.71421  0.45253  1.0000
  S   S297      1.0  0.76934  0.63898  0.30310  1.0000
  C   C1297     1.0  0.92258  0.52784  0.04317  1.0000
  H   H2295     1.0  0.91431  0.88071  0.11547  1.0000
  H   H2296     1.0  0.90728  0.84152  0.12581  1.0000
  H   H2297     1.0  0.89311  0.87536  0.13916  1.0000
  C   C1298     1.0  0.82677  0.63492  0.10799  1.0000
  C   C1299     1.0  0.84303  0.59456  0.31149  1.0000
  H   H2298     1.0  0.00480  0.73017  0.18798  1.0000
  H   H2299     1.0  0.81939  0.57849  0.17728  1.0000
  H   H2300     1.0  0.78266  0.89552  0.17702  1.0000
  H   H2301     1.0  0.00189  0.93754  0.03413  1.0000
  H   H2302     1.0  0.81621  0.61282  0.10675  1.0000
  C   C1300     1.0  0.77844  0.91419  0.13995  1.0000
  H   H2303     1.0  0.00123  0.79811  0.01629  1.0000
  H   H2304     1.0  0.76299  0.84081  0.11809  1.0000
  C   C1301     1.0  0.86274  0.54242  0.27144  1.0000
  H   H2305     1.0  0.95471  0.65104  0.17962  1.0000
  H   H2306     1.0  0.83338  0.65347  0.25197  1.0000
  S   S298      1.0  0.79284  0.78659  0.34914  1.0000
  H   H2307     1.0  0.78788  0.82002  0.47211  1.0000
  H   H2308     1.0  0.85759  0.53271  0.10589  1.0000
  H   H2309     1.0  0.80134  0.84644  0.29818  1.0000
  H   H2310     1.0  0.77662  0.51584  0.27350  1.0000
  S   S299      1.0  0.98847  0.61618  0.21021  1.0000
  Fe  Fe152     1.0  0.98044  0.78515  0.11738  1.0000
  H   H2311     1.0  0.82044  0.64867  0.12349  1.0000
  H   H2312     1.0  0.82266  0.62499  0.33497  1.0000
  C   C1302     1.0  0.76175  0.68108  0.19129  1.0000
  H   H2313     1.0  0.80486  0.54258  0.16730  1.0000
  H   H2314     1.0  0.97092  0.73667  0.21669  1.0000
  N   N74       1.0  0.89498  0.65240  0.11460  1.0000
  C   C1303     1.0  0.90162  0.62804  0.13311  1.0000
  C   C1304     1.0  0.90306  0.64116  0.09044  1.0000
  C   C1305     1.0  0.90678  0.68321  0.12123  1.0000
  C   C1306     1.0  0.86843  0.65717  0.11354  1.0000
  C   C1307     1.0  0.85306  0.62684  0.11088  1.0000
  C   C1308     1.0  0.89282  0.63426  0.15889  1.0000
  C   C1309     1.0  0.90361  0.71054  0.10315  1.0000
  C   C1310     1.0  0.93034  0.63991  0.08661  1.0000
  C   C1311     1.0  0.93621  0.62659  0.06205  1.0000
  C   C1312     1.0  0.90018  0.60763  0.17575  1.0000
  C   C1313     1.0  0.91705  0.74004  0.11131  1.0000
  H   H2315     1.0  0.92125  0.62617  0.13451  1.0000
  H   H2316     1.0  0.89546  0.60417  0.12755  1.0000
  H   H2317     1.0  0.89619  0.61696  0.08699  1.0000
  H   H2318     1.0  0.89529  0.65590  0.07589  1.0000
  H   H2319     1.0  0.92611  0.67989  0.12450  1.0000
  H   H2320     1.0  0.89965  0.69205  0.13837  1.0000
  H   H2321     1.0  0.86222  0.67012  0.12955  1.0000
  H   H2322     1.0  0.86372  0.67258  0.09810  1.0000
  H   H2323     1.0  0.85482  0.61141  0.12679  1.0000
  H   H2324     1.0  0.85822  0.61316  0.09496  1.0000
  H   H2325     1.0  0.90079  0.65623  0.16615  1.0000
  H   H2326     1.0  0.87319  0.63624  0.15957  1.0000
  H   H2327     1.0  0.88458  0.71684  0.10131  1.0000
  H   H2328     1.0  0.91050  0.70413  0.08537  1.0000
  H   H2329     1.0  0.93849  0.66374  0.08771  1.0000
  H   H2330     1.0  0.93899  0.62454  0.10005  1.0000
  H   H2331     1.0  0.92867  0.64166  0.04771  1.0000
  H   H2332     1.0  0.77124  0.64315  0.12337  1.0000
  H   H2333     1.0  0.77155  0.99519  0.13331  1.0000
  H   H2334     1.0  0.82384  0.64869  0.09131  1.0000
  H   H2335     1.0  0.89368  0.61250  0.19405  1.0000
  H   H2336     1.0  0.89261  0.58475  0.16975  1.0000
  C   C1314     1.0  0.79011  0.87815  0.48699  1.0000
  H   H2337     1.0  0.93649  0.73661  0.10945  1.0000
  H   H2338     1.0  0.91185  0.76036  0.09998  1.0000
  H   H2339     1.0  0.91295  0.74584  0.13015  1.0000
  C   C1315     1.0  0.79406  0.52503  0.11381  1.0000
  H   H2340     1.0  0.95715  0.96456  0.11948  1.0000
  H   H2341     1.0  0.76887  0.53436  0.05900  1.0000
  H   H2342     1.0  0.90587  0.78884  0.23832  1.0000
  C   C1316     1.0  0.77338  0.82224  0.48542  1.0000
  C   C1317     1.0  0.97645  0.66910  0.12475  1.0000
  C   C1318     1.0  0.96934  0.71665  0.14745  1.0000
  S   S300      1.0  0.97039  0.60957  0.14212  1.0000
  H   H2343     1.0  0.76273  0.60734  0.06313  1.0000
  H   H2344     1.0  0.76697  0.84197  0.16561  1.0000
  Fe  Fe153     1.0  0.86285  0.58523  0.00259  1.0000
  H   H2345     1.0  0.97377  0.85210  0.16851  1.0000
  C   C1319     1.0  0.97675  0.70200  0.12652  1.0000
  C   C1320     1.0  0.77762  0.59391  0.15248  1.0000
  H   H2346     1.0  0.78569  0.64986  0.17393  1.0000
  H   H2347     1.0  0.91691  0.89326  0.22189  1.0000
  C   C1321     1.0  0.98080  0.72298  0.23040  1.0000
  H   H2348     1.0  0.80947  0.88411  0.31069  1.0000
  H   H2349     1.0  0.90025  0.55447  0.27535  1.0000
  C   C1322     1.0  0.77081  0.52748  0.07752  1.0000
  Fe  Fe154     1.0  0.98491  0.52557  0.20248  1.0000
  H   H2350     1.0  0.94808  0.78470  0.20381  1.0000
  C   C1323     1.0  0.99886  0.70125  0.21871  1.0000
  H   H2351     1.0  0.81790  0.92992  0.16909  1.0000
  H   H2352     1.0  0.94581  0.93811  0.22702  1.0000
  C   C1324     1.0  0.78849  0.80757  0.14857  1.0000
  C   C1325     1.0  0.78058  0.57974  0.17791  1.0000
  H   H2353     1.0  0.80568  0.55195  0.19846  1.0000
  H   H2354     1.0  0.80726  0.87145  0.47878  1.0000
  C   C1326     1.0  0.80413  0.56222  0.18029  1.0000
  C   C1327     1.0  0.76477  0.91914  0.06385  1.0000
  C   C1328     1.0  0.80060  0.94015  0.17434  1.0000
  H   H2355     1.0  0.81569  0.61958  0.29181  1.0000
  C   C1329     1.0  0.77037  0.79112  0.37129  1.0000
  C   C1330     1.0  0.93290  0.93743  0.21191  1.0000
  C   C1331     1.0  0.77351  0.76509  0.45675  1.0000
  H   H2356     1.0  0.91988  0.60594  0.17654  1.0000
  C   C1332     1.0  0.88898  0.53633  0.26647  1.0000
  H   H2357     1.0  0.89409  0.51290  0.27367  1.0000
  C   C1333     1.0  0.77060  0.81827  0.38571  1.0000
  H   H2358     1.0  0.94110  0.94914  0.19616  1.0000
  H   H2359     1.0  0.98247  0.65792  0.10857  1.0000
  H   H2360     1.0  0.86854  0.59175  0.26268  1.0000
  H   H2361     1.0  0.76930  0.67540  0.15422  1.0000
  C   C1334     1.0  0.81292  0.56070  0.27357  1.0000
  C   C1335     1.0  0.99794  0.92535  0.16671  1.0000
  C   C1336     1.0  0.85442  0.57365  0.25960  1.0000
  H   H2362     1.0  0.84529  0.62823  0.28355  1.0000
  H   H2363     1.0  0.79068  0.55316  0.24176  1.0000
  H   H2364     1.0  0.96780  0.70864  0.24073  1.0000
  C   C1337     1.0  0.96107  0.66519  0.16485  1.0000
  H   H2365     1.0  0.98102  0.81650  0.21615  1.0000
  H   H2366     1.0  0.96927  0.99423  0.15593  1.0000
  H   H2367     1.0  0.77483  0.70076  0.19266  1.0000
  H   H2368     1.0  0.88645  0.54365  0.11710  1.0000
  S   S301      1.0  0.82656  0.56238  0.00251  1.0000
  H   H2369     1.0  0.77308  0.79364  0.14178  1.0000
  C   C1338     1.0  0.86118  0.53202  0.14422  1.0000
  C   C1339     1.0  0.75952  0.60467  0.10159  1.0000
  C   C1340     1.0  0.87141  0.52678  0.11935  1.0000
  H   H2370     1.0  0.79677  0.91063  0.13309  1.0000
  C   C1341     1.0  0.77530  0.50928  0.12560  1.0000
  C   C1342     1.0  0.78147  0.84191  0.15232  1.0000
  H   H2371     1.0  0.79079  0.86020  0.11798  1.0000
  H   H2372     1.0  0.76786  0.89226  0.32362  1.0000
  H   H2373     1.0  0.85235  0.52224  0.26419  1.0000
  C   C1343     1.0  0.79160  0.50994  0.26153  1.0000
  H   H2374     1.0  0.85495  0.55668  0.14578  1.0000
  H   H2375     1.0  0.77514  0.73570  0.42522  1.0000
  H   H2376     1.0  0.98294  0.71581  0.11170  1.0000
  H   H2377     1.0  0.93781  0.53610  0.05427  1.0000
  H   H2378     1.0  0.77057  0.88828  0.29175  1.0000
  H   H2379     1.0  0.78641  0.88757  0.08445  1.0000
  H   H2380     1.0  0.99463  0.90580  0.05421  1.0000
  H   H2381     1.0  0.78037  0.59836  0.19175  1.0000
  H   H2382     1.0  0.77961  0.92550  0.05171  1.0000
  H   H2383     1.0  0.76341  0.92842  0.17415  1.0000
  H   H2384     1.0  0.84582  0.51597  0.14739  1.0000
  H   H2385     1.0  0.77450  0.64124  0.07853  1.0000
  C   C1344     1.0  0.75982  0.62357  0.07834  1.0000
  S   S302      1.0  0.76243  0.73282  0.30064  1.0000
  H   H2386     1.0  0.99739  0.88493  0.14352  1.0000
  C   C1345     1.0  0.76294  0.88200  0.23093  1.0000
  H   H2387     1.0  0.76248  0.66753  0.20825  1.0000
  H   H2388     1.0  0.87499  0.52774  0.15812  1.0000
  H   H2389     1.0  0.77066  0.78606  0.44519  1.0000
  C   C1346     1.0  0.75981  0.81577  0.23523  1.0000
  C   C1347     1.0  0.76561  0.73617  0.44252  1.0000
  H   H2390     1.0  0.96496  0.81746  0.99839  1.0000
  S   S303      1.0  0.99851  0.97551  0.19721  1.0000
  H   H2391     1.0  0.00450  0.79503  0.18250  1.0000
  S   S304      1.0  0.00531  0.82672  0.11876  1.0000
  H   H2392     1.0  0.91754  0.50996  0.09165  1.0000
  H   H2393     1.0  0.77731  0.50217  0.14404  1.0000
  H   H2394     1.0  0.00796  0.95297  0.07621  1.0000
  C   C1348     1.0  0.75908  0.76841  0.48013  1.0000
  C   C1349     1.0  0.77993  0.85071  0.50153  1.0000
  H   H2395     1.0  0.97689  0.98270  0.79416  1.0000
  S   S305      1.0  0.79234  0.62679  0.95844  1.0000
  H   H2396     1.0  0.93324  0.59075  0.89214  1.0000
  H   H2397     1.0  0.77382  0.56260  0.94981  1.0000
  C   C1350     1.0  0.00297  0.67469  0.98017  1.0000
  Fe  Fe155     1.0  0.99906  0.61796  0.90491  1.0000
  S   S306      1.0  0.97928  0.82503  0.72964  1.0000
  S   S307      1.0  0.96453  0.63705  0.91931  1.0000
  Fe  Fe156     1.0  0.83578  0.85471  0.70880  1.0000
  S   S308      1.0  0.80368  0.83918  0.72976  1.0000
  S   S309      1.0  0.86851  0.85853  0.73361  1.0000
  Fe  Fe157     1.0  0.80494  0.86179  0.66277  1.0000
  C   C1351     1.0  0.76724  0.70644  0.72540  1.0000
  S   S310      1.0  0.80431  0.87826  0.62370  1.0000
  Fe  Fe158     1.0  0.78381  0.87771  0.71094  1.0000
  C   C1352     1.0  0.96012  0.92733  0.77722  1.0000
  Fe  Fe159     1.0  0.79444  0.80902  0.69840  1.0000
  S   S311      1.0  0.78456  0.75709  0.70036  1.0000
  S   S312      1.0  0.81619  0.89571  0.69201  1.0000
  S   S313      1.0  0.82747  0.82236  0.67796  1.0000
  C   C1353     1.0  0.82820  0.57446  0.89272  1.0000
  H   H2398     1.0  0.99811  0.89159  0.69921  1.0000
  H   H2399     1.0  0.98884  0.93103  0.69175  1.0000
  H   H2400     1.0  0.81727  0.52948  0.92561  1.0000
  H   H2401     1.0  0.97206  0.69942  0.99214  1.0000
  H   H2402     1.0  0.99715  0.76399  0.75196  1.0000
  C   C1354     1.0  0.99511  0.91555  0.70649  1.0000
  H   H2403     1.0  0.89501  0.62521  0.97013  1.0000
  H   H2404     1.0  0.86786  0.66331  0.93802  1.0000
  H   H2405     1.0  0.86814  0.59666  0.87616  1.0000
  H   H2406     1.0  0.83447  0.74794  0.51869  1.0000
  C   C1355     1.0  0.77091  0.57666  0.93392  1.0000
  N   N75       1.0  0.95364  0.94822  0.75638  1.0000
  H   H2407     1.0  0.97900  0.75417  0.82039  1.0000
  C   C1356     1.0  0.94845  0.83409  0.73106  1.0000
  C   C1357     1.0  0.93399  0.82972  0.71072  1.0000
  C   C1358     1.0  0.90947  0.83678  0.71111  1.0000
  C   C1359     1.0  0.89904  0.84787  0.73203  1.0000
  C   C1360     1.0  0.91341  0.85148  0.75254  1.0000
  C   C1361     1.0  0.93794  0.84475  0.75206  1.0000
  H   H2408     1.0  0.94188  0.82131  0.69439  1.0000
  H   H2409     1.0  0.89875  0.83408  0.69514  1.0000
  H   H2410     1.0  0.90555  0.85998  0.76884  1.0000
  H   H2411     1.0  0.94871  0.84773  0.76793  1.0000
  H   H2412     1.0  0.82206  0.50267  0.96430  1.0000
  C   C1362     1.0  0.96112  0.79827  0.81720  1.0000
  C   C1363     1.0  0.77853  0.60812  0.93342  1.0000
  H   H2413     1.0  0.79324  0.84419  0.51537  1.0000
  H   H2414     1.0  0.78839  0.53607  0.87855  1.0000
  H   H2415     1.0  0.90133  0.91237  0.70949  1.0000
  H   H2416     1.0  0.94508  0.70836  0.87258  1.0000
  H   H2417     1.0  0.99541  0.72163  0.94493  1.0000
  N   N76       1.0  0.95981  0.73750  0.95299  1.0000
  C   C1364     1.0  0.97613  0.77219  0.80633  1.0000
  H   H2418     1.0  0.89320  0.73331  0.98645  1.0000
  H   H2419     1.0  0.93716  0.72867  0.98335  1.0000
  C   C1365     1.0  0.91468  0.58202  0.96904  1.0000
  C   C1366     1.0  0.93495  0.56731  0.95987  1.0000
  C   C1367     1.0  0.95074  0.58399  0.94491  1.0000
  C   C1368     1.0  0.94614  0.61538  0.93888  1.0000
  C   C1369     1.0  0.92587  0.62998  0.94799  1.0000
  C   C1370     1.0  0.91038  0.61352  0.96319  1.0000
  H   H2420     1.0  0.93841  0.54292  0.96426  1.0000
  H   H2421     1.0  0.96625  0.57245  0.93783  1.0000
  H   H2422     1.0  0.92187  0.65394  0.94293  1.0000
  H   H2423     1.0  0.99066  0.95241  0.74646  1.0000
  C   C1371     1.0  0.89606  0.58647  0.90199  1.0000
  C   C1372     1.0  0.95700  0.74621  0.92694  1.0000
  H   H2424     1.0  0.94511  0.80180  0.94859  1.0000
  C   C1373     1.0  0.83200  0.53731  0.93751  1.0000
  C   C1374     1.0  0.87158  0.57888  0.89040  1.0000
  H   H2425     1.0  0.94505  0.76137  0.73813  1.0000
  H   H2426     1.0  0.78097  0.73229  0.51990  1.0000
  C   C1375     1.0  0.78297  0.88621  0.57955  1.0000
  C   C1376     1.0  0.96115  0.82296  0.97935  1.0000
  H   H2427     1.0  0.86487  0.60549  0.93599  1.0000
  H   H2428     1.0  0.83363  0.60363  0.93474  1.0000
  Fe  Fe160     1.0  0.81376  0.61064  0.99124  1.0000
  C   C1377     1.0  0.76987  0.50391  0.74863  1.0000
  C   C1378     1.0  0.95253  0.90766  0.81932  1.0000
  C   C1379     1.0  0.91586  0.58563  0.88343  1.0000
  C   C1380     1.0  0.93952  0.72433  0.71296  1.0000
  C   C1381     1.0  0.95112  0.98208  0.76397  1.0000
  H   H2429     1.0  0.80796  0.78901  0.49802  1.0000
  H   H2430     1.0  0.96001  0.90228  0.77160  1.0000
  H   H2431     1.0  0.96759  0.69540  0.74585  1.0000
  H   H2432     1.0  0.94876  0.51612  0.71379  1.0000
  C   C1382     1.0  0.95022  0.79430  0.96686  1.0000
  S   S314      1.0  0.76302  0.60223  0.81084  1.0000
  H   H2433     1.0  0.98323  0.56261  0.75437  1.0000
  H   H2434     1.0  0.86265  0.64062  0.89721  1.0000
  H   H2435     1.0  0.89342  0.69593  0.97101  1.0000
  H   H2436     1.0  0.76370  0.85929  0.51054  1.0000
  H   H2437     1.0  0.89615  0.61034  0.90992  1.0000
  H   H2438     1.0  0.89300  0.94975  0.69679  1.0000
  C   C1383     1.0  0.77431  0.62604  0.91262  1.0000
  H   H2439     1.0  0.97053  0.80825  0.83298  1.0000
  H   H2440     1.0  0.95119  0.71248  0.81510  1.0000
  H   H2441     1.0  0.76973  0.92305  0.64229  1.0000
  H   H2442     1.0  0.91280  0.60365  0.86934  1.0000
  H   H2443     1.0  0.96254  0.77818  0.77093  1.0000
  H   H2444     1.0  0.82538  0.55674  0.94875  1.0000
  H   H2445     1.0  0.83019  0.52332  0.88497  1.0000
  C   C1384     1.0  0.84959  0.60508  0.92324  1.0000
  C   C1385     1.0  0.82631  0.54579  0.87566  1.0000
  H   H2446     1.0  0.79910  0.89881  0.57494  1.0000
  N   N77       1.0  0.83427  0.74667  0.76734  1.0000
  C   C1386     1.0  0.84202  0.74235  0.74181  1.0000
  C   C1387     1.0  0.81812  0.71951  0.77418  1.0000
  C   C1388     1.0  0.81977  0.77650  0.76824  1.0000
  C   C1389     1.0  0.85487  0.74986  0.78464  1.0000
  C   C1390     1.0  0.87777  0.73121  0.77886  1.0000
  C   C1391     1.0  0.85505  0.77102  0.73040  1.0000
  C   C1392     1.0  0.80696  0.78334  0.79212  1.0000
  C   C1393     1.0  0.82916  0.68622  0.77458  1.0000
  C   C1394     1.0  0.93751  0.72353  0.96390  1.0000
  C   C1395     1.0  0.89487  0.73103  0.80016  1.0000
  C   C1396     1.0  0.86749  0.76189  0.70732  1.0000
  C   C1397     1.0  0.79649  0.81647  0.79227  1.0000
  H   H2447     1.0  0.82626  0.73719  0.73021  1.0000
  H   H2448     1.0  0.85350  0.72146  0.73988  1.0000
  H   H2449     1.0  0.81096  0.72265  0.79244  1.0000
  H   H2450     1.0  0.80241  0.71891  0.76203  1.0000
  H   H2451     1.0  0.80607  0.77636  0.75385  1.0000
  H   H2452     1.0  0.83125  0.79744  0.76453  1.0000
  H   H2453     1.0  0.86068  0.77497  0.78617  1.0000
  H   H2454     1.0  0.84898  0.74315  0.80293  1.0000
  H   H2455     1.0  0.88724  0.74227  0.76361  1.0000
  H   H2456     1.0  0.87402  0.70647  0.77397  1.0000
  H   H2457     1.0  0.84197  0.78956  0.72578  1.0000
  H   H2458     1.0  0.86838  0.78154  0.74275  1.0000
  H   H2459     1.0  0.81941  0.78128  0.80749  1.0000
  H   H2460     1.0  0.79186  0.76673  0.79479  1.0000
  H   H2461     1.0  0.83813  0.68059  0.75761  1.0000
  H   H2462     1.0  0.84202  0.68439  0.78963  1.0000
  C   C1398     1.0  0.85058  0.66451  0.92833  1.0000
  H   H2463     1.0  0.93404  0.78763  0.97700  1.0000
  C   C1399     1.0  0.80685  0.96325  0.65338  1.0000
  H   H2464     1.0  0.90049  0.75545  0.80472  1.0000
  H   H2465     1.0  0.88635  0.71985  0.81594  1.0000
  H   H2466     1.0  0.91082  0.71719  0.79560  1.0000
  H   H2467     1.0  0.87572  0.78316  0.69914  1.0000
  H   H2468     1.0  0.88168  0.74444  0.71095  1.0000
  H   H2469     1.0  0.85443  0.75188  0.69439  1.0000
  C   C1400     1.0  0.76238  0.61293  0.89269  1.0000
  H   H2470     1.0  0.76657  0.89354  0.54489  1.0000
  H   H2471     1.0  0.77987  0.97872  0.62917  1.0000
  H   H2472     1.0  0.99548  0.71222  0.80309  1.0000
  C   C1401     1.0  0.94366  0.92919  0.79927  1.0000
  H   H2473     1.0  0.95239  0.88270  0.81343  1.0000
  C   C1402     1.0  0.78065  0.87330  0.60264  1.0000
  H   H2474     1.0  0.81861  0.63747  0.78085  1.0000
  S   S315      1.0  0.00122  0.59842  0.86778  1.0000
  H   H2475     1.0  0.99264  0.65419  0.97325  1.0000
  H   H2476     1.0  0.97101  0.76064  0.98568  1.0000
  C   C1403     1.0  0.81834  0.73714  0.52676  1.0000
  H   H2477     1.0  0.95829  0.81757  0.80408  1.0000
  H   H2478     1.0  0.82616  0.59567  0.88119  1.0000
  H   H2479     1.0  0.77999  0.65044  0.91204  1.0000
  H   H2480     1.0  0.80952  0.95904  0.67276  1.0000
  N   N78       1.0  0.85083  0.57661  0.90726  1.0000
  C   C1404     1.0  0.84829  0.63754  0.91045  1.0000
  H   H2481     1.0  0.94172  0.76214  0.92405  1.0000
  C   C1405     1.0  0.89262  0.72192  0.96863  1.0000
  H   H2482     1.0  0.90052  0.56914  0.91617  1.0000
  H   H2483     1.0  0.79959  0.66586  0.79489  1.0000
  H   H2484     1.0  0.83583  0.66345  0.94142  1.0000
  H   H2485     1.0  0.94839  0.84281  0.97877  1.0000
  H   H2486     1.0  0.79587  0.56553  0.85633  1.0000
  C   C1406     1.0  0.79267  0.78041  0.50887  1.0000
  H   H2487     1.0  0.81858  0.98314  0.64796  1.0000
  H   H2488     1.0  0.98842  0.68371  0.78140  1.0000
  C   C1407     1.0  0.81012  0.66085  0.77863  1.0000
  C   C1408     1.0  0.92212  0.95250  0.72243  1.0000
  H   H2489     1.0  0.96471  0.51035  0.76195  1.0000
  C   C1409     1.0  0.95491  0.74040  0.73198  1.0000
  H   H2490     1.0  0.98515  0.77512  0.95950  1.0000
  H   H2491     1.0  0.93566  0.74137  0.69835  1.0000
  H   H2492     1.0  0.94146  0.70034  0.91624  1.0000
  H   H2493     1.0  0.91559  0.94104  0.75917  1.0000
  H   H2494     1.0  0.91691  0.56194  0.87516  1.0000
  H   H2495     1.0  0.85240  0.51635  0.96672  1.0000
  H   H2496     1.0  0.86873  0.55189  0.93603  1.0000
  S   S316      1.0  0.77769  0.53993  0.76249  1.0000
  C   C1410     1.0  0.85405  0.54784  0.92290  1.0000
  H   H2497     1.0  0.78540  0.95680  0.71040  1.0000
  C   C1411     1.0  0.95970  0.69298  0.80530  1.0000
  H   H2498     1.0  0.88457  0.94010  0.72696  1.0000
  H   H2499     1.0  0.94898  0.70390  0.70526  1.0000
  S   S317      1.0  0.77163  0.84591  0.68108  1.0000
  H   H2500     1.0  0.97782  0.83059  0.97042  1.0000
  C   C1412     1.0  0.75960  0.85730  0.60837  1.0000
  H   H2501     1.0  0.87372  0.55621  0.88075  1.0000
  H   H2502     1.0  0.83088  0.64017  0.90120  1.0000
  H   H2503     1.0  0.81236  0.57477  0.90449  1.0000
  N   N79       1.0  0.76931  0.79121  0.49817  1.0000
  H   H2504     1.0  0.94363  0.78882  0.82306  1.0000
  C   C1413     1.0  0.77149  0.96717  0.72094  1.0000
  S   S318      1.0  0.89468  0.56027  0.98705  1.0000
  H   H2505     1.0  0.94264  0.71085  0.76061  1.0000
  H   H2506     1.0  0.81218  0.94201  0.64328  1.0000
  H   H2507     1.0  0.98650  0.52360  0.72139  1.0000
  H   H2508     1.0  0.95178  0.65957  0.83376  1.0000
  H   H2509     1.0  0.80126  0.52444  0.85071  1.0000
  H   H2510     1.0  0.95991  0.90461  0.71811  1.0000
  H   H2511     1.0  0.87539  0.72783  0.95997  1.0000
  H   H2512     1.0  0.95898  0.74630  0.87712  1.0000
  C   C1414     1.0  0.76979  0.73938  0.72478  1.0000
  C   C1415     1.0  0.79634  0.74430  0.51158  1.0000
  C   C1416     1.0  0.94611  0.72900  0.88469  1.0000
  H   H2513     1.0  0.99356  0.78265  0.80150  1.0000
  H   H2514     1.0  0.79544  0.79136  0.52674  1.0000
  C   C1417     1.0  0.98752  0.70419  0.98045  1.0000
  H   H2515     1.0  0.93761  0.69735  0.96295  1.0000
  C   C1418     1.0  0.96780  0.76641  0.96657  1.0000
  H   H2516     1.0  0.94519  0.75210  0.78836  1.0000
  H   H2517     1.0  0.81064  0.83458  0.78972  1.0000
  H   H2518     1.0  0.97871  0.93200  0.78321  1.0000
  H   H2519     1.0  0.93027  0.91106  0.74358  1.0000
  C   C1419     1.0  0.83805  0.50962  0.95394  1.0000
  H   H2520     1.0  0.92823  0.73983  0.88564  1.0000
  H   H2521     1.0  0.79332  0.89865  0.49887  1.0000
  H   H2522     1.0  0.84961  0.68745  0.91880  1.0000
  H   H2523     1.0  0.79791  0.65953  0.76303  1.0000
  C   C1420     1.0  0.91321  0.73379  0.95323  1.0000
  H   H2524     1.0  0.92237  0.71624  0.72065  1.0000
  H   H2525     1.0  0.97175  0.70641  0.90712  1.0000
  N   N80       1.0  0.97616  0.73061  0.77252  1.0000
  C   C1421     1.0  0.96021  0.71763  0.75312  1.0000
  C   C1422     1.0  0.98118  0.70481  0.79046  1.0000
  C   C1423     1.0  0.96387  0.75823  0.78386  1.0000
  H   H2526     1.0  0.97630  0.64827  0.81513  1.0000
  H   H2527     1.0  0.97279  0.76005  0.92084  1.0000
  H   H2528     1.0  0.77320  0.69259  0.71043  1.0000
  H   H2529     1.0  0.97377  0.69115  0.94614  1.0000
  C   C1424     1.0  0.95430  0.71813  0.90943  1.0000
  C   C1425     1.0  0.76398  0.94324  0.65341  1.0000
  H   H2530     1.0  0.98008  0.67920  0.83689  1.0000
  C   C1426     1.0  0.96749  0.66852  0.82384  1.0000
  H   H2531     1.0  0.78292  0.81895  0.77789  1.0000
  H   H2532     1.0  0.97089  0.91449  0.82484  1.0000
  C   C1427     1.0  0.97944  0.71346  0.95485  1.0000
  H   H2533     1.0  0.97067  0.96438  0.72387  1.0000
  H   H2534     1.0  0.98289  0.89629  0.73964  1.0000
  H   H2535     1.0  0.91067  0.72376  0.93514  1.0000
  C   C1428     1.0  0.97262  0.99643  0.77782  1.0000
  H   H2536     1.0  0.94622  0.68161  0.79356  1.0000
  C   C1429     1.0  0.80146  0.54293  0.86467  1.0000
  H   H2537     1.0  0.94074  0.90976  0.83504  1.0000
  C   C1430     1.0  0.99502  0.51840  0.73878  1.0000
  C   C1431     1.0  0.93015  0.93697  0.74623  1.0000
  S   S319      1.0  0.85040  0.63228  0.98972  1.0000
  H   H2538     1.0  0.92530  0.92156  0.79462  1.0000
  C   C1432     1.0  0.89884  0.93777  0.71346  1.0000
  H   H2539     1.0  0.94303  0.95343  0.80652  1.0000
  S   S320      1.0  0.00103  0.86461  0.79039  1.0000
  C   C1433     1.0  0.97319  0.94636  0.73813  1.0000
  C   C1434     1.0  0.00004  0.54969  0.75134  1.0000
  H   H2540     1.0  0.83906  0.54864  0.86074  1.0000
  H   H2541     1.0  0.91174  0.75970  0.95174  1.0000
  H   H2542     1.0  0.85988  0.52726  0.91224  1.0000
  H   H2543     1.0  0.78772  0.82080  0.80964  1.0000
  H   H2544     1.0  0.91912  0.97809  0.72488  1.0000
  C   C1435     1.0  0.97658  0.91372  0.72627  1.0000
  H   H2545     1.0  0.82093  0.71125  0.52786  1.0000
  H   H2546     1.0  0.81616  0.74630  0.54517  1.0000
  C   C1436     1.0  0.75851  0.56375  0.91418  1.0000
  C   C1437     1.0  0.99955  0.74197  0.76257  1.0000
  H   H2547     1.0  0.97148  0.74862  0.72321  1.0000
  H   H2548     1.0  0.93548  0.94934  0.70820  1.0000
  H   H2549     1.0  0.99835  0.72341  0.98844  1.0000
  C   C1438     1.0  0.76457  0.88310  0.56239  1.0000
  H   H2550     1.0  0.93489  0.98509  0.77497  1.0000
  H   H2551     1.0  0.75904  0.62718  0.87699  1.0000
  H   H2552     1.0  0.76316  0.78252  0.74359  1.0000
  C   C1439     1.0  0.76171  0.75709  0.74407  1.0000
  C   C1440     1.0  0.78095  0.97150  0.64819  1.0000
  H   H2553     1.0  0.00299  0.71162  0.73082  1.0000
  H   H2554     1.0  0.76104  0.94056  0.60510  1.0000
  H   H2555     1.0  0.77666  0.99204  0.65943  1.0000
  H   H2556     1.0  0.76763  0.93555  0.67209  1.0000
  H   H2557     1.0  0.91791  0.50606  0.68333  1.0000
  H   H2558     1.0  0.94831  0.99745  0.74808  1.0000
  H   H2559     1.0  0.90600  0.50051  0.71285  1.0000
  H   H2560     1.0  0.98869  0.99721  0.76645  1.0000
