data_image0
_chemical_formula_structural       HCH2SC2H4CH3CH2CH3CH2SH3CHNCHC5H3CH4SHC2HCSHSH5CH5CHS2CHCHCHCH3CH2CH5CH3CH2CHS2CHCSH6C2H5C3HCHCHCH2CNHCHCSH2CH2CH4SH3C2H2NCHCSH3C4HSCHC2HSH2CH2C2H2C2H5CHFeH6CHFeH3CHSHC3H2SNC3SHSHCH2S2HC2H3C2H2CH3CH3CHCFeHCHCH2CHFeNCHC2H2C2H2CH9CH3C2H6CHCHCSCHC3HCHCFeNSH2CFeHSHC2SFeSFeHC2HS2HCHC3HCH3C2H7CFeCH10CFeHFeH3CH6C2H2NCH3SHC3H3CH2C2H2SH2CFeHCH5SFe2CFeS2HSHFeSHCHFeS2FeS2FeHFeSFeCS2C2H3C8H5C3SH2CHFeCH2CHCH2CH7FeHCH2CH8CHNH3C2H3CH2C2H2CH5CH2C2H4CH3SH3CHCHCFeCHC2HNC2HC2H2CHC3H4CHC5H5CHNH7CSC2H2CHSHSHCH3CSH3CHCH2C3HC2H3C2HSH2CFeHFeSCFeCFeNSFeS2FeSCFeHFeS2CSHFeSCFeSFeHSH2C2HC6H4CHSC5HCHC2H4SHSH5CHC7H5NH7CH5C2H5CHCH2SH5SH3C2H5CHCH3CHCH5NH2CHCH2C2H3CH3CH2CHCFeSC2H3CSC2HCHC5H6C2HNCH2SH2SH9CHCNCHCHCH2FeHFeSHFeH2SFeS2FeHFeS2FeSCFeSFeSFeCSCHC6H4SH2SHSH4CH7C2H3CH5FeHC2NC4HC3HC2H9CH3CH2C2H2C2H6CHCH3CSH2CH2CHSC4H2NHCH2C3HCH3FeH3CHSCH3C3SCHCSNH2CH3CSHC3H2SCHC2H6CH3CNC2H3NCH3CHCHCH5CH4C3HC3HCH3CHC2H4CH5CHCH3C3H2C2H3C3HCH3CH3CH5CHCHCHSH3CSHCH3C2H10CH2C3H2SCHC2H2C2HCH5CH5CHC2H2CH2C2H2CSHCH6C3HCNHC2HCH4C4H6SHCH3CH8CSH3C2SCH2C2H3CH3CH8C4H2CH2CHCHCH4C2H5CNH4C3H2CHC2H8C2HC2H3CH2C2HC2NH2CH7NH2CH2
_chemical_formula_sum              "H768 C432 S96 N24 Fe48"
_cell_length_a       39.1721
_cell_length_b       39.2523
_cell_length_c       46.2685
_cell_angle_alpha    88.367
_cell_angle_beta     88.4577
_cell_angle_gamma    119.81

_space_group_name_H-M_alt    "P 1"
_space_group_IT_number       1

loop_
  _space_group_symop_operation_xyz
  'x, y, z'

loop_
  _atom_site_type_symbol
  _atom_site_label
  _atom_site_symmetry_multiplicity
  _atom_site_fract_x
  _atom_site_fract_y
  _atom_site_fract_z
  _atom_site_occupancy
  H   H1        1.0  0.38399  0.43584  0.21630  1.0000
  C   C1        1.0  0.44157  0.07312  0.17554  1.0000
  H   H2        1.0  0.42503  0.08035  0.19179  1.0000
  H   H3        1.0  0.46864  0.13195  0.15781  1.0000
  S   S1        1.0  0.03463  0.47081  0.24023  1.0000
  C   C2        1.0  0.34405  0.42966  0.25143  1.0000
  C   C3        1.0  0.00725  0.47560  0.21141  1.0000
  H   H4        1.0  0.08086  0.42533  0.98220  1.0000
  H   H5        1.0  0.46041  0.00732  0.15780  1.0000
  H   H6        1.0  0.44885  0.05200  0.18600  1.0000
  H   H7        1.0  0.42915  0.46490  0.12064  1.0000
  C   C4        1.0  0.45878  0.43831  0.20150  1.0000
  H   H8        1.0  0.21678  0.41017  0.20799  1.0000
  H   H9        1.0  0.36431  0.45676  0.26225  1.0000
  H   H10       1.0  0.39636  0.43649  0.16811  1.0000
  C   C5        1.0  0.35484  0.43410  0.21855  1.0000
  H   H11       1.0  0.38676  0.02633  0.16030  1.0000
  H   H12       1.0  0.33512  0.43679  0.16375  1.0000
  C   C6        1.0  0.24452  0.43611  0.21420  1.0000
  H   H13       1.0  0.01859  0.42866  0.98056  1.0000
  H   H14       1.0  0.32641  0.36750  0.25600  1.0000
  H   H15       1.0  0.33419  0.40611  0.20861  1.0000
  C   C7        1.0  0.41389  0.05269  0.15125  1.0000
  H   H16       1.0  0.24442  0.43626  0.23823  1.0000
  H   H17       1.0  0.47385  0.10830  0.22291  1.0000
  S   S2        1.0  0.47071  0.39644  0.06180  1.0000
  H   H18       1.0  0.00193  0.34386  0.98949  1.0000
  H   H19       1.0  0.33882  0.39317  0.28921  1.0000
  H   H20       1.0  0.40549  0.07286  0.14031  1.0000
  C   C8        1.0  0.34690  0.39565  0.26573  1.0000
  H   H21       1.0  0.37651  0.44106  0.11811  1.0000
  N   N1        1.0  0.35619  0.46887  0.20263  1.0000
  C   C9        1.0  0.47887  0.45328  0.17435  1.0000
  H   H22       1.0  0.37747  0.40093  0.26333  1.0000
  C   C10       1.0  0.47093  0.99499  0.17410  1.0000
  C   C11       1.0  0.47905  0.11125  0.16394  1.0000
  C   C12       1.0  0.40237  0.46627  0.12725  1.0000
  C   C13       1.0  0.39794  0.46425  0.16025  1.0000
  C   C14       1.0  0.36020  0.46481  0.17059  1.0000
  H   H23       1.0  0.43923  0.40697  0.20494  1.0000
  H   H24       1.0  0.42828  0.04305  0.13498  1.0000
  H   H25       1.0  0.44842  0.45130  0.24509  1.0000
  C   C15       1.0  0.46379  0.46341  0.22433  1.0000
  H   H26       1.0  0.27758  0.40630  0.21206  1.0000
  H   H27       1.0  0.31348  0.42368  0.25556  1.0000
  H   H28       1.0  0.31735  0.47755  0.23188  1.0000
  H   H29       1.0  0.02133  0.38148  0.01594  1.0000
  S   S3        1.0  0.46724  0.00612  0.00629  1.0000
  H   H30       1.0  0.27720  0.43046  0.17853  1.0000
  C   C16       1.0  0.31914  0.47068  0.20890  1.0000
  C   C17       1.0  0.00314  0.37118  0.99667  1.0000
  H   H31       1.0  0.24528  0.46314  0.20543  1.0000
  C   C18       1.0  0.27987  0.43349  0.20227  1.0000
  S   S4        1.0  0.47914  0.05409  0.08101  1.0000
  H   H32       1.0  0.35822  0.48830  0.15797  1.0000
  S   S5        1.0  0.47145  0.41991  0.14644  1.0000
  H   H33       1.0  0.42495  0.48919  0.16824  1.0000
  H   H34       1.0  0.99124  0.41159  0.29992  1.0000
  H   H35       1.0  0.48189  0.15369  0.20777  1.0000
  H   H36       1.0  0.48346  0.14419  0.27030  1.0000
  H   H37       1.0  0.07183  0.48884  0.39897  1.0000
  C   C19       1.0  0.46671  0.47702  0.42548  1.0000
  H   H38       1.0  0.48538  0.21947  0.62014  1.0000
  H   H39       1.0  0.40617  0.38812  0.56124  1.0000
  H   H40       1.0  0.39211  0.01101  0.61801  1.0000
  H   H41       1.0  0.41609  0.06321  0.60988  1.0000
  H   H42       1.0  0.17843  0.45019  0.45488  1.0000
  C   C20       1.0  0.42637  0.46545  0.56893  1.0000
  H   H43       1.0  0.43582  0.41581  0.43974  1.0000
  S   S6        1.0  0.44066  0.46783  0.39278  1.0000
  S   S7        1.0  0.41296  0.47875  0.31274  1.0000
  C   C21       1.0  0.40162  0.03991  0.62747  1.0000
  H   H44       1.0  0.42893  0.44881  0.58789  1.0000
  C   C22       1.0  0.40461  0.40357  0.54125  1.0000
  H   H45       1.0  0.43008  0.46113  0.52129  1.0000
  C   C23       1.0  0.45854  0.44503  0.44469  1.0000
  H   H46       1.0  0.08981  0.42442  0.42086  1.0000
  C   C24       1.0  0.07160  0.43528  0.41057  1.0000
  H   H47       1.0  0.47326  0.42524  0.48423  1.0000
  H   H48       1.0  0.04340  0.42333  0.42349  1.0000
  H   H49       1.0  0.39489  0.45778  0.56974  1.0000
  C   C25       1.0  0.09300  0.48094  0.40814  1.0000
  H   H50       1.0  0.46398  0.45243  0.54074  1.0000
  H   H51       1.0  0.37406  0.39808  0.53960  1.0000
  C   C26       1.0  0.43370  0.44769  0.54152  1.0000
  H   H52       1.0  0.02813  0.46708  0.50824  1.0000
  H   H53       1.0  0.37514  0.04016  0.63639  1.0000
  H   H54       1.0  0.41180  0.39117  0.52228  1.0000
  H   H55       1.0  0.08912  0.42887  0.36677  1.0000
  H   H56       1.0  0.04761  0.38527  0.38324  1.0000
  C   C27       1.0  0.06189  0.41779  0.38083  1.0000
  H   H57       1.0  0.41601  0.47349  0.62728  1.0000
  H   H58       1.0  0.11841  0.45874  0.45930  1.0000
  H   H59       1.0  0.04125  0.42527  0.37028  1.0000
  C   C28       1.0  0.47976  0.45030  0.47001  1.0000
  H   H60       1.0  0.21903  0.48269  0.43037  1.0000
  H   H61       1.0  0.05813  0.45815  0.46265  1.0000
  C   C29       1.0  0.19559  0.48080  0.44554  1.0000
  H   H62       1.0  0.47931  0.33636  0.46701  1.0000
  S   S8        1.0  0.46930  0.42204  0.63916  1.0000
  S   S9        1.0  0.06700  0.48188  0.32027  1.0000
  C   C30       1.0  0.13536  0.48924  0.44955  1.0000
  H   H63       1.0  0.99712  0.36773  0.59942  1.0000
  C   C31       1.0  0.99284  0.46489  0.40386  1.0000
  S   S10       1.0  0.48212  0.02254  0.49936  1.0000
  H   H64       1.0  0.00198  0.45353  0.38610  1.0000
  H   H65       1.0  0.48329  0.12406  0.46919  1.0000
  H   H66       1.0  0.15687  0.47155  0.41125  1.0000
  H   H67       1.0  0.45516  0.04425  0.64145  1.0000
  H   H68       1.0  0.99448  0.37702  0.88065  1.0000
  H   H69       1.0  0.13298  0.41345  0.96098  1.0000
  C   C32       1.0  0.47383  0.99089  0.97137  1.0000
  C   C33       1.0  0.48012  0.13427  0.70099  1.0000
  H   H70       1.0  0.45796  0.10893  0.64591  1.0000
  H   H71       1.0  0.10968  0.39008  0.92877  1.0000
  H   H72       1.0  0.46334  0.42118  0.91080  1.0000
  H   H73       1.0  0.42857  0.02044  0.76162  1.0000
  H   H74       1.0  0.41723  0.46262  0.72138  1.0000
  C   C34       1.0  0.46051  0.06501  0.71079  1.0000
  C   C35       1.0  0.99073  0.48289  0.71944  1.0000
  C   C36       1.0  0.48074  0.44861  0.95176  1.0000
  H   H75       1.0  0.43834  0.44926  0.77023  1.0000
  C   C37       1.0  0.39834  0.38855  0.76367  1.0000
  H   H76       1.0  0.45101  0.13054  0.70804  1.0000
  C   C38       1.0  0.43516  0.42052  0.77714  1.0000
  H   H77       1.0  0.41459  0.02200  0.66792  1.0000
  C   C39       1.0  0.44314  0.47006  0.70780  1.0000
  H   H78       1.0  0.17875  0.40417  0.92986  1.0000
  H   H79       1.0  0.00015  0.39148  0.95395  1.0000
  C   C40       1.0  0.40595  0.01622  0.74592  1.0000
  N   N2        1.0  0.08173  0.44375  0.93763  1.0000
  H   H80       1.0  0.03715  0.40151  0.85568  1.0000
  C   C41       1.0  0.41995  0.05280  0.72593  1.0000
  H   H81       1.0  0.01738  0.35051  0.86646  1.0000
  C   C42       1.0  0.45598  0.47205  0.91183  1.0000
  S   S11       1.0  0.04380  0.47848  0.83323  1.0000
  H   H82       1.0  0.40194  0.39106  0.73968  1.0000
  H   H83       1.0  0.37257  0.39176  0.77006  1.0000
  C   C43       1.0  0.01986  0.40307  0.97225  1.0000
  H   H84       1.0  0.13297  0.46319  0.90839  1.0000
  H   H85       1.0  0.41357  0.41862  0.68247  1.0000
  C   C44       1.0  0.44113  0.44516  0.68560  1.0000
  H   H86       1.0  0.03611  0.36687  0.91632  1.0000
  H   H87       1.0  0.07357  0.45264  0.89252  1.0000
  H   H88       1.0  0.39231  0.35894  0.77140  1.0000
  H   H89       1.0  0.14468  0.47658  0.94444  1.0000
  S   S12       1.0  0.14659  0.48254  0.84739  1.0000
  H   H90       1.0  0.41901  0.08875  0.67221  1.0000
  H   H91       1.0  0.42993  0.41649  0.80098  1.0000
  H   H92       1.0  0.46541  0.38795  0.76798  1.0000
  C   C45       1.0  0.46641  0.44509  0.92356  1.0000
  C   C46       1.0  0.17201  0.42760  0.92347  1.0000
  H   H93       1.0  0.39686  0.04590  0.71016  1.0000
  H   H94       1.0  0.07835  0.39337  0.89113  1.0000
  N   N3        1.0  0.47469  0.09741  0.68752  1.0000
  C   C47       1.0  0.05032  0.39093  0.89939  1.0000
  H   H95       1.0  0.06161  0.38609  0.95853  1.0000
  C   C48       1.0  0.02310  0.37940  0.87403  1.0000
  S   S13       1.0  0.39585  0.47820  0.80237  1.0000
  H   H96       1.0  0.45981  0.03850  0.70214  1.0000
  H   H97       1.0  0.48452  0.16914  0.66132  1.0000
  H   H98       1.0  0.17110  0.42886  0.89949  1.0000
  C   C49       1.0  0.05820  0.43067  0.91086  1.0000
  C   C50       1.0  0.06264  0.41417  0.96291  1.0000
  C   C51       1.0  0.02049  0.48971  0.69876  1.0000
  C   C52       1.0  0.12350  0.45222  0.93129  1.0000
  H   H99       1.0  0.02958  0.42972  0.91428  1.0000
  S   S14       1.0  0.44053  0.46769  0.87524  1.0000
  C   C53       1.0  0.01290  0.48709  0.66891  1.0000
  H   H100      1.0  0.48176  0.07383  0.72833  1.0000
  C   C54       1.0  0.13220  0.41815  0.93725  1.0000
  C   C55       1.0  0.47423  0.45436  0.66729  1.0000
  H   H101      1.0  0.42217  0.07681  0.73928  1.0000
  S   S15       1.0  0.99806  0.48526  0.75760  1.0000
  H   H102      1.0  0.47383  0.20230  0.70274  1.0000
  H   H103      1.0  0.38386  0.99409  0.88612  1.0000
  C   C56       1.0  0.44514  0.08696  0.66434  1.0000
  H   H104      1.0  0.47747  0.40034  0.81769  1.0000
  H   H105      1.0  0.47678  0.42837  0.74339  1.0000
  C   C57       1.0  0.08372  0.48150  0.94635  1.0000
  C   C58       1.0  0.47249  0.41923  0.76679  1.0000
  H   H106      1.0  0.37846  0.00975  0.75818  1.0000
  H   H107      1.0  0.19591  0.45613  0.93060  1.0000
  C   C59       1.0  0.43025  0.04631  0.65128  1.0000
  C   C60       1.0  0.48481  0.47921  0.96884  1.0000
  H   H108      1.0  0.05372  0.47732  0.95027  1.0000
  H   H109      1.0  0.21575  0.48900  0.87287  1.0000
  H   H110      1.0  0.39951  0.99051  0.73295  1.0000
  H   H111      1.0  0.41127  0.84791  0.18499  1.0000
  H   H112      1.0  0.42497  0.58536  0.22856  1.0000
  C   C61       1.0  0.32645  0.90972  0.22774  1.0000
  H   H113      1.0  0.44533  0.60662  0.19297  1.0000
  Fe  Fe1       1.0  0.46259  0.53345  0.29077  1.0000
  H   H114      1.0  0.33598  0.66379  0.26118  1.0000
  H   H115      1.0  0.27776  0.79634  0.20192  1.0000
  H   H116      1.0  0.28914  0.61970  0.23587  1.0000
  H   H117      1.0  0.33950  0.81653  0.19305  1.0000
  H   H118      1.0  0.02662  0.53695  0.21564  1.0000
  H   H119      1.0  0.38444  0.51163  0.23523  1.0000
  C   C62       1.0  0.46116  0.96014  0.22126  1.0000
  H   H120      1.0  0.41898  0.87115  0.21899  1.0000
  Fe  Fe2       1.0  0.43674  0.90097  0.29048  1.0000
  H   H121      1.0  0.30234  0.86408  0.19657  1.0000
  H   H122      1.0  0.31987  0.49546  0.19613  1.0000
  H   H123      1.0  0.27389  0.89519  0.01572  1.0000
  C   C63       1.0  0.32078  0.66677  0.28056  1.0000
  H   H124      1.0  0.33779  0.93552  0.18370  1.0000
  S   S16       1.0  0.07333  0.56299  0.29194  1.0000
  H   H125      1.0  0.21667  0.78149  0.25149  1.0000
  C   C64       1.0  0.44809  0.97678  0.19993  1.0000
  C   C65       1.0  0.35819  0.84248  0.20561  1.0000
  C   C66       1.0  0.33966  0.83931  0.23635  1.0000
  H   H126      1.0  0.24176  0.85133  0.99743  1.0000
  H   H127      1.0  0.39536  0.81818  0.21834  1.0000
  S   S17       1.0  0.42809  0.56535  0.28975  1.0000
  N   N4        1.0  0.29912  0.83505  0.23785  1.0000
  C   C67       1.0  0.29758  0.86697  0.22000  1.0000
  C   C68       1.0  0.31712  0.85910  0.29059  1.0000
  C   C69       1.0  0.43563  0.58019  0.20759  1.0000
  S   S18       1.0  0.14071  0.53907  0.27546  1.0000
  H   H128      1.0  0.34726  0.96961  0.21173  1.0000
  S   S19       1.0  0.43186  0.93915  0.25399  1.0000
  H   H129      1.0  0.31282  0.87466  0.98607  1.0000
  C   C70       1.0  0.40274  0.54420  0.19404  1.0000
  H   H130      1.0  0.36282  0.86938  0.19348  1.0000
  H   H131      1.0  0.36720  0.74546  0.26402  1.0000
  S   S20       1.0  0.40685  0.83519  0.28729  1.0000
  S   S21       1.0  0.18697  0.65015  0.27622  1.0000
  H   H132      1.0  0.29711  0.93550  0.20344  1.0000
  C   C71       1.0  0.32701  0.93925  0.20519  1.0000
  C   C72       1.0  0.25924  0.71515  0.28274  1.0000
  H   H133      1.0  0.34025  0.57490  0.28045  1.0000
  H   H134      1.0  0.35698  0.91533  0.22873  1.0000
  H   H135      1.0  0.20596  0.71965  0.23049  1.0000
  C   C73       1.0  0.20156  0.74137  0.21757  1.0000
  C   C74       1.0  0.39834  0.84504  0.20719  1.0000
  H   H136      1.0  0.26211  0.84229  0.26998  1.0000
  H   H137      1.0  0.26769  0.86360  0.22200  1.0000
  C   C75       1.0  0.28550  0.83402  0.26901  1.0000
  H   H138      1.0  0.02550  0.58765  0.26004  1.0000
  H   H139      1.0  0.36129  0.86567  0.24726  1.0000
  H   H140      1.0  0.31658  0.76636  0.28726  1.0000
  C   C76       1.0  0.00806  0.51091  0.20413  1.0000
  H   H141      1.0  0.21004  0.54289  0.24374  1.0000
  H   H142      1.0  0.39986  0.72507  0.26471  1.0000
  H   H143      1.0  0.33727  0.88951  0.28208  1.0000
  C   C77       1.0  0.38221  0.73423  0.27821  1.0000
  H   H144      1.0  0.33899  0.81412  0.24854  1.0000
  C   C78       1.0  0.28913  0.74505  0.29820  1.0000
  Fe  Fe3       1.0  0.07425  0.51020  0.27543  1.0000
  H   H145      1.0  0.26389  0.71346  0.25981  1.0000
  C   C79       1.0  0.31845  0.60753  0.30493  1.0000
  H   H146      1.0  0.21989  0.80277  0.21584  1.0000
  C   C80       1.0  0.27117  0.79605  0.22547  1.0000
  H   H147      1.0  0.37754  0.54931  0.19170  1.0000
  H   H148      1.0  0.31706  0.91583  0.24887  1.0000
  C   C81       1.0  0.23072  0.57171  0.23265  1.0000
  H   H149      1.0  0.21625  0.58988  0.23107  1.0000
  Fe  Fe4       1.0  0.13921  0.59024  0.29500  1.0000
  N   N5        1.0  0.29564  0.62793  0.29707  1.0000
  C   C82       1.0  0.26038  0.60215  0.27982  1.0000
  H   H150      1.0  0.27518  0.77234  0.23570  1.0000
  C   C83       1.0  0.35232  0.70006  0.29812  1.0000
  C   C84       1.0  0.22655  0.78262  0.22861  1.0000
  H   H151      1.0  0.42039  0.93503  0.97723  1.0000
  H   H152      1.0  0.16987  0.73252  0.21975  1.0000
  C   C85       1.0  0.22367  0.68675  0.29683  1.0000
  C   C86       1.0  0.39000  0.63104  0.28711  1.0000
  H   H153      1.0  0.41391  0.54261  0.17212  1.0000
  H   H154      1.0  0.28063  0.57247  0.25033  1.0000
  C   C87       1.0  0.39066  0.50607  0.21274  1.0000
  H   H155      1.0  0.24904  0.89863  0.98452  1.0000
  H   H156      1.0  0.33519  0.84523  0.29547  1.0000
  H   H157      1.0  0.30177  0.67790  0.27182  1.0000
  H   H158      1.0  0.00483  0.58720  0.29577  1.0000
  H   H159      1.0  0.27143  0.80350  0.27886  1.0000
  H   H160      1.0  0.24185  0.57311  0.29131  1.0000
  H   H161      1.0  0.23761  0.56629  0.21040  1.0000
  H   H162      1.0  0.99414  0.60857  0.26476  1.0000
  H   H163      1.0  0.24127  0.61569  0.27791  1.0000
  C   C88       1.0  0.34645  0.60574  0.28107  1.0000
  H   H164      1.0  0.42015  0.97565  0.20342  1.0000
  H   H165      1.0  0.40821  0.62697  0.27026  1.0000
  H   H166      1.0  0.46142  0.57621  0.21113  1.0000
  C   C89       1.0  0.26355  0.88317  0.99422  1.0000
  C   C90       1.0  0.26861  0.59275  0.24900  1.0000
  H   H167      1.0  0.20926  0.74061  0.19441  1.0000
  H   H168      1.0  0.40258  0.75841  0.29156  1.0000
  H   H169      1.0  0.39915  0.66264  0.28655  1.0000
  H   H170      1.0  0.34236  0.61355  0.25889  1.0000
  H   H171      1.0  0.41724  0.50292  0.21429  1.0000
  H   H172      1.0  0.98963  0.50797  0.26438  1.0000
  C   C91       1.0  0.99920  0.58439  0.27230  1.0000
  H   H173      1.0  0.40561  0.49426  0.11813  1.0000
  C   C92       1.0  0.25218  0.49440  0.28945  1.0000
  H   H174      1.0  0.19694  0.49403  0.28627  1.0000
  C   C93       1.0  0.21890  0.49544  0.30063  1.0000
  S   S22       1.0  0.32067  0.49161  0.29282  1.0000
  C   C94       1.0  0.28062  0.49539  0.30788  1.0000
  H   H175      1.0  0.25577  0.49260  0.26641  1.0000
  C   C95       1.0  0.47533  0.75707  0.30814  1.0000
  C   C96       1.0  0.04502  0.58014  0.62305  1.0000
  C   C97       1.0  0.99952  0.50338  0.40156  1.0000
  H   H176      1.0  0.99023  0.54643  0.42289  1.0000
  C   C98       1.0  0.46356  0.68467  0.33228  1.0000
  H   H177      1.0  0.14984  0.50784  0.46807  1.0000
  C   C99       1.0  0.04541  0.49947  0.50397  1.0000
  Fe  Fe5       1.0  0.45019  0.58653  0.33351  1.0000
  N   N6        1.0  0.45320  0.50908  0.57158  1.0000
  S   S23       1.0  0.39953  0.53451  0.35768  1.0000
  H   H178      1.0  0.10158  0.50284  0.49866  1.0000
  H   H179      1.0  0.30480  0.65308  0.33933  1.0000
  C   C100      1.0  0.13311  0.60880  0.41381  1.0000
  Fe  Fe6       1.0  0.06828  0.53562  0.33669  1.0000
  H   H180      1.0  0.45185  0.55548  0.59506  1.0000
  S   S24       1.0  0.02371  0.53519  0.37030  1.0000
  H   H181      1.0  0.20985  0.50122  0.46314  1.0000
  C   C101      1.0  0.41823  0.52533  0.53110  1.0000
  C   C102      1.0  0.44323  0.70257  0.34403  1.0000
  S   S25       1.0  0.13418  0.56818  0.34096  1.0000
  Fe  Fe7       1.0  0.38135  0.83157  0.33196  1.0000
  S   S26       1.0  0.31899  0.78588  0.34792  1.0000
  Fe  Fe8       1.0  0.45997  0.89775  0.35380  1.0000
  H   H182      1.0  0.43261  0.75159  0.34090  1.0000
  C   C103      1.0  0.24870  0.60014  0.34326  1.0000
  C   C104      1.0  0.42530  0.54320  0.50022  1.0000
  H   H183      1.0  0.26604  0.62682  0.38499  1.0000
  S   S27       1.0  0.40753  0.89732  0.33436  1.0000
  S   S28       1.0  0.43136  0.83162  0.35473  1.0000
  H   H184      1.0  0.15654  0.61529  0.39694  1.0000
  C   C105      1.0  0.44834  0.73811  0.33160  1.0000
  H   H185      1.0  0.14811  0.56098  0.44806  1.0000
  C   C106      1.0  0.21815  0.68854  0.32662  1.0000
  C   C107      1.0  0.24773  0.71894  0.34197  1.0000
  C   C108      1.0  0.28329  0.74744  0.32784  1.0000
  H   H186      1.0  0.33817  0.71186  0.31279  1.0000
  C   C109      1.0  0.23932  0.61233  0.37213  1.0000
  H   H187      1.0  0.19085  0.66696  0.33773  1.0000
  H   H188      1.0  0.24293  0.72054  0.36492  1.0000
  H   H189      1.0  0.42411  0.68931  0.36322  1.0000
  C   C110      1.0  0.42974  0.76890  0.41402  1.0000
  C   C111      1.0  0.10678  0.56447  0.41955  1.0000
  H   H190      1.0  0.21659  0.58578  0.38467  1.0000
  H   H191      1.0  0.29729  0.49862  0.35207  1.0000
  H   H192      1.0  0.36818  0.68923  0.31166  1.0000
  H   H193      1.0  0.22070  0.58515  0.33193  1.0000
  H   H194      1.0  0.46599  0.74389  0.40478  1.0000
  H   H195      1.0  0.25893  0.57894  0.34799  1.0000
  H   H196      1.0  0.43386  0.98764  0.45102  1.0000
  C   C112      1.0  0.13112  0.54518  0.42923  1.0000
  Fe  Fe9       1.0  0.43786  0.50655  0.35527  1.0000
  C   C113      1.0  0.45729  0.53169  0.54355  1.0000
  H   H197      1.0  0.08377  0.55995  0.43615  1.0000
  H   H198      1.0  0.41497  0.76054  0.39315  1.0000
  H   H199      1.0  0.32100  0.87744  0.33480  1.0000
  H   H200      1.0  0.43885  0.95169  0.40914  1.0000
  H   H201      1.0  0.06937  0.60559  0.61053  1.0000
  H   H202      1.0  0.22771  0.63272  0.36850  1.0000
  H   H203      1.0  0.15361  0.55222  0.41143  1.0000
  H   H204      1.0  0.40565  0.53976  0.54458  1.0000
  H   H205      1.0  0.39719  0.53899  0.49190  1.0000
  H   H206      1.0  0.41118  0.74559  0.43075  1.0000
  C   C114      1.0  0.45871  0.98286  0.44870  1.0000
  Fe  Fe10      1.0  0.37952  0.51195  0.31369  1.0000
  H   H207      1.0  0.27781  0.83119  0.32883  1.0000
  Fe  Fe11      1.0  0.13328  0.51595  0.32144  1.0000
  H   H208      1.0  0.14691  0.62312  0.43398  1.0000
  H   H209      1.0  0.28114  0.87681  0.31583  1.0000
  H   H210      1.0  0.40501  0.51462  0.59002  1.0000
  C   C115      1.0  0.43404  0.50605  0.62602  1.0000
  H   H211      1.0  0.04913  0.55420  0.62145  1.0000
  H   H212      1.0  0.02678  0.50911  0.49264  1.0000
  H   H213      1.0  0.11504  0.62150  0.40599  1.0000
  H   H214      1.0  0.09232  0.55209  0.39926  1.0000
  H   H215      1.0  0.43660  0.52858  0.48565  1.0000
  H   H216      1.0  0.47529  0.56382  0.54627  1.0000
  C   C116      1.0  0.43577  0.52281  0.59485  1.0000
  C   C117      1.0  0.47051  0.77276  0.41135  1.0000
  H   H217      1.0  0.01677  0.57294  0.61321  1.0000
  H   H218      1.0  0.48425  0.79851  0.36758  1.0000
  N   N7        1.0  0.10819  0.50136  0.43595  1.0000
  C   C118      1.0  0.28028  0.63630  0.32479  1.0000
  H   H219      1.0  0.09896  0.54359  0.48225  1.0000
  H   H220      1.0  0.43194  0.79696  0.42047  1.0000
  H   H221      1.0  0.26743  0.65539  0.31995  1.0000
  S   S29       1.0  0.46302  0.64496  0.35189  1.0000
  H   H222      1.0  0.18756  0.52209  0.41953  1.0000
  C   C119      1.0  0.24208  0.49838  0.34887  1.0000
  C   C120      1.0  0.46141  0.96233  0.42487  1.0000
  C   C121      1.0  0.27572  0.49800  0.33764  1.0000
  H   H223      1.0  0.05285  0.51369  0.52506  1.0000
  H   H224      1.0  0.48286  0.77864  0.43311  1.0000
  H   H225      1.0  0.44686  0.57521  0.49967  1.0000
  C   C122      1.0  0.08314  0.51117  0.48578  1.0000
  H   H226      1.0  0.33578  0.62022  0.32439  1.0000
  H   H227      1.0  0.46385  0.51441  0.63322  1.0000
  C   C123      1.0  0.29793  0.86120  0.31920  1.0000
  C   C124      1.0  0.21353  0.49712  0.33045  1.0000
  H   H228      1.0  0.23812  0.49952  0.37197  1.0000
  H   H229      1.0  0.05102  0.49505  0.44625  1.0000
  S   S30       1.0  0.17120  0.49660  0.34568  1.0000
  H   H230      1.0  0.29750  0.57654  0.31222  1.0000
  H   H231      1.0  0.47408  0.52539  0.52672  1.0000
  C   C125      1.0  0.16889  0.49189  0.42916  1.0000
  Fe  Fe12      1.0  0.45843  0.83897  0.31019  1.0000
  H   H232      1.0  0.39577  0.49382  0.53043  1.0000
  C   C126      1.0  0.07353  0.49019  0.45675  1.0000
  H   H233      1.0  0.11720  0.49168  0.39118  1.0000
  H   H234      1.0  0.39603  0.62209  0.30850  1.0000
  H   H235      1.0  0.33228  0.72725  0.85386  1.0000
  H   H236      1.0  0.12390  0.57913  0.92015  1.0000
  H   H237      1.0  0.39199  0.81087  0.92040  1.0000
  S   S31       1.0  0.40941  0.56540  0.78218  1.0000
  Fe  Fe13      1.0  0.42485  0.50451  0.84413  1.0000
  Fe  Fe14      1.0  0.44374  0.53326  0.77945  1.0000
  C   C127      1.0  0.45513  0.68607  0.82941  1.0000
  Fe  Fe15      1.0  0.43508  0.58504  0.82533  1.0000
  S   S32       1.0  0.45195  0.64315  0.84584  1.0000
  S   S33       1.0  0.38720  0.53255  0.85111  1.0000
  H   H238      1.0  0.37763  0.86115  0.90122  1.0000
  S   S34       1.0  0.11322  0.53462  0.78406  1.0000
  H   H239      1.0  0.11794  0.72981  0.71063  1.0000
  Fe  Fe16      1.0  0.05416  0.53330  0.85453  1.0000
  S   S35       1.0  0.05471  0.56406  0.81239  1.0000
  H   H240      1.0  0.99738  0.56495  0.76495  1.0000
  C   C128      1.0  0.11644  0.72345  0.68729  1.0000
  H   H241      1.0  0.38463  0.74752  0.84627  1.0000
  Fe  Fe17      1.0  0.12001  0.58659  0.80820  1.0000
  S   S36       1.0  0.16653  0.64601  0.78774  1.0000
  S   S37       1.0  0.12012  0.56106  0.85196  1.0000
  Fe  Fe18      1.0  0.36616  0.83159  0.83176  1.0000
  S   S38       1.0  0.38881  0.82964  0.78737  1.0000
  S   S39       1.0  0.30470  0.78815  0.85114  1.0000
  Fe  Fe19      1.0  0.44502  0.90152  0.84810  1.0000
  H   H242      1.0  0.14650  0.59553  0.67937  1.0000
  Fe  Fe20      1.0  0.41895  0.89569  0.78491  1.0000
  S   S40       1.0  0.41457  0.92599  0.74313  1.0000
  Fe  Fe21      1.0  0.44231  0.83687  0.80932  1.0000
  C   C129      1.0  0.48490  0.61253  0.93874  1.0000
  S   S41       1.0  0.39128  0.89735  0.82794  1.0000
  S   S42       1.0  0.41837  0.83562  0.85442  1.0000
  C   C130      1.0  0.45914  0.74977  0.83525  1.0000
  C   C131      1.0  0.04867  0.59877  0.71641  1.0000
  H   H243      1.0  0.32794  0.61933  0.88602  1.0000
  H   H244      1.0  0.27471  0.62047  0.80177  1.0000
  H   H245      1.0  0.31977  0.57001  0.83343  1.0000
  C   C132      1.0  0.19900  0.49336  0.80164  1.0000
  C   C133      1.0  0.11050  0.59798  0.71633  1.0000
  C   C134      1.0  0.20632  0.68327  0.80609  1.0000
  C   C135      1.0  0.20499  0.68549  0.83619  1.0000
  C   C136      1.0  0.23566  0.71741  0.84968  1.0000
  C   C137      1.0  0.26831  0.74708  0.83335  1.0000
  C   C138      1.0  0.27030  0.74413  0.80336  1.0000
  C   C139      1.0  0.23927  0.71261  0.78981  1.0000
  H   H246      1.0  0.17971  0.66331  0.84898  1.0000
  H   H247      1.0  0.23378  0.71940  0.87288  1.0000
  H   H248      1.0  0.29511  0.76679  0.79048  1.0000
  H   H249      1.0  0.24056  0.71128  0.76651  1.0000
  H   H250      1.0  0.28565  0.57407  0.87596  1.0000
  C   C140      1.0  0.44499  0.95384  0.96247  1.0000
  C   C141      1.0  0.45118  0.95383  0.71526  1.0000
  C   C142      1.0  0.37899  0.82353  0.93529  1.0000
  S   S43       1.0  0.02459  0.53834  0.89657  1.0000
  H   H251      1.0  0.02834  0.60506  0.70420  1.0000
  H   H252      1.0  0.17178  0.63833  0.70045  1.0000
  C   C143      1.0  0.45888  0.50186  0.92923  1.0000
  H   H253      1.0  0.38564  0.80103  0.72778  1.0000
  Fe  Fe22      1.0  0.04763  0.51049  0.79036  1.0000
  C   C144      1.0  0.40096  0.97862  0.88833  1.0000
  H   H254      1.0  0.33367  0.81434  0.90678  1.0000
  H   H255      1.0  0.12099  0.66903  0.71972  1.0000
  C   C145      1.0  0.34715  0.70105  0.81824  1.0000
  H   H256      1.0  0.20408  0.61180  0.86185  1.0000
  C   C146      1.0  0.26421  0.85677  0.85078  1.0000
  H   H257      1.0  0.01178  0.60983  0.78306  1.0000
  H   H258      1.0  0.40322  0.84724  0.94689  1.0000
  C   C147      1.0  0.35560  0.73588  0.83646  1.0000
  H   H259      1.0  0.26958  0.62049  0.86853  1.0000
  H   H260      1.0  0.36557  0.93343  0.93673  1.0000
  H   H261      1.0  0.08272  0.55160  0.94548  1.0000
  H   H262      1.0  0.45546  0.81471  0.72629  1.0000
  H   H263      1.0  0.44969  0.52192  0.92100  1.0000
  H   H264      1.0  0.42203  0.58331  0.93125  1.0000
  H   H265      1.0  0.33194  0.57139  0.73643  1.0000
  Fe  Fe23      1.0  0.11034  0.50796  0.82845  1.0000
  H   H266      1.0  0.28000  0.82532  0.90116  1.0000
  C   C148      1.0  0.08117  0.59667  0.67000  1.0000
  H   H267      1.0  0.32199  0.86035  0.88023  1.0000
  H   H268      1.0  0.39194  0.92022  0.89020  1.0000
  C   C149      1.0  0.00969  0.59719  0.76157  1.0000
  H   H269      1.0  0.04923  0.49652  0.70576  1.0000
  H   H270      1.0  0.13973  0.66738  0.68503  1.0000
  H   H271      1.0  0.35606  0.92633  0.87078  1.0000
  H   H272      1.0  0.37595  0.84006  0.71773  1.0000
  H   H273      1.0  0.07007  0.61145  0.76075  1.0000
  H   H274      1.0  0.06175  0.64828  0.74404  1.0000
  H   H275      1.0  0.03323  0.56613  0.71949  1.0000
  H   H276      1.0  0.44241  0.86951  0.73510  1.0000
  C   C150      1.0  0.41573  0.52174  0.64770  1.0000
  H   H277      1.0  0.31638  0.83189  0.95219  1.0000
  N   N8        1.0  0.31786  0.87765  0.92364  1.0000
  H   H278      1.0  0.45393  0.82173  0.68818  1.0000
  H   H279      1.0  0.07900  0.56723  0.67092  1.0000
  H   H280      1.0  0.37493  0.61669  0.74491  1.0000
  C   C151      1.0  0.15027  0.60635  0.70159  1.0000
  C   C152      1.0  0.45629  0.69197  0.79936  1.0000
  H   H281      1.0  0.00506  0.54673  0.95527  1.0000
  H   H282      1.0  0.01714  0.56458  0.66560  1.0000
  H   H283      1.0  0.48567  0.78959  0.68229  1.0000
  C   C153      1.0  0.45942  0.72691  0.78735  1.0000
  H   H284      1.0  0.48391  0.58418  0.94243  1.0000
  H   H285      1.0  0.14682  0.73555  0.67772  1.0000
  C   C154      1.0  0.11107  0.55483  0.93706  1.0000
  C   C155      1.0  0.45700  0.71531  0.84724  1.0000
  H   H286      1.0  0.24848  0.82409  0.85163  1.0000
  H   H287      1.0  0.36078  0.87736  0.95249  1.0000
  C   C156      1.0  0.16877  0.58631  0.71872  1.0000
  H   H288      1.0  0.29510  0.57502  0.77939  1.0000
  H   H289      1.0  0.47463  0.61213  0.89296  1.0000
  H   H290      1.0  0.14886  0.55394  0.72026  1.0000
  H   H291      1.0  0.26564  0.57870  0.82337  1.0000
  H   H292      1.0  0.20615  0.56929  0.85051  1.0000
  C   C157      1.0  0.46059  0.75587  0.80522  1.0000
  H   H293      1.0  0.33458  0.66729  0.85883  1.0000
  H   H294      1.0  0.37788  0.67598  0.84022  1.0000
  C   C158      1.0  0.26092  0.49319  0.80781  1.0000
  C   C159      1.0  0.43764  0.85669  0.71353  1.0000
  H   H295      1.0  0.98931  0.60267  0.74859  1.0000
  H   H296      1.0  0.35593  0.75939  0.82251  1.0000
  H   H297      1.0  0.32241  0.56353  0.91441  1.0000
  H   H298      1.0  0.20753  0.60467  0.82375  1.0000
  C   C160      1.0  0.29916  0.85758  0.89642  1.0000
  H   H299      1.0  0.37566  0.64455  0.79495  1.0000
  H   H300      1.0  0.08548  0.51158  0.90528  1.0000
  H   H301      1.0  0.32313  0.53929  0.88220  1.0000
  S   S44       1.0  0.48287  0.53758  0.73968  1.0000
  H   H302      1.0  0.10714  0.61552  0.65512  1.0000
  H   H303      1.0  0.40817  0.94628  0.68422  1.0000
  H   H304      1.0  0.43425  0.59412  0.96839  1.0000
  C   C161      1.0  0.33358  0.56841  0.89149  1.0000
  H   H305      1.0  0.36632  0.58475  0.89099  1.0000
  C   C162      1.0  0.31832  0.59178  0.87469  1.0000
  H   H306      1.0  0.29175  0.86804  0.83705  1.0000
  C   C163      1.0  0.46368  0.83765  0.70851  1.0000
  Fe  Fe24      1.0  0.36288  0.51153  0.80757  1.0000
  C   C164      1.0  0.33795  0.85736  0.93786  1.0000
  H   H307      1.0  0.36583  0.61035  0.84190  1.0000
  C   C165      1.0  0.43927  0.95947  0.68795  1.0000
  C   C166      1.0  0.34666  0.66737  0.83692  1.0000
  H   H308      1.0  0.32984  0.93770  0.91698  1.0000
  N   N9        1.0  0.32539  0.62723  0.82460  1.0000
  C   C167      1.0  0.34618  0.92123  0.91817  1.0000
  C   C168      1.0  0.33354  0.59953  0.84258  1.0000
  H   H309      1.0  0.33031  0.61654  0.73507  1.0000
  C   C169      1.0  0.09223  0.67919  0.68345  1.0000
  C   C170      1.0  0.39395  0.82625  0.71217  1.0000
  H   H310      1.0  0.37072  0.71148  0.80078  1.0000
  H   H311      1.0  0.09083  0.67476  0.65984  1.0000
  C   C171      1.0  0.44341  0.60547  0.94559  1.0000
  H   H312      1.0  0.31877  0.69138  0.80784  1.0000
  C   C172      1.0  0.99752  0.50277  0.92523  1.0000
  C   C173      1.0  0.21713  0.60097  0.84544  1.0000
  C   C174      1.0  0.34305  0.63086  0.79444  1.0000
  H   H313      1.0  0.33748  0.65074  0.78021  1.0000
  H   H314      1.0  0.27069  0.65583  0.84275  1.0000
  H   H315      1.0  0.33898  0.57385  0.78849  1.0000
  H   H316      1.0  0.17507  0.59755  0.74085  1.0000
  C   C175      1.0  0.10441  0.51682  0.92393  1.0000
  H   H317      1.0  0.38714  0.81529  0.69001  1.0000
  C   C176      1.0  0.26178  0.62437  0.84638  1.0000
  C   C177      1.0  0.28159  0.61148  0.82292  1.0000
  C   C178      1.0  0.32774  0.59207  0.77854  1.0000
  C   C179      1.0  0.35689  0.83954  0.91788  1.0000
  C   C180      1.0  0.34222  0.59989  0.74676  1.0000
  H   H318      1.0  0.03948  0.61573  0.65501  1.0000
  H   H319      1.0  0.46093  0.73154  0.76408  1.0000
  H   H320      1.0  0.46066  0.77207  0.84923  1.0000
  H   H321      1.0  0.24498  0.86087  0.89365  1.0000
  H   H322      1.0  0.06215  0.66893  0.69277  1.0000
  C   C181      1.0  0.27351  0.87205  0.88126  1.0000
  H   H323      1.0  0.24518  0.86676  0.84057  1.0000
  N   N10       1.0  0.08758  0.61324  0.69985  1.0000
  H   H324      1.0  0.19701  0.59270  0.70770  1.0000
  H   H325      1.0  0.47570  0.52880  0.97054  1.0000
  H   H326      1.0  0.09205  0.56559  0.72080  1.0000
  H   H327      1.0  0.13341  0.52166  0.91570  1.0000
  H   H328      1.0  0.11795  0.61085  0.73789  1.0000
  H   H329      1.0  0.43365  0.55427  0.64807  1.0000
  H   H330      1.0  0.42603  0.91215  0.92865  1.0000
  C   C182      1.0  0.11171  0.65750  0.69784  1.0000
  S   S45       1.0  0.47423  0.55831  0.82087  1.0000
  C   C183      1.0  0.05059  0.61619  0.74638  1.0000
  C   C184      1.0  0.37343  0.93407  0.89045  1.0000
  H   H331      1.0  0.45528  0.66988  0.78539  1.0000
  H   H332      1.0  0.10241  0.73849  0.67622  1.0000
  C   C185      1.0  0.28534  0.87305  0.94451  1.0000
  H   H333      1.0  0.41474  0.50925  0.66975  1.0000
  S   S46       1.0  0.47383  0.90317  0.80439  1.0000
  H   H334      1.0  0.44401  0.88019  0.69692  1.0000
  S   S47       1.0  0.46660  0.80024  0.78917  1.0000
  H   H335      1.0  0.45641  0.71117  0.87050  1.0000
  C   C186      1.0  0.44786  0.94075  0.93483  1.0000
  H   H336      1.0  0.28840  0.90459  0.87950  1.0000
  H   H337      1.0  0.27016  0.88837  0.93564  1.0000
  H   H338      1.0  0.26229  0.84141  0.94757  1.0000
  C   C187      1.0  0.04361  0.58986  0.65466  1.0000
  S   S48       1.0  0.48274  0.95021  0.87921  1.0000
  H   H339      1.0  0.13170  0.56277  0.95491  1.0000
  H   H340      1.0  0.35855  0.79999  0.95124  1.0000
  H   H341      1.0  0.44260  0.63325  0.94266  1.0000
  C   C188      1.0  0.99213  0.51556  0.95223  1.0000
  H   H342      1.0  0.45747  0.98476  0.64420  1.0000
  C   C189      1.0  0.47834  0.50478  0.71199  1.0000
  H   H343      1.0  0.27578  0.49084  0.85189  1.0000
  H   H344      1.0  0.42148  0.98668  0.86903  1.0000
  C   C190      1.0  0.46718  0.98164  0.66526  1.0000
  C   C191      1.0  0.23295  0.49410  0.78983  1.0000
  C   C192      1.0  0.22059  0.49081  0.84966  1.0000
  H   H345      1.0  0.41886  0.98873  0.90774  1.0000
  C   C193      1.0  0.47903  0.96472  0.91514  1.0000
  C   C194      1.0  0.47348  0.50558  0.95734  1.0000
  H   H346      1.0  0.31994  0.92148  0.97309  1.0000
  H   H347      1.0  0.38516  0.51314  0.64216  1.0000
  H   H348      1.0  0.09866  0.49069  0.96721  1.0000
  C   C195      1.0  0.25492  0.49230  0.83783  1.0000
  C   C196      1.0  0.19208  0.49058  0.83166  1.0000
  H   H349      1.0  0.03616  0.49221  0.65324  1.0000
  S   S49       1.0  0.30096  0.49004  0.79176  1.0000
  H   H350      1.0  0.17724  0.49291  0.78751  1.0000
  H   H351      1.0  0.23714  0.49450  0.76659  1.0000
  C   C197      1.0  0.29864  0.88943  0.97488  1.0000
  Fe  Fe25      1.0  0.51859  0.45024  0.03703  1.0000
  H   H352      1.0  0.80020  0.13483  0.13325  1.0000
  Fe  Fe26      1.0  0.58350  0.44714  0.07280  1.0000
  S   S50       1.0  0.53891  0.39337  0.09896  1.0000
  C   C198      1.0  0.74707  0.45434  0.05301  1.0000
  Fe  Fe27      1.0  0.51141  0.37134  0.05665  1.0000
  C   C199      1.0  0.71594  0.12111  0.01879  1.0000
  Fe  Fe28      1.0  0.50290  0.42372  0.10232  1.0000
  N   N11       1.0  0.67128  0.08157  0.09771  1.0000
  S   S51       1.0  0.55789  0.42408  0.02987  1.0000
  Fe  Fe29      1.0  0.89365  0.41625  0.04097  1.0000
  S   S52       1.0  0.89349  0.39050  0.08563  1.0000
  S   S53       1.0  0.92755  0.41244  0.00085  1.0000
  Fe  Fe30      1.0  0.82966  0.43599  0.06021  1.0000
  S   S54       1.0  0.82664  0.41402  0.10595  1.0000
  C   C200      1.0  0.73407  0.33152  0.99770  1.0000
  Fe  Fe31      1.0  0.89318  0.44364  0.10268  1.0000
  H   H353      1.0  0.75224  0.36405  0.99519  1.0000
  Fe  Fe32      1.0  0.82710  0.36259  0.08604  1.0000
  S   S55       1.0  0.77929  0.30364  0.10613  1.0000
  S   S56       1.0  0.82740  0.38337  0.04053  1.0000
  C   C201      1.0  0.90002  0.46905  0.30332  1.0000
  S   S57       1.0  0.53735  0.12085  0.03095  1.0000
  H   H354      1.0  0.60755  0.04937  0.09805  1.0000
  Fe  Fe33      1.0  0.53283  0.05713  0.09974  1.0000
  S   S58       1.0  0.55880  0.05462  0.05621  1.0000
  C   C202      1.0  0.96006  0.44411  0.17329  1.0000
  Fe  Fe34      1.0  0.58759  0.12070  0.05356  1.0000
  S   S59       1.0  0.65126  0.16083  0.03748  1.0000
  Fe  Fe35      1.0  0.50662  0.05447  0.03691  1.0000
  H   H355      1.0  0.65124  0.00182  0.09847  1.0000
  S   S60       1.0  0.56618  0.12316  0.09822  1.0000
  H   H356      1.0  0.71037  0.46931  0.11598  1.0000
  H   H357      1.0  0.62489  0.33382  0.08834  1.0000
  C   C203      1.0  0.61208  0.26258  0.05253  1.0000
  C   C204      1.0  0.71601  0.31921  0.02848  1.0000
  H   H358      1.0  0.55166  0.16090  0.14735  1.0000
  C   C205      1.0  0.74342  0.26561  0.08598  1.0000
  C   C206      1.0  0.75110  0.26022  0.05728  1.0000
  C   C207      1.0  0.72253  0.22813  0.04260  1.0000
  C   C208      1.0  0.68576  0.20175  0.05622  1.0000
  C   C209      1.0  0.67775  0.20780  0.08463  1.0000
  C   C210      1.0  0.70668  0.23916  0.09960  1.0000
  H   H359      1.0  0.77938  0.28025  0.04661  1.0000
  H   H360      1.0  0.72900  0.22370  0.02060  1.0000
  H   H361      1.0  0.64935  0.18815  0.09507  1.0000
  H   H362      1.0  0.70050  0.24319  0.12177  1.0000
  C   C211      1.0  0.56011  0.40482  0.18999  1.0000
  H   H363      1.0  0.72077  0.44900  0.01183  1.0000
  S   S61       1.0  0.89627  0.47064  0.05775  1.0000
  C   C212      1.0  0.93905  0.43826  0.28700  1.0000
  C   C213      1.0  0.70390  0.34514  0.08734  1.0000
  C   C214      1.0  0.66963  0.15432  0.15248  1.0000
  C   C215      1.0  0.62552  0.35211  0.04346  1.0000
  C   C216      1.0  0.49890  0.20507  0.07973  1.0000
  H   H364      1.0  0.57952  0.39476  0.18013  1.0000
  C   C217      1.0  0.72631  0.36392  0.13835  1.0000
  H   H365      1.0  0.67455  0.42835  0.16205  1.0000
  C   C218      1.0  0.77431  0.10727  0.12670  1.0000
  C   C219      1.0  0.67654  0.08515  0.06507  1.0000
  H   H366      1.0  0.50805  0.07771  0.20694  1.0000
  H   H367      1.0  0.58570  0.20864  0.07996  1.0000
  H   H368      1.0  0.49776  0.28839  0.09887  1.0000
  H   H369      1.0  0.60999  0.32452  0.03201  1.0000
  S   S62       1.0  0.78749  0.45130  0.03769  1.0000
  H   H370      1.0  0.66611  0.37963  0.07632  1.0000
  S   S63       1.0  0.54873  0.47872  0.07809  1.0000
  H   H371      1.0  0.58806  0.26894  0.05793  1.0000
  H   H372      1.0  0.74058  0.32816  0.04318  1.0000
  H   H373      1.0  0.49668  0.38164  0.19485  1.0000
  H   H374      1.0  0.69767  0.28669  0.02969  1.0000
  H   H375      1.0  0.62713  0.04065  0.12959  1.0000
  C   C220      1.0  0.96066  0.47932  0.16611  1.0000
  H   H376      1.0  0.71298  0.06063  0.09679  1.0000
  C   C221      1.0  0.51033  0.16980  0.26009  1.0000
  C   C222      1.0  0.66890  0.11646  0.10815  1.0000
  C   C223      1.0  0.70358  0.07699  0.11126  1.0000
  C   C224      1.0  0.74104  0.11528  0.11940  1.0000
  C   C225      1.0  0.49836  0.27196  0.05503  1.0000
  C   C226      1.0  0.71531  0.12023  0.05188  1.0000
  C   C227      1.0  0.49955  0.21049  0.04966  1.0000
  H   H377      1.0  0.66486  0.45592  0.03119  1.0000
  H   H378      1.0  0.64681  0.12026  0.09586  1.0000
  H   H379      1.0  0.69692  0.14429  0.10331  1.0000
  H   H380      1.0  0.63300  0.27887  0.09472  1.0000
  H   H381      1.0  0.87838  0.43087  0.19994  1.0000
  N   N12       1.0  0.92954  0.47053  0.28082  1.0000
  H   H382      1.0  0.75232  0.13859  0.10194  1.0000
  H   H383      1.0  0.55453  0.18313  0.22650  1.0000
  H   H384      1.0  0.65299  0.16716  0.14234  1.0000
  H   H385      1.0  0.71927  0.14873  0.05874  1.0000
  H   H386      1.0  0.74083  0.11724  0.05818  1.0000
  H   H387      1.0  0.74344  0.14721  0.00992  1.0000
  H   H388      1.0  0.62446  0.09574  0.14407  1.0000
  C   C228      1.0  0.52657  0.09988  0.18941  1.0000
  H   H389      1.0  0.66330  0.15139  0.17622  1.0000
  H   H390      1.0  0.71004  0.37098  0.03262  1.0000
  H   H391      1.0  0.69236  0.05824  0.13167  1.0000
  H   H392      1.0  0.72589  0.37632  0.08094  1.0000
  H   H393      1.0  0.58009  0.36517  0.03275  1.0000
  C   C229      1.0  0.87573  0.42294  0.24703  1.0000
  C   C230      1.0  0.69090  0.33850  0.03602  1.0000
  H   H394      1.0  0.76482  0.08489  0.14488  1.0000
  H   H395      1.0  0.71486  0.09426  0.01066  1.0000
  H   H396      1.0  0.69056  0.12314  0.01067  1.0000
  H   H397      1.0  0.56866  0.20311  0.04372  1.0000
  H   H398      1.0  0.65141  0.08651  0.05542  1.0000
  C   C231      1.0  0.69072  0.34374  0.11956  1.0000
  H   H399      1.0  0.50821  0.19325  0.15655  1.0000
  C   C232      1.0  0.63203  0.04530  0.10565  1.0000
  H   H400      1.0  0.67609  0.05878  0.05656  1.0000
  H   H401      1.0  0.57998  0.13891  0.21302  1.0000
  S   S64       1.0  0.53936  0.02347  0.13868  1.0000
  H   H402      1.0  0.95842  0.43791  0.26904  1.0000
  H   H403      1.0  0.64703  0.37513  0.02762  1.0000
  H   H404      1.0  0.55873  0.06754  0.22661  1.0000
  H   H405      1.0  0.57255  0.17901  0.18074  1.0000
  H   H406      1.0  0.49700  0.22949  0.12052  1.0000
  S   S65       1.0  0.49662  0.16243  0.09643  1.0000
  H   H407      1.0  0.67265  0.31291  0.12818  1.0000
  H   H408      1.0  0.59806  0.24651  0.15819  1.0000
  H   H409      1.0  0.78345  0.09682  0.10751  1.0000
  C   C233      1.0  0.64663  0.28516  0.07246  1.0000
  C   C234      1.0  0.60768  0.48496  0.21764  1.0000
  H   H410      1.0  0.83172  0.39267  0.21539  1.0000
  H   H411      1.0  0.88496  0.40043  0.24576  1.0000
  H   H412      1.0  0.76562  0.46101  0.09682  1.0000
  H   H413      1.0  0.57472  0.06404  0.19033  1.0000
  H   H414      1.0  0.58932  0.13057  0.17650  1.0000
  C   C235      1.0  0.64714  0.34874  0.07006  1.0000
  H   H415      1.0  0.66908  0.32985  0.01904  1.0000
  C   C236      1.0  0.68652  0.45673  0.04561  1.0000
  H   H416      1.0  0.49828  0.24684  0.01420  1.0000
  H   H417      1.0  0.66540  0.27134  0.07233  1.0000
  H   H418      1.0  0.74454  0.34950  0.13683  1.0000
  C   C237      1.0  0.51767  0.37387  0.18449  1.0000
  H   H419      1.0  0.73458  0.12754  0.13874  1.0000
  C   C238      1.0  0.85668  0.42262  0.21852  1.0000
  H   H420      1.0  0.61660  0.20983  0.04967  1.0000
  H   H421      1.0  0.60956  0.09783  0.21425  1.0000
  H   H422      1.0  0.51125  0.34476  0.19373  1.0000
  H   H423      1.0  0.56271  0.40541  0.21374  1.0000
  H   H424      1.0  0.94176  0.41818  0.16158  1.0000
  N   N13       1.0  0.67144  0.32884  0.06606  1.0000
  H   H425      1.0  0.74467  0.39548  0.13140  1.0000
  H   H426      1.0  0.71064  0.32083  0.98176  1.0000
  C   C239      1.0  0.56901  0.23623  0.14863  1.0000
  H   H427      1.0  0.57199  0.44241  0.15236  1.0000
  C   C240      1.0  0.54462  0.16692  0.16946  1.0000
  H   H428      1.0  0.52266  0.08244  0.16990  1.0000
  H   H429      1.0  0.85322  0.41428  0.26500  1.0000
  C   C241      1.0  0.52749  0.15681  0.23552  1.0000
  C   C242      1.0  0.57865  0.08442  0.20763  1.0000
  H   H430      1.0  0.57018  0.22748  0.12618  1.0000
  H   H431      1.0  0.67346  0.35891  0.12239  1.0000
  H   H432      1.0  0.71626  0.36192  0.16131  1.0000
  C   C243      1.0  0.65703  0.11390  0.14084  1.0000
  H   H433      1.0  0.67006  0.09976  0.15417  1.0000
  H   H434      1.0  0.72050  0.32896  0.08701  1.0000
  H   H435      1.0  0.70173  0.17456  0.14821  1.0000
  C   C244      1.0  0.59484  0.21834  0.05693  1.0000
  H   H436      1.0  0.56292  0.26101  0.14763  1.0000
  H   H437      1.0  0.87589  0.44058  0.98230  1.0000
  C   C245      1.0  0.57047  0.11658  0.19650  1.0000
  H   H438      1.0  0.62126  0.27014  0.02932  1.0000
  C   C246      1.0  0.74352  0.45944  0.08252  1.0000
  Fe  Fe36      1.0  0.51440  0.12056  0.07623  1.0000
  S   S66       1.0  0.64553  0.47058  0.08950  1.0000
  C   C247      1.0  0.68339  0.46267  0.07501  1.0000
  C   C248      1.0  0.57077  0.44546  0.17610  1.0000
  H   H439      1.0  0.84530  0.44350  0.21862  1.0000
  H   H440      1.0  0.53551  0.13567  0.24520  1.0000
  H   H441      1.0  0.62182  0.00531  0.07035  1.0000
  C   C249      1.0  0.71836  0.45293  0.03468  1.0000
  S   S67       1.0  0.49461  0.31147  0.03863  1.0000
  C   C250      1.0  0.62583  0.00600  0.09404  1.0000
  C   C251      1.0  0.59505  0.36355  0.05230  1.0000
  H   H442      1.0  0.50279  0.19200  0.25184  1.0000
  C   C252      1.0  0.53628  0.20164  0.16681  1.0000
  H   H443      1.0  0.93446  0.46887  0.23415  1.0000
  C   C253      1.0  0.49894  0.24356  0.03744  1.0000
  C   C254      1.0  0.49845  0.23359  0.09729  1.0000
  C   C255      1.0  0.50754  0.99749  0.16950  1.0000
  C   C256      1.0  0.71214  0.46410  0.09334  1.0000
  C   C257      1.0  0.91186  0.46398  0.25139  1.0000
  H   H444      1.0  0.60911  0.39250  0.06222  1.0000
  H   H445      1.0  0.57259  0.34120  0.06796  1.0000
  H   H446      1.0  0.51288  0.37141  0.16093  1.0000
  H   H447      1.0  0.49922  0.18861  0.03580  1.0000
  H   H448      1.0  0.53479  0.21236  0.18848  1.0000
  H   H449      1.0  0.54538  0.45012  0.17987  1.0000
  C   C258      1.0  0.98303  0.44230  0.19578  1.0000
  C   C259      1.0  0.49877  0.26710  0.08506  1.0000
  H   H450      1.0  0.53235  0.18322  0.27689  1.0000
  N   N14       1.0  0.51249  0.12921  0.18434  1.0000
  C   C260      1.0  0.49700  0.13653  0.21226  1.0000
  H   H451      1.0  0.98206  0.41480  0.20105  1.0000
  H   H452      1.0  0.91190  0.40899  0.28774  1.0000
  S   S68       1.0  0.93117  0.48329  0.13858  1.0000
  H   H453      1.0  0.75314  0.31857  0.99322  1.0000
  H   H454      1.0  0.48954  0.10503  0.14313  1.0000
  S   S69       1.0  0.50499  0.48703  0.00404  1.0000
  H   H455      1.0  0.63334  0.42715  0.20442  1.0000
  H   H456      1.0  0.71380  0.47593  0.17173  1.0000
  H   H457      1.0  0.88105  0.47971  0.29370  1.0000
  H   H458      1.0  0.69854  0.43321  0.19562  1.0000
  H   H459      1.0  0.90232  0.48577  0.24633  1.0000
  H   H460      1.0  0.63911  0.46473  0.15370  1.0000
  H   H461      1.0  0.97272  0.36427  0.00307  1.0000
  H   H462      1.0  0.54411  0.46360  0.22571  1.0000
  H   H463      1.0  0.57122  0.46380  0.27364  1.0000
  C   C261      1.0  0.68803  0.44789  0.18027  1.0000
  H   H464      1.0  0.60719  0.45999  0.22977  1.0000
  C   C262      1.0  0.65780  0.45568  0.19579  1.0000
  N   N15       1.0  0.60815  0.48046  0.18532  1.0000
  C   C263      1.0  0.64389  0.47792  0.17530  1.0000
  H   H465      1.0  0.67208  0.47384  0.21452  1.0000
  C   C264      1.0  0.57294  0.48906  0.23061  1.0000
  H   H466      1.0  0.81919  0.44859  0.97596  1.0000
  C   C265      1.0  0.97040  0.48844  0.97545  1.0000
  H   H467      1.0  0.78441  0.47761  0.97589  1.0000
  H   H468      1.0  0.62240  0.20639  0.58322  1.0000
  Fe  Fe37      1.0  0.54135  0.45297  0.54134  1.0000
  H   H469      1.0  0.78092  0.45771  0.60060  1.0000
  Fe  Fe38      1.0  0.59532  0.44056  0.58334  1.0000
  S   S70       1.0  0.54384  0.38714  0.60545  1.0000
  H   H470      1.0  0.73541  0.24144  0.61744  1.0000
  Fe  Fe39      1.0  0.52499  0.37007  0.56030  1.0000
  H   H471      1.0  0.93709  0.43309  0.33438  1.0000
  H   H472      1.0  0.49240  0.28111  0.59775  1.0000
  S   S71       1.0  0.57734  0.42262  0.53828  1.0000
  Fe  Fe40      1.0  0.90656  0.42787  0.52513  1.0000
  S   S72       1.0  0.90936  0.39778  0.56667  1.0000
  S   S73       1.0  0.93902  0.42350  0.48420  1.0000
  Fe  Fe41      1.0  0.85064  0.45133  0.55451  1.0000
  H   H473      1.0  0.52819  0.35110  0.47825  1.0000
  Fe  Fe42      1.0  0.84404  0.37345  0.57295  1.0000
  S   S74       1.0  0.80298  0.31184  0.59342  1.0000
  S   S75       1.0  0.84027  0.39860  0.52979  1.0000
  Fe  Fe43      1.0  0.52004  0.12058  0.57882  1.0000
  S   S76       1.0  0.54587  0.12501  0.53425  1.0000
  C   C266      1.0  0.75949  0.45984  0.58754  1.0000
  Fe  Fe44      1.0  0.54105  0.05914  0.60058  1.0000
  S   S77       1.0  0.57023  0.06014  0.55727  1.0000
  Fe  Fe45      1.0  0.59673  0.12619  0.55653  1.0000
  S   S78       1.0  0.65598  0.17171  0.53503  1.0000
  Fe  Fe46      1.0  0.51774  0.05879  0.53733  1.0000
  C   C267      1.0  0.62911  0.06220  0.49644  1.0000
  S   S79       1.0  0.57228  0.12524  0.60105  1.0000
  C   C268      1.0  0.69650  0.45854  0.58414  1.0000
  H   H474      1.0  0.67597  0.37749  0.51245  1.0000
  C   C269      1.0  0.76080  0.27457  0.57706  1.0000
  C   C270      1.0  0.75604  0.27542  0.54722  1.0000
  C   C271      1.0  0.72348  0.24403  0.53482  1.0000
  C   C272      1.0  0.69492  0.21174  0.55207  1.0000
  C   C273      1.0  0.69907  0.21141  0.58202  1.0000
  C   C274      1.0  0.73200  0.24249  0.59437  1.0000
  H   H475      1.0  0.77804  0.29976  0.53360  1.0000
  H   H476      1.0  0.72067  0.24460  0.51166  1.0000
  H   H477      1.0  0.67752  0.18666  0.59556  1.0000
  H   H478      1.0  0.64829  0.37239  0.60303  1.0000
  S   S80       1.0  0.85144  0.42499  0.59820  1.0000
  H   H479      1.0  0.63872  0.38610  0.55560  1.0000
  H   H480      1.0  0.61313  0.21980  0.54802  1.0000
  S   S81       1.0  0.51322  0.31438  0.53824  1.0000
  H   H481      1.0  0.54125  0.00002  0.48237  1.0000
  S   S82       1.0  0.65373  0.45409  0.60217  1.0000
  H   H482      1.0  0.74536  0.47878  0.51819  1.0000
  H   H483      1.0  0.66790  0.27514  0.57262  1.0000
  H   H484      1.0  0.60790  0.05086  0.45374  1.0000
  H   H485      1.0  0.86288  0.29614  0.63255  1.0000
  C   C275      1.0  0.96085  0.45467  0.45231  1.0000
  H   H486      1.0  0.64010  0.41375  0.50547  1.0000
  H   H487      1.0  0.69680  0.34361  0.54415  1.0000
  H   H488      1.0  0.53331  0.46305  0.35532  1.0000
  H   H489      1.0  0.63676  0.38527  0.47474  1.0000
  H   H490      1.0  0.63306  0.29073  0.53762  1.0000
  H   H491      1.0  0.98302  0.40798  0.33872  1.0000
  H   H492      1.0  0.58169  0.42007  0.46752  1.0000
  C   C276      1.0  0.62986  0.35621  0.54804  1.0000
  C   C277      1.0  0.62394  0.07696  0.46690  1.0000
  H   H493      1.0  0.62172  0.07436  0.40870  1.0000
  H   H494      1.0  0.94313  0.37753  0.31635  1.0000
  H   H495      1.0  0.52794  0.09846  0.47658  1.0000
  C   C278      1.0  0.50756  0.36184  0.47299  1.0000
  H   H496      1.0  0.59713  0.34007  0.54861  1.0000
  H   H497      1.0  0.64613  0.32805  0.61469  1.0000
  H   H498      1.0  0.65387  0.09611  0.45701  1.0000
  H   H499      1.0  0.57503  0.33266  0.59305  1.0000
  H   H500      1.0  0.77037  0.39626  0.56924  1.0000
  Fe  Fe47      1.0  0.91685  0.45075  0.58966  1.0000
  H   H501      1.0  0.58836  0.38892  0.41753  1.0000
  C   C279      1.0  0.61151  0.22389  0.57158  1.0000
  C   C280      1.0  0.76736  0.46849  0.55775  1.0000
  N   N16       1.0  0.60031  0.12160  0.44274  1.0000
  C   C281      1.0  0.64160  0.15213  0.43222  1.0000
  C   C282      1.0  0.57869  0.09414  0.41896  1.0000
  C   C283      1.0  0.57875  0.14343  0.45039  1.0000
  C   C284      1.0  0.60021  0.09873  0.46957  1.0000
  H   H502      1.0  0.52952  0.37865  0.42896  1.0000
  C   C285      1.0  0.66768  0.18103  0.45499  1.0000
  C   C286      1.0  0.97213  0.37232  0.60550  1.0000
  C   C287      1.0  0.60308  0.08389  0.39753  1.0000
  H   H503      1.0  0.94597  0.32471  0.63736  1.0000
  C   C288      1.0  0.70389  0.46633  0.55423  1.0000
  C   C289      1.0  0.70821  0.21099  0.44160  1.0000
  H   H504      1.0  0.57531  0.28878  0.60558  1.0000
  H   H505      1.0  0.64032  0.16976  0.41339  1.0000
  H   H506      1.0  0.65844  0.13843  0.42385  1.0000
  H   H507      1.0  0.55367  0.06601  0.42850  1.0000
  H   H508      1.0  0.56499  0.10705  0.40482  1.0000
  H   H509      1.0  0.58301  0.16499  0.43248  1.0000
  H   H510      1.0  0.59093  0.16081  0.46986  1.0000
  H   H511      1.0  0.61085  0.11821  0.48819  1.0000
  H   H512      1.0  0.56962  0.07595  0.47654  1.0000
  C   C290      1.0  0.96956  0.40705  0.31774  1.0000
  H   H513      1.0  0.58031  0.41211  0.38603  1.0000
  H   H514      1.0  0.65431  0.19777  0.46405  1.0000
  H   H515      1.0  0.67250  0.16490  0.47304  1.0000
  C   C291      1.0  0.51675  0.24624  0.53894  1.0000
  H   H516      1.0  0.90390  0.35838  0.62989  1.0000
  H   H517      1.0  0.62264  0.11008  0.38317  1.0000
  C   C292      1.0  0.73936  0.47172  0.54120  1.0000
  C   C293      1.0  0.49848  0.26199  0.58487  1.0000
  H   H518      1.0  0.59442  0.04510  0.36244  1.0000
  H   H519      1.0  0.75488  0.34550  0.56328  1.0000
  C   C294      1.0  0.62777  0.38340  0.49795  1.0000
  C   C295      1.0  0.50194  0.20167  0.58099  1.0000
  H   H520      1.0  0.64721  0.04782  0.49383  1.0000
  H   H521      1.0  0.72378  0.19594  0.43309  1.0000
  H   H522      1.0  0.70540  0.22895  0.42383  1.0000
  H   H523      1.0  0.72630  0.23100  0.45841  1.0000
  H   H524      1.0  0.50175  0.37432  0.49255  1.0000
  H   H525      1.0  0.71914  0.44948  0.62381  1.0000
  C   C296      1.0  0.55991  0.46291  0.41070  1.0000
  H   H526      1.0  0.53804  0.46881  0.42195  1.0000
  C   C297      1.0  0.95748  0.35685  0.63664  1.0000
  H   H527      1.0  0.54203  0.43440  0.40063  1.0000
  H   H528      1.0  0.63215  0.33191  0.50599  1.0000
  H   H529      1.0  0.55722  0.02355  0.39132  1.0000
  C   C298      1.0  0.60198  0.41479  0.40201  1.0000
  S   S83       1.0  0.91722  0.48224  0.54751  1.0000
  H   H530      1.0  0.64996  0.43825  0.36894  1.0000
  H   H531      1.0  0.71443  0.37516  0.60538  1.0000
  C   C299      1.0  0.63567  0.41357  0.38551  1.0000
  H   H532      1.0  0.81170  0.22709  0.64007  1.0000
  H   H533      1.0  0.52492  0.25333  0.51614  1.0000
  C   C300      1.0  0.58977  0.32112  0.60710  1.0000
  H   H534      1.0  0.70164  0.38758  0.55769  1.0000
  S   S84       1.0  0.81249  0.47754  0.54063  1.0000
  C   C301      1.0  0.64340  0.36095  0.51552  1.0000
  C   C302      1.0  0.49446  0.22700  0.59749  1.0000
  C   C303      1.0  0.63696  0.26695  0.57838  1.0000
  C   C304      1.0  0.68907  0.35564  0.56320  1.0000
  H   H535      1.0  0.60011  0.04025  0.50659  1.0000
  H   H536      1.0  0.63334  0.26919  0.60196  1.0000
  N   N17       1.0  0.64481  0.33579  0.56798  1.0000
  H   H537      1.0  0.59508  0.36801  0.50009  1.0000
  C   C305      1.0  0.62553  0.29324  0.56047  1.0000
  H   H538      1.0  0.86084  0.48679  0.34654  1.0000
  H   H539      1.0  0.59293  0.27965  0.56167  1.0000
  C   C306      1.0  0.72444  0.45525  0.60065  1.0000
  C   C307      1.0  0.63426  0.34049  0.59870  1.0000
  C   C308      1.0  0.57630  0.05106  0.37815  1.0000
  H   H540      1.0  0.77073  0.36478  0.59831  1.0000
  C   C309      1.0  0.75482  0.36603  0.57923  1.0000
  H   H541      1.0  0.63631  0.45085  0.43535  1.0000
  H   H542      1.0  0.55269  0.44254  0.47337  1.0000
  H   H543      1.0  0.69992  0.32493  0.60016  1.0000
  Fe  Fe48      1.0  0.51206  0.42196  0.60391  1.0000
  H   H544      1.0  0.63808  0.47823  0.40390  1.0000
  H   H545      1.0  0.87248  0.45091  0.36192  1.0000
  H   H546      1.0  0.55738  0.05946  0.36590  1.0000
  C   C310      1.0  0.97394  0.44088  0.42911  1.0000
  H   H547      1.0  0.68289  0.46938  0.54132  1.0000
  S   S85       1.0  0.56482  0.47657  0.58494  1.0000
  C   C311      1.0  0.71291  0.35427  0.58905  1.0000
  H   H548      1.0  0.51896  0.19222  0.53870  1.0000
  H   H549      1.0  0.64429  0.08703  0.51096  1.0000
  H   H550      1.0  0.96929  0.41131  0.43070  1.0000
  C   C312      1.0  0.50949  0.27168  0.55549  1.0000
  C   C313      1.0  0.95830  0.43916  0.31591  1.0000
  C   C314      1.0  0.56295  0.42979  0.45631  1.0000
  S   S86       1.0  0.96840  0.47622  0.62092  1.0000
  C   C315      1.0  0.51342  0.21161  0.55167  1.0000
  H   H551      1.0  0.62396  0.38549  0.37435  1.0000
  C   C316      1.0  0.52474  0.39259  0.44786  1.0000
  S   S87       1.0  0.49575  0.15762  0.59775  1.0000
  N   N18       1.0  0.58685  0.46067  0.43252  1.0000
  H   H552      1.0  0.58045  0.21279  0.57892  1.0000
  H   H553      1.0  0.61472  0.48145  0.49017  1.0000
  C   C317      1.0  0.58315  0.32915  0.63829  1.0000
  H   H554      1.0  0.65804  0.41540  0.40063  1.0000
  H   H555      1.0  0.94826  0.35620  0.59042  1.0000
  H   H556      1.0  0.50201  0.40044  0.44233  1.0000
  C   C318      1.0  0.61746  0.45292  0.41865  1.0000
  S   S88       1.0  0.48774  0.39913  0.56029  1.0000
  H   H557      1.0  0.87924  0.43799  0.31073  1.0000
  C   C319      1.0  0.50976  0.48772  0.47650  1.0000
  C   C320      1.0  0.51929  0.99021  0.46628  1.0000
  C   C321      1.0  0.53369  0.11777  0.45715  1.0000
  H   H558      1.0  0.52924  0.16258  0.48134  1.0000
  H   H559      1.0  0.51808  0.09897  0.43911  1.0000
  S   S89       1.0  0.48705  0.05419  0.58083  1.0000
  C   C322      1.0  0.51511  0.14328  0.46313  1.0000
  H   H560      1.0  0.98241  0.40430  0.60312  1.0000
  C   C323      1.0  0.88482  0.48214  0.35442  1.0000
  C   C324      1.0  0.48755  0.99699  0.46963  1.0000
  H   H561      1.0  0.51798  0.16171  0.44355  1.0000
  H   H562      1.0  0.60158  0.48955  0.37287  1.0000
  H   H563      1.0  0.94058  0.48977  0.33997  1.0000
  H   H564      1.0  0.59693  0.36131  0.64103  1.0000
  H   H565      1.0  0.98530  0.46776  0.31843  1.0000
  H   H566      1.0  0.53270  0.02053  0.90932  1.0000
  C   C325      1.0  0.50750  0.99887  0.66968  1.0000
  H   H567      1.0  0.52821  0.04318  0.95832  1.0000
  H   H568      1.0  0.85885  0.23376  0.64963  1.0000
  H   H569      1.0  0.53142  0.17981  0.67453  1.0000
  C   C326      1.0  0.50097  0.17238  0.68113  1.0000
  N   N19       1.0  0.50941  0.44429  0.78272  1.0000
  C   C327      1.0  0.92549  0.36670  0.64706  1.0000
  C   C328      1.0  0.95891  0.43526  0.94490  1.0000
  H   H570      1.0  0.80193  0.35392  0.68562  1.0000
  H   H571      1.0  0.59421  0.15504  0.66198  1.0000
  H   H572      1.0  0.89417  0.39234  0.69606  1.0000
  N   N20       1.0  0.90560  0.34914  0.67643  1.0000
  C   C329      1.0  0.92346  0.35305  0.73057  1.0000
  H   H573      1.0  0.49639  0.13960  0.72124  1.0000
  H   H574      1.0  0.52789  0.42932  0.72415  1.0000
  H   H575      1.0  0.48889  0.42778  0.96020  1.0000
  C   C330      1.0  0.82468  0.38038  0.67295  1.0000
  H   H576      1.0  0.57764  0.40889  0.73279  1.0000
  C   C331      1.0  0.84143  0.46021  0.95750  1.0000
  H   H577      1.0  0.95658  0.34964  0.69422  1.0000
  C   C332      1.0  0.55280  0.44745  0.73787  1.0000
  H   H578      1.0  0.49719  0.40106  0.87008  1.0000
  H   H579      1.0  0.90510  0.36607  0.73703  1.0000
  H   H580      1.0  0.92996  0.46783  0.72532  1.0000
  H   H581      1.0  0.86886  0.29267  0.69884  1.0000
  H   H582      1.0  0.85512  0.34327  0.70145  1.0000
  C   C333      1.0  0.87797  0.36406  0.68511  1.0000
  H   H583      1.0  0.85575  0.37882  0.95818  1.0000
  H   H584      1.0  0.56865  0.45256  0.78220  1.0000
  H   H585      1.0  0.82456  0.45110  0.93743  1.0000
  H   H586      1.0  0.82650  0.28950  0.66042  1.0000
  C   C334      1.0  0.51942  0.99307  0.69696  1.0000
  C   C335      1.0  0.85700  0.37313  0.66061  1.0000
  C   C336      1.0  0.50575  0.01459  0.95202  1.0000
  H   H587      1.0  0.95721  0.39534  0.69541  1.0000
  C   C337      1.0  0.88395  0.30479  0.67725  1.0000
  C   C338      1.0  0.83813  0.39380  0.95606  1.0000
  C   C339      1.0  0.86445  0.43763  0.96032  1.0000
  H   H588      1.0  0.53156  0.40481  0.77428  1.0000
  C   C340      1.0  0.95381  0.44804  0.97200  1.0000
  H   H589      1.0  0.81009  0.38669  0.65500  1.0000
  H   H590      1.0  0.55225  0.14349  0.70621  1.0000
  H   H591      1.0  0.48743  0.44827  0.82542  1.0000
  C   C341      1.0  0.53505  0.43620  0.83281  1.0000
  H   H592      1.0  0.54832  0.43200  0.87765  1.0000
  C   C342      1.0  0.93752  0.36278  0.69812  1.0000
  C   C343      1.0  0.95331  0.47319  0.70965  1.0000
  H   H593      1.0  0.83739  0.40594  0.68699  1.0000
  H   H594      1.0  0.94800  0.36280  0.77310  1.0000
  H   H595      1.0  0.97729  0.35608  0.74554  1.0000
  H   H596      1.0  0.94570  0.40409  0.94181  1.0000
  C   C344      1.0  0.50049  0.43199  0.81465  1.0000
  H   H597      1.0  0.61059  0.13852  0.69256  1.0000
  H   H598      1.0  0.51874  0.23420  0.68186  1.0000
  H   H599      1.0  0.84350  0.34919  0.64546  1.0000
  H   H600      1.0  0.81387  0.38069  0.97287  1.0000
  H   H601      1.0  0.93994  0.39924  0.64713  1.0000
  C   C345      1.0  0.50954  0.48898  0.67159  1.0000
  H   H602      1.0  0.52208  0.12425  0.65447  1.0000
  C   C346      1.0  0.58649  0.12971  0.67732  1.0000
  H   H603      1.0  0.90613  0.32084  0.73524  1.0000
  H   H604      1.0  0.54253  0.09364  0.71008  1.0000
  H   H605      1.0  0.82582  0.38878  0.93425  1.0000
  C   C347      1.0  0.54104  0.43656  0.77061  1.0000
  C   C348      1.0  0.95861  0.36945  0.75001  1.0000
  C   C349      1.0  0.58646  0.44031  0.72880  1.0000
  H   H606      1.0  0.54277  0.41350  0.82695  1.0000
  H   H607      1.0  0.58427  0.10477  0.66516  1.0000
  C   C350      1.0  0.94585  0.47097  0.67979  1.0000
  C   C351      1.0  0.51287  0.10355  0.67381  1.0000
  H   H608      1.0  0.56295  0.47893  0.73275  1.0000
  H   H609      1.0  0.59394  0.44790  0.70528  1.0000
  H   H610      1.0  0.59579  0.31656  0.65360  1.0000
  C   C352      1.0  0.97561  0.47787  0.65910  1.0000
  C   C353      1.0  0.50818  0.00162  0.92413  1.0000
  C   C354      1.0  0.85163  0.28490  0.65505  1.0000
  H   H611      1.0  0.55051  0.00615  0.70065  1.0000
  C   C355      1.0  0.52374  0.43028  0.86517  1.0000
  H   H612      1.0  0.88944  0.44858  0.94414  1.0000
  H   H613      1.0  0.51760  0.45356  0.87232  1.0000
  H   H614      1.0  0.55104  0.31535  0.64357  1.0000
  C   C356      1.0  0.54782  0.11771  0.69420  1.0000
  H   H615      1.0  0.61315  0.45898  0.74085  1.0000
  H   H616      1.0  0.50885  0.07572  0.66517  1.0000
  H   H617      1.0  0.52094  0.21281  0.71630  1.0000
  C   C357      1.0  0.52024  0.48668  0.77788  1.0000
  H   H618      1.0  0.90501  0.29373  0.67480  1.0000
  H   H619      1.0  0.56179  0.46537  0.82923  1.0000
  H   H620      1.0  0.91717  0.46439  0.67278  1.0000
  H   H621      1.0  0.87877  0.40012  0.64792  1.0000
  H   H622      1.0  0.82253  0.22714  0.67770  1.0000
  C   C358      1.0  0.83531  0.24049  0.65580  1.0000
  H   H623      1.0  0.97679  0.40189  0.74651  1.0000
  C   C359      1.0  0.50371  0.20747  0.69660  1.0000
  H   H624      1.0  0.98350  0.37097  0.65019  1.0000
  C   C360      1.0  0.98049  0.46238  0.92165  1.0000
  H   H625      1.0  0.98354  0.45204  0.90085  1.0000
  S   S90       1.0  0.54405  0.02662  0.64173  1.0000
  H   H626      1.0  0.54847  0.98179  0.18725  1.0000
  H   H627      1.0  0.52894  0.55029  0.18985  1.0000
  H   H628      1.0  0.51517  0.75265  0.27747  1.0000
  C   C361      1.0  0.61993  0.52280  0.13780  1.0000
  S   S91       1.0  0.48871  0.80535  0.29529  1.0000
  H   H629      1.0  0.51938  0.50598  0.14959  1.0000
  C   C362      1.0  0.96319  0.54484  0.26676  1.0000
  H   H630      1.0  0.56224  0.97316  0.10288  1.0000
  H   H631      1.0  0.93677  0.54428  0.27658  1.0000
  H   H632      1.0  0.59053  0.96952  0.13187  1.0000
  C   C363      1.0  0.49726  0.96159  0.21625  1.0000
  C   C364      1.0  0.98474  0.51260  0.18185  1.0000
  H   H633      1.0  0.58795  0.55410  0.12926  1.0000
  H   H634      1.0  0.89483  0.55281  0.03844  1.0000
  H   H635      1.0  0.61354  0.64552  0.97740  1.0000
  H   H636      1.0  0.75694  0.52078  0.98358  1.0000
  H   H637      1.0  0.81679  0.51952  0.99609  1.0000
  H   H638      1.0  0.60215  0.51686  0.26976  1.0000
  H   H639      1.0  0.62495  0.56190  0.10185  1.0000
  H   H640      1.0  0.98126  0.51738  0.29985  1.0000
  H   H641      1.0  0.54932  0.49473  0.27194  1.0000
  H   H642      1.0  0.89088  0.57463  0.98794  1.0000
  C   C365      1.0  0.61799  0.55835  0.12556  1.0000
  H   H643      1.0  0.86121  0.50065  0.00421  1.0000
  H   H644      1.0  0.63969  0.58558  0.13574  1.0000
  C   C366      1.0  0.88417  0.51538  0.98640  1.0000
  C   C367      1.0  0.48911  0.50400  0.22039  1.0000
  C   C368      1.0  0.50404  0.49389  0.17037  1.0000
  H   H645      1.0  0.94015  0.55378  0.02767  1.0000
  H   H646      1.0  0.96708  0.49882  0.99618  1.0000
  S   S92       1.0  0.49788  0.53706  0.24877  1.0000
  C   C369      1.0  0.58865  0.97091  0.10798  1.0000
  H   H647      1.0  0.59846  0.49681  0.12656  1.0000
  C   C370      1.0  0.61111  0.51707  0.17103  1.0000
  C   C371      1.0  0.96729  0.50968  0.27871  1.0000
  H   H648      1.0  0.63459  0.54391  0.18075  1.0000
  H   H649      1.0  0.58496  0.94320  0.09941  1.0000
  C   C372      1.0  0.49446  0.73840  0.29574  1.0000
  C   C373      1.0  0.92094  0.56646  0.02302  1.0000
  H   H650      1.0  0.64990  0.52791  0.13223  1.0000
  C   C374      1.0  0.50924  0.51897  0.19325  1.0000
  H   H651      1.0  0.90473  0.50392  0.98964  1.0000
  H   H652      1.0  0.96023  0.54337  0.24293  1.0000
  H   H653      1.0  0.93784  0.59848  0.02645  1.0000
  H   H654      1.0  0.57424  0.51640  0.22207  1.0000
  H   H655      1.0  0.50432  0.68886  0.29841  1.0000
  C   C375      1.0  0.90819  0.55975  0.99179  1.0000
  H   H656      1.0  0.63559  0.51131  0.22342  1.0000
  H   H657      1.0  0.67008  0.50793  0.17191  1.0000
  H   H658      1.0  0.50773  0.94889  0.23236  1.0000
  H   H659      1.0  0.98561  0.54006  0.17659  1.0000
  H   H660      1.0  0.58329  0.51762  0.17492  1.0000
  C   C376      1.0  0.52031  0.98028  0.19060  1.0000
  H   H661      1.0  0.93546  0.57381  0.97765  1.0000
  C   C377      1.0  0.57419  0.49120  0.26352  1.0000
  C   C378      1.0  0.48821  0.70212  0.30749  1.0000
  H   H662      1.0  0.52191  0.86664  0.34871  1.0000
  H   H663      1.0  0.54678  0.96480  0.44020  1.0000
  C   C379      1.0  0.57407  0.74233  0.35815  1.0000
  H   H664      1.0  0.54046  0.54902  0.46239  1.0000
  H   H665      1.0  0.61092  0.92592  0.34551  1.0000
  C   C380      1.0  0.65168  0.54363  0.48475  1.0000
  C   C381      1.0  0.63309  0.50282  0.47242  1.0000
  H   H666      1.0  0.55934  0.54320  0.61278  1.0000
  H   H667      1.0  0.58083  0.90100  0.31546  1.0000
  C   C382      1.0  0.49347  0.51628  0.57907  1.0000
  S   S93       1.0  0.49071  0.90531  0.30991  1.0000
  H   H668      1.0  0.60806  0.87047  0.45755  1.0000
  C   C383      1.0  0.96666  0.49284  0.44970  1.0000
  H   H669      1.0  0.52451  0.75382  0.39401  1.0000
  H   H670      1.0  0.53227  0.85907  0.43086  1.0000
  H   H671      1.0  0.59185  0.83395  0.41059  1.0000
  H   H672      1.0  0.52949  0.57994  0.56777  1.0000
  H   H673      1.0  0.56442  0.51487  0.34650  1.0000
  H   H674      1.0  0.58694  0.50960  0.45305  1.0000
  C   C384      1.0  0.49315  0.95557  0.42153  1.0000
  C   C385      1.0  0.56314  0.56322  0.59398  1.0000
  C   C386      1.0  0.56181  0.86193  0.42838  1.0000
  H   H675      1.0  0.54748  0.80078  0.42985  1.0000
  C   C387      1.0  0.57993  0.49430  0.38544  1.0000
  N   N21       1.0  0.53996  0.81481  0.38576  1.0000
  H   H676      1.0  0.60324  0.74452  0.35446  1.0000
  C   C388      1.0  0.56057  0.82629  0.41387  1.0000
  C   C389      1.0  0.52363  0.55914  0.58643  1.0000
  H   H677      1.0  0.92961  0.52526  0.32498  1.0000
  C   C390      1.0  0.56223  0.84626  0.36198  1.0000
  H   H678      1.0  0.59453  0.86059  0.36480  1.0000
  H   H679      1.0  0.51296  0.56864  0.60528  1.0000
  H   H680      1.0  0.57657  0.55657  0.57508  1.0000
  H   H681      1.0  0.55831  0.84033  0.47296  1.0000
  C   C391      1.0  0.58081  0.91230  0.33722  1.0000
  C   C392      1.0  0.55132  0.87907  0.35804  1.0000
  C   C393      1.0  0.53898  0.77759  0.37676  1.0000
  C   C394      1.0  0.51742  0.51986  0.45766  1.0000
  H   H682      1.0  0.59687  0.80435  0.35261  1.0000
  H   H683      1.0  0.50286  0.53957  0.41794  1.0000
  H   H684      1.0  0.57933  0.89278  0.46823  1.0000
  H   H685      1.0  0.55926  0.73621  0.33727  1.0000
  H   H686      1.0  0.49128  0.49625  0.59750  1.0000
  H   H687      1.0  0.55610  0.71731  0.37391  1.0000
  S   S94       1.0  0.48979  0.55975  0.33316  1.0000
  H   H688      1.0  0.59500  0.52441  0.39356  1.0000
  C   C395      1.0  0.57792  0.86651  0.45862  1.0000
  H   H689      1.0  0.59691  0.78701  0.38910  1.0000
  H   H690      1.0  0.55000  0.89204  0.37862  1.0000
  H   H691      1.0  0.67171  0.56650  0.46823  1.0000
  C   C396      1.0  0.57947  0.78084  0.36949  1.0000
  H   H692      1.0  0.58189  0.88938  0.41551  1.0000
  H   H693      1.0  0.89772  0.50072  0.37321  1.0000
  H   H694      1.0  0.52096  0.76637  0.35744  1.0000
  H   H695      1.0  0.66900  0.54462  0.50365  1.0000
  H   H696      1.0  0.57235  0.93536  0.33508  1.0000
  H   H697      1.0  0.55734  0.83282  0.34042  1.0000
  H   H698      1.0  0.58362  0.59386  0.59980  1.0000
  H   H699      1.0  0.62849  0.55029  0.49216  1.0000
  C   C397      1.0  0.52212  0.96985  0.44240  1.0000
  S   S95       1.0  0.53978  0.49584  0.50690  1.0000
  H   H700      1.0  0.52798  0.49876  0.37587  1.0000
  H   H701      1.0  0.50703  0.50861  0.56080  1.0000
  H   H702      1.0  0.62905  0.52332  0.42988  1.0000
  C   C398      1.0  0.60829  0.50021  0.44600  1.0000
  C   C399      1.0  0.54949  0.49248  0.36457  1.0000
  S   S96       1.0  0.49884  0.93050  0.39158  1.0000
  C   C400      1.0  0.49613  0.51461  0.43236  1.0000
  H   H703      1.0  0.55903  0.91692  0.62519  1.0000
  H   H704      1.0  0.65737  0.49726  0.46627  1.0000
  C   C401      1.0  0.91688  0.49343  0.33059  1.0000
  C   C402      1.0  0.49788  0.80614  0.38890  1.0000
  H   H705      1.0  0.95671  0.50394  0.46723  1.0000
  H   H706      1.0  0.59946  0.96158  0.63756  1.0000
  H   H707      1.0  0.49629  0.83257  0.39465  1.0000
  C   C403      1.0  0.98579  0.51693  0.42449  1.0000
  H   H708      1.0  0.55034  0.95433  0.63988  1.0000
  H   H709      1.0  0.55957  0.85846  0.70629  1.0000
  H   H710      1.0  0.50409  0.91011  0.68088  1.0000
  C   C404      1.0  0.52705  0.84023  0.70667  1.0000
  H   H711      1.0  0.51350  0.91473  0.73023  1.0000
  H   H712      1.0  0.56702  0.96044  0.75844  1.0000
  H   H713      1.0  0.89004  0.55831  0.90420  1.0000
  H   H714      1.0  0.50070  0.57211  0.88174  1.0000
  H   H715      1.0  0.82571  0.51139  0.93019  1.0000
  H   H716      1.0  0.57011  0.74143  0.83105  1.0000
  H   H717      1.0  0.79979  0.56189  0.96597  1.0000
  H   H718      1.0  0.52343  0.57465  0.91441  1.0000
  C   C405      1.0  0.51859  0.88948  0.73348  1.0000
  C   C406      1.0  0.51778  0.89122  0.67960  1.0000
  C   C407      1.0  0.57104  0.93590  0.76679  1.0000
  C   C408      1.0  0.57073  0.65550  0.91445  1.0000
  H   H719      1.0  0.58818  0.61380  0.93193  1.0000
  H   H720      1.0  0.53532  0.49655  0.65784  1.0000
  C   C409      1.0  0.57755  0.63337  0.94009  1.0000
  H   H721      1.0  0.56340  0.88049  0.75429  1.0000
  H   H722      1.0  0.57316  0.94428  0.68749  1.0000
  C   C410      1.0  0.49149  0.97096  0.71967  1.0000
  H   H723      1.0  0.55229  0.92224  0.78682  1.0000
  C   C411      1.0  0.56523  0.71101  0.83225  1.0000
  H   H724      1.0  0.57958  0.54266  0.86920  1.0000
  C   C412      1.0  0.89778  0.51783  0.93329  1.0000
  H   H725      1.0  0.59274  0.71182  0.82456  1.0000
  H   H726      1.0  0.50215  0.65915  0.90749  1.0000
  H   H727      1.0  0.91995  0.58214  0.93397  1.0000
  H   H728      1.0  0.50114  0.96762  0.74072  1.0000
  C   C413      1.0  0.56190  0.92015  0.67219  1.0000
  C   C414      1.0  0.56918  0.55925  0.78119  1.0000
  H   H729      1.0  0.53333  0.77275  0.70352  1.0000
  H   H730      1.0  0.59639  0.58095  0.79141  1.0000
  H   H731      1.0  0.97469  0.57525  0.91268  1.0000
  H   H732      1.0  0.53891  0.54076  0.69661  1.0000
  H   H733      1.0  0.58390  0.51379  0.78520  1.0000
  C   C415      1.0  0.52863  0.58995  0.89291  1.0000
  N   N22       1.0  0.50773  0.86530  0.70685  1.0000
  H   H734      1.0  0.59094  0.60762  0.88267  1.0000
  H   H735      1.0  0.57219  0.65221  0.85568  1.0000
  H   H736      1.0  0.50472  0.87311  0.66060  1.0000
  H   H737      1.0  0.55955  0.59029  0.85250  1.0000
  C   C416      1.0  0.54549  0.65100  0.86572  1.0000
  C   C417      1.0  0.54056  0.79047  0.68278  1.0000
  C   C418      1.0  0.55564  0.54461  0.88106  1.0000
  H   H738      1.0  0.52742  0.69615  0.86985  1.0000
  H   H739      1.0  0.52704  0.52231  0.87285  1.0000
  C   C419      1.0  0.51146  0.51402  0.69367  1.0000
  H   H740      1.0  0.52501  0.82889  0.66013  1.0000
  C   C420      1.0  0.56097  0.90517  0.74410  1.0000
  C   C421      1.0  0.56111  0.58574  0.87615  1.0000
  H   H741      1.0  0.57809  0.71328  0.87725  1.0000
  H   H742      1.0  0.57439  0.56330  0.75729  1.0000
  H   H743      1.0  0.58373  0.91865  0.72632  1.0000
  H   H744      1.0  0.49885  0.87183  0.75241  1.0000
  H   H745      1.0  0.92373  0.51662  0.94125  1.0000
  H   H746      1.0  0.95906  0.59989  0.88741  1.0000
  H   H747      1.0  0.59894  0.66991  0.90113  1.0000
  H   H748      1.0  0.55637  0.53783  0.90445  1.0000
  C   C422      1.0  0.83908  0.52092  0.95153  1.0000
  C   C423      1.0  0.56791  0.93928  0.64184  1.0000
  H   H749      1.0  0.51873  0.82184  0.72731  1.0000
  C   C424      1.0  0.51734  0.81227  0.68133  1.0000
  C   C425      1.0  0.60870  0.66216  0.95969  1.0000
  H   H750      1.0  0.54118  0.69303  0.81773  1.0000
  H   H751      1.0  0.52099  0.63329  0.85138  1.0000
  H   H752      1.0  0.54509  0.56517  0.78735  1.0000
  C   C426      1.0  0.55375  0.69410  0.86344  1.0000
  H   H753      1.0  0.49650  0.49154  0.78701  1.0000
  H   H754      1.0  0.63711  0.68059  0.94725  1.0000
  C   C427      1.0  0.78099  0.52937  0.96677  1.0000
  C   C428      1.0  0.91293  0.55907  0.91829  1.0000
  H   H755      1.0  0.60224  0.94814  0.77245  1.0000
  C   C429      1.0  0.80509  0.50975  0.97446  1.0000
  C   C430      1.0  0.55851  0.51758  0.79132  1.0000
  N   N23       1.0  0.53649  0.63146  0.89578  1.0000
  H   H756      1.0  0.56785  0.68012  0.92330  1.0000
  H   H757      1.0  0.85562  0.55347  0.94961  1.0000
  C   C431      1.0  0.95008  0.57144  0.89921  1.0000
  H   H758      1.0  0.55050  0.61483  0.95370  1.0000
  H   H759      1.0  0.76756  0.51985  0.94554  1.0000
  H   H760      1.0  0.55422  0.51553  0.81524  1.0000
  H   H761      1.0  0.52214  0.49425  0.75438  1.0000
  H   H762      1.0  0.57274  0.81155  0.68087  1.0000
  H   H763      1.0  0.94485  0.54908  0.88309  1.0000
  H   H764      1.0  0.57978  0.90545  0.67282  1.0000
  N   N24       1.0  0.86607  0.50454  0.95733  1.0000
  H   H765      1.0  0.50475  0.63369  0.95429  1.0000
  H   H766      1.0  0.88726  0.49721  0.91527  1.0000
  C   C432      1.0  0.49912  0.62954  0.90742  1.0000
  H   H767      1.0  0.53277  0.77027  0.66468  1.0000
  H   H768      1.0  0.59878  0.68143  0.96957  1.0000
