data_image0
_chemical_formula_structural       Fe2SHSFeS2FeSHFeSFeS3H2C6H4C4HCHCHC6H3C2H4C2HCH6CH3SH2CHSH5CH2CH2CH5CH5CH2NC7H2C3HSH8C2HC2H7CH3CH3C3H4CFeS2H3CFeSCSH3SHS2CHC6H4C2HC5H2CH6CFeHCH4CH2C2HNHC2H2CH4CHCNH5CH2CHFeHSH3CH2CH4CH4CH2SC2HCHCHCSCH2C2HNCH5NCH4FeCFe2S2Fe2S3H6SFeH2S2H3NC2HC5H3CSCFeCH2C7HFeHN2CHC4SCSC2H4CH3CH7SC3H6SHFeH2CHFe2CFeHCH2CH4CH5C2HCH2CH2C2H4CHCH2CH2CH2CHCH2CH7CNHC2HCSHCHCH2SH2C3H2C2H4CH2SH3C2H8C2H2CH4NCH2S5FeSCFeS2FeHSHFeS3HCH3CHCH2C2HC4HSFeHC2H2C6H4SC3HCH3CHNCHSH4SC2SHSHC2H2CH2CH2CH3CH2CNCHCH4CHFeCHC2HCH3C2HCHCHCH4C2H3CH5C2HCH3CH2CH5C2H5CHCSH5C2H3CNHSFe2CH3C2H6CH2CHCH2C2SHCH7CFeS2H4FeSCS3CSFeS2FeSFeHSHCHC6HCH2C6H4C2HC6H5NHC4HC3H2SH5FeCH2SHCH18CH2C2H8CH6SHCH2CFeCHC3HNH2CHC2H6CHC2H4NC2H6CHCH4CHFeHC2H3CH6SHCHSFeS2FeHFeS3FeS2FeS2FeHFeS4CHC6H4C2SH5FeC6H4NCH2C4H4C3H2SH2CH3C3HCH3CH3CHCH3NHC4HC2HCHC2H7CH5NC2H5CH3C6HCH4C2H4CHCH9CH5C2HCH2CH2CH2CH8CH7CH3CHCHSHC2FeS2FeSHSHFeS2FeS2FeSFeS2HC6H3C6H4C6H5C6H4C2HCH2NC11NH12CH3CH10FeCH3FeSH2CHCHCHCH7CH2SCHNC5HC4SCHCH15C2HCHCH5CNH4CH3CH2CHCHSH2CH2CH2CHCH2CHCHCHCH4C2H8NCHCH9CHSHCH3CHCH6C2H3SH2CHCH2SFeS2FeS2FeSFeS2H2FeSHFeS2Fe2S3C6H5CHC6H4C4HCH3C5H5C3HCH4C2H7NH3CHCH4C2H5CH3CH4CHSHCH4CH10CH3CHC2H2CH2CH4NC2HC2H9CH4CH3NC11H16CH8NC2HC3HC3H2C2HC2H3SHCH2C2H3CH5NH3CHCH8S2FeSH3SCSFeSH2SH3C2H2C2FeC5NSH2CH2CHCH3C4FeH6C3H3C2H3C2HCNH4SHCH4SH5NHFeHC2SHCHCHC2HCN2H6CHCHC2HC4HCH5C3H3C2H2CH2CFeCH3CHCH2C3HC2H2CHCH2C2HC2H10CH2C2H7CH2CH7C3H4CH5CSHCH2CS2FeSFeS3FeHSC6H5FeC3HC2H2C4HC2H6CH10C2HCH6SCHC4SHNCSH2C2HC3H3SH2CNH2CH3SH4C3HCH2CH5FeCH2FeH2CH2CH4CHCHSCHC2H2CH2CNCH7C2H2CH3C2HCH2C3H4CH5C2H2C2H3CH3FeCH9CSC2SH3FeSC2HC4HCH2CH8C3H4CH5CHC2H4CH3CFeHC2NH2CH2C2H2CH2CH5CHNH2SH3SHCHSH6SH4FeHC2H4CHSH2CHCH3C2NCHCHFeCHC2H4CHCHSHCSHCHCH2CHC3H3FeHC2HCHC2H13CH4S
_chemical_formula_sum              "Fe80 S160 H1280 C720 N40"
_cell_length_a       49.0683
_cell_length_b       39.4887
_cell_length_c       39.0846
_cell_angle_alpha    89.7076
_cell_angle_beta     105.615
_cell_angle_gamma    90.0266

_space_group_name_H-M_alt    "P 1"
_space_group_IT_number       1

loop_
  _space_group_symop_operation_xyz
  'x, y, z'

loop_
  _atom_site_type_symbol
  _atom_site_label
  _atom_site_symmetry_multiplicity
  _atom_site_fract_x
  _atom_site_fract_y
  _atom_site_fract_z
  _atom_site_occupancy
  Fe  Fe1       1.0  0.01596  0.14267  0.47159  1.0000
  Fe  Fe2       1.0  0.01938  0.20381  0.42252  1.0000
  S   S1        1.0  0.05099  0.24108  0.40996  1.0000
  H   H1        1.0  0.06017  0.07960  0.27651  1.0000
  S   S2        1.0  0.02393  0.14734  0.41757  1.0000
  Fe  Fe3       1.0  0.06262  0.38517  0.26764  1.0000
  S   S3        1.0  0.10321  0.36286  0.26171  1.0000
  S   S4        1.0  0.03052  0.35656  0.29035  1.0000
  Fe  Fe4       1.0  0.06594  0.44476  0.21606  1.0000
  S   S5        1.0  0.10579  0.42448  0.20629  1.0000
  H   H2        1.0  0.09640  0.06581  0.43286  1.0000
  Fe  Fe5       1.0  0.08542  0.37297  0.20291  1.0000
  S   S6        1.0  0.08084  0.32827  0.16446  1.0000
  Fe  Fe6       1.0  0.11931  0.41697  0.26611  1.0000
  S   S7        1.0  0.16372  0.43737  0.29290  1.0000
  S   S8        1.0  0.04481  0.39390  0.20902  1.0000
  S   S9        1.0  0.07955  0.43895  0.27566  1.0000
  H   H3        1.0  0.23671  0.50121  0.38007  1.0000
  H   H4        1.0  0.12355  0.48490  0.38717  1.0000
  C   C1        1.0  0.06602  0.32785  0.11761  1.0000
  C   C2        1.0  0.05945  0.35767  0.09758  1.0000
  C   C3        1.0  0.04760  0.35604  0.06048  1.0000
  C   C4        1.0  0.04156  0.32473  0.04301  1.0000
  C   C5        1.0  0.04815  0.29490  0.06301  1.0000
  C   C6        1.0  0.06047  0.29651  0.10005  1.0000
  H   H5        1.0  0.06389  0.38192  0.11064  1.0000
  H   H6        1.0  0.07206  0.46588  0.05521  1.0000
  H   H7        1.0  0.04388  0.27063  0.04994  1.0000
  H   H8        1.0  0.06566  0.27330  0.11523  1.0000
  C   C7        1.0  0.17902  0.45428  0.33611  1.0000
  C   C8        1.0  0.05665  0.02593  0.45364  1.0000
  C   C9        1.0  0.07943  0.48187  0.03589  1.0000
  C   C10       1.0  0.16798  0.44750  0.36493  1.0000
  H   H9        1.0  0.11200  0.14900  0.42918  1.0000
  C   C11       1.0  0.20388  0.47383  0.34198  1.0000
  H   H10       1.0  0.10223  0.19305  0.42510  1.0000
  C   C12       1.0  0.01248  0.05545  0.32044  1.0000
  H   H11       1.0  0.13851  0.48020  0.16476  1.0000
  C   C13       1.0  0.04478  0.27289  0.37634  1.0000
  C   C14       1.0  0.06775  0.29215  0.37195  1.0000
  C   C15       1.0  0.06395  0.31726  0.34524  1.0000
  C   C16       1.0  0.03699  0.32367  0.32282  1.0000
  C   C17       1.0  0.01406  0.30411  0.32694  1.0000
  C   C18       1.0  0.01790  0.27877  0.35342  1.0000
  H   H12       1.0  0.08867  0.28776  0.38942  1.0000
  H   H13       1.0  0.08178  0.33212  0.34247  1.0000
  H   H14       1.0  0.01663  0.35780  0.13724  1.0000
  C   C19       1.0  0.18198  0.45950  0.39916  1.0000
  C   C20       1.0  0.01023  0.19599  0.29013  1.0000
  H   H15       1.0  0.04318  0.37917  0.04518  1.0000
  H   H16       1.0  0.00399  0.32012  0.08749  1.0000
  H   H17       1.0  0.01830  0.32707  0.20107  1.0000
  H   H18       1.0  0.02026  0.43437  0.03783  1.0000
  C   C21       1.0  0.07725  0.07965  0.43507  1.0000
  C   C22       1.0  0.99738  0.29135  0.44948  1.0000
  H   H19       1.0  0.09346  0.10175  0.28634  1.0000
  C   C23       1.0  0.11013  0.17176  0.41189  1.0000
  H   H20       1.0  0.01960  0.41791  0.12020  1.0000
  H   H21       1.0  0.09226  0.41268  0.04021  1.0000
  H   H22       1.0  0.99275  0.40242  0.03029  1.0000
  H   H23       1.0  0.07831  0.29119  0.27613  1.0000
  H   H24       1.0  0.21275  0.47906  0.31999  1.0000
  H   H25       1.0  0.12364  0.46353  0.04766  1.0000
  C   C24       1.0  0.09628  0.42609  0.01696  1.0000
  H   H26       1.0  0.10743  0.24899  0.31991  1.0000
  H   H27       1.0  0.08085  0.26300  0.24062  1.0000
  H   H28       1.0  0.09425  0.16379  0.29659  1.0000
  S   S10       1.0  0.22374  0.49284  0.44902  1.0000
  H   H29       1.0  0.10539  0.22001  0.28365  1.0000
  H   H30       1.0  0.06906  0.15800  0.38037  1.0000
  C   C25       1.0  0.05157  0.05614  0.42728  1.0000
  H   H31       1.0  0.17359  0.45337  0.42134  1.0000
  S   S11       1.0  0.01601  0.19908  0.47875  1.0000
  H   H32       1.0  0.99816  0.34675  0.40086  1.0000
  H   H33       1.0  0.01213  0.10377  0.34626  1.0000
  H   H34       1.0  0.02548  0.16871  0.03793  1.0000
  H   H35       1.0  0.07786  0.01500  0.45489  1.0000
  H   H36       1.0  0.03392  0.20869  0.34325  1.0000
  C   C26       1.0  0.08962  0.16463  0.37561  1.0000
  H   H37       1.0  0.07321  0.10079  0.41555  1.0000
  H   H38       1.0  0.99478  0.37615  0.34469  1.0000
  C   C27       1.0  0.00221  0.30687  0.19247  1.0000
  H   H39       1.0  0.08431  0.21860  0.36544  1.0000
  H   H40       1.0  0.01293  0.18266  0.26635  1.0000
  C   C28       1.0  0.10384  0.46321  0.02578  1.0000
  H   H41       1.0  0.06148  0.48202  0.01140  1.0000
  H   H42       1.0  0.06588  0.11176  0.24635  1.0000
  H   H43       1.0  0.11225  0.28114  0.26928  1.0000
  H   H44       1.0  0.01966  0.29700  0.14822  1.0000
  H   H45       1.0  0.09461  0.50079  0.12559  1.0000
  C   C29       1.0  0.99369  0.35884  0.13617  1.0000
  H   H46       1.0  0.03407  0.05805  0.31899  1.0000
  H   H47       1.0  0.00752  0.22346  0.28373  1.0000
  H   H48       1.0  0.04766  0.04793  0.39934  1.0000
  H   H49       1.0  0.99364  0.26144  0.09140  1.0000
  H   H50       1.0  0.11416  0.41322  0.00994  1.0000
  C   C30       1.0  0.99691  0.02649  0.30615  1.0000
  H   H51       1.0  0.06302  0.17382  0.26344  1.0000
  H   H52       1.0  0.00431  0.29725  0.42547  1.0000
  N   N1        1.0  0.06472  0.19433  0.31551  1.0000
  C   C31       1.0  0.20685  0.47899  0.40501  1.0000
  C   C32       1.0  0.08729  0.19556  0.35050  1.0000
  C   C33       1.0  0.06494  0.22815  0.29716  1.0000
  C   C34       1.0  0.07096  0.16667  0.29203  1.0000
  C   C35       1.0  0.05831  0.13103  0.29525  1.0000
  C   C36       1.0  0.99726  0.42961  0.02681  1.0000
  C   C37       1.0  0.09411  0.24048  0.29364  1.0000
  H   H53       1.0  0.03270  0.31834  0.48467  1.0000
  H   H54       1.0  0.06253  0.12229  0.32309  1.0000
  C   C38       1.0  0.07026  0.10453  0.27482  1.0000
  C   C39       1.0  0.03612  0.19041  0.32264  1.0000
  C   C40       1.0  0.09102  0.27076  0.26836  1.0000
  H   H55       1.0  0.03338  0.07139  0.43025  1.0000
  S   S12       1.0  0.04201  0.48909  0.18400  1.0000
  H   H56       1.0  0.10867  0.19814  0.34611  1.0000
  H   H57       1.0  0.14911  0.43221  0.36101  1.0000
  H   H58       1.0  0.05661  0.24843  0.31134  1.0000
  H   H59       1.0  0.05043  0.22766  0.26984  1.0000
  H   H60       1.0  0.03499  0.13132  0.28391  1.0000
  H   H61       1.0  0.03379  0.16530  0.33430  1.0000
  H   H62       1.0  0.09809  0.14253  0.36436  1.0000
  H   H63       1.0  0.13147  0.17821  0.40910  1.0000
  C   C41       1.0  0.11151  0.49429  0.11290  1.0000
  C   C42       1.0  0.00014  0.08131  0.33608  1.0000
  H   H64       1.0  0.01810  0.28312  0.24413  1.0000
  C   C43       1.0  0.02341  0.29252  0.48142  1.0000
  C   C44       1.0  0.21755  0.48643  0.37608  1.0000
  H   H65       1.0  0.99661  0.11890  0.01204  1.0000
  H   H66       1.0  0.15719  0.48659  0.13134  1.0000
  H   H67       1.0  0.05851  0.03751  0.48005  1.0000
  H   H68       1.0  0.01006  0.03117  0.47070  1.0000
  H   H69       1.0  0.03228  0.26573  0.20988  1.0000
  H   H70       1.0  0.10856  0.46762  0.10396  1.0000
  H   H71       1.0  0.99896  0.42797  0.15082  1.0000
  C   C45       1.0  0.01290  0.27583  0.21566  1.0000
  H   H72       1.0  0.03969  0.27465  0.47722  1.0000
  H   H73       1.0  0.99314  0.30882  0.30967  1.0000
  H   H74       1.0  0.00007  0.26400  0.35626  1.0000
  C   C46       1.0  0.99778  0.42124  0.12289  1.0000
  H   H75       1.0  0.08116  0.09049  0.46216  1.0000
  H   H76       1.0  0.01774  0.28489  0.50603  1.0000
  H   H77       1.0  0.02432  0.50418  0.02615  1.0000
  C   C47       1.0  0.13964  0.49611  0.14164  1.0000
  C   C48       1.0  0.99809  0.29918  0.15242  1.0000
  C   C49       1.0  0.00655  0.01117  0.44991  1.0000
  H   H78       1.0  0.99270  0.36617  0.16323  1.0000
  H   H79       1.0  0.99644  0.25579  0.21078  1.0000
  H   H80       1.0  0.04694  0.13225  0.03519  1.0000
  H   H81       1.0  0.99541  0.04450  0.40233  1.0000
  C   C50       1.0  0.03230  0.15152  0.01937  1.0000
  Fe  Fe7       1.0  0.06085  0.02761  0.77228  1.0000
  S   S13       1.0  0.10177  0.05024  0.76774  1.0000
  S   S14       1.0  0.03291  0.04964  0.80545  1.0000
  H   H82       1.0  0.16370  0.04970  0.79795  1.0000
  H   H83       1.0  0.03112  0.13395  0.66159  1.0000
  H   H84       1.0  0.02073  0.18772  0.60756  1.0000
  C   C51       1.0  0.17257  0.07801  0.75394  1.0000
  Fe  Fe8       1.0  0.08270  0.04555  0.70862  1.0000
  S   S15       1.0  0.08550  0.09229  0.67518  1.0000
  C   C52       1.0  0.00634  0.13451  0.99485  1.0000
  S   S16       1.0  0.04126  0.02495  0.71309  1.0000
  H   H85       1.0  0.06368  0.18323  0.75277  1.0000
  H   H86       1.0  0.19227  0.13883  0.65591  1.0000
  H   H87       1.0  0.01642  0.22983  0.77445  1.0000
  S   S17       1.0  0.04253  0.19017  0.88856  1.0000
  H   H88       1.0  0.03728  0.17714  0.67386  1.0000
  S   S18       1.0  0.00059  0.43660  0.79011  1.0000
  S   S19       1.0  0.01238  0.27991  0.90418  1.0000
  C   C53       1.0  0.04379  0.13498  0.73106  1.0000
  H   H89       1.0  0.02135  0.37416  0.82380  1.0000
  C   C54       1.0  0.07051  0.09377  0.62858  1.0000
  C   C55       1.0  0.06100  0.06450  0.60908  1.0000
  C   C56       1.0  0.05025  0.06641  0.57188  1.0000
  C   C57       1.0  0.04824  0.09761  0.55386  1.0000
  C   C58       1.0  0.05732  0.12700  0.57347  1.0000
  C   C59       1.0  0.06868  0.12500  0.61064  1.0000
  H   H90       1.0  0.06223  0.04031  0.62257  1.0000
  H   H91       1.0  0.04329  0.04357  0.55702  1.0000
  H   H92       1.0  0.05614  0.15113  0.55991  1.0000
  H   H93       1.0  0.07610  0.14777  0.62551  1.0000
  C   C60       1.0  0.06900  0.16023  0.73970  1.0000
  C   C61       1.0  0.99399  0.09639  0.73161  1.0000
  H   H94       1.0  0.19081  0.08128  0.81105  1.0000
  C   C62       1.0  0.09529  0.14446  0.76489  1.0000
  C   C63       1.0  0.03560  0.09049  0.82521  1.0000
  C   C64       1.0  0.06168  0.10648  0.83870  1.0000
  C   C65       1.0  0.06326  0.13726  0.85734  1.0000
  C   C66       1.0  0.03881  0.15276  0.86237  1.0000
  H   H95       1.0  0.99152  0.15472  0.98190  1.0000
  H   H96       1.0  0.03977  0.37688  0.94935  1.0000
  C   C67       1.0  0.02163  0.15636  0.67141  1.0000
  H   H97       1.0  0.07109  0.35521  0.91464  1.0000
  H   H98       1.0  0.13942  0.06250  0.70825  1.0000
  H   H99       1.0  0.15400  0.02876  0.73600  1.0000
  H   H100      1.0  0.08080  0.09448  0.83597  1.0000
  H   H101      1.0  0.19053  0.09253  0.74913  1.0000
  H   H102      1.0  0.16301  0.11697  0.69459  1.0000
  C   C68       1.0  0.00285  0.17811  0.75927  1.0000
  Fe  Fe9       1.0  0.00621  0.28076  0.95933  1.0000
  H   H103      1.0  0.00764  0.14506  0.59712  1.0000
  C   C69       1.0  0.01104  0.10634  0.82957  1.0000
  H   H104      1.0  0.99412  0.46877  0.86542  1.0000
  H   H105      1.0  0.02938  0.09288  0.98319  1.0000
  H   H106      1.0  0.08370  0.14882  0.86860  1.0000
  H   H107      1.0  0.99512  0.10427  0.67829  1.0000
  C   C70       1.0  0.03482  0.02547  0.90637  1.0000
  H   H108      1.0  0.07636  0.39992  0.92296  1.0000
  H   H109      1.0  0.99824  0.32538  0.84442  1.0000
  C   C71       1.0  0.00295  0.41788  0.96510  1.0000
  C   C72       1.0  0.18195  0.06163  0.79090  1.0000
  H   H110      1.0  0.11250  0.16354  0.77176  1.0000
  N   N2        1.0  0.17853  0.04322  0.69997  1.0000
  H   H111      1.0  0.02170  0.16735  0.77858  1.0000
  C   C73       1.0  0.99866  0.37419  0.81971  1.0000
  C   C74       1.0  0.01254  0.13763  0.84736  1.0000
  H   H112      1.0  0.14222  0.09296  0.65851  1.0000
  H   H113      1.0  0.10278  0.12281  0.75186  1.0000
  C   C75       1.0  0.00474  0.07504  0.91579  1.0000
  H   H114      1.0  0.05054  0.11186  0.71931  1.0000
  H   H115      1.0  0.15595  0.09698  0.75461  1.0000
  H   H116      1.0  0.00412  0.49293  0.63681  1.0000
  H   H117      1.0  0.07509  0.16778  0.71544  1.0000
  C   C76       1.0  0.17107  0.12748  0.64446  1.0000
  H   H118      1.0  0.02786  0.12787  0.95365  1.0000
  C   C77       1.0  0.16382  0.10248  0.67065  1.0000
  N   N3        1.0  0.01633  0.14816  0.70693  1.0000
  H   H119      1.0  0.21680  0.04644  0.74312  1.0000
  H   H120      1.0  0.15510  0.14816  0.63853  1.0000
  H   H121      1.0  0.19141  0.06527  0.65602  1.0000
  H   H122      1.0  0.02573  0.42458  0.97538  1.0000
  H   H123      1.0  0.17071  0.11462  0.61913  1.0000
  C   C78       1.0  0.03389  0.38169  0.92034  1.0000
  H   H124      1.0  0.20593  0.08578  0.69688  1.0000
  H   H125      1.0  0.03429  0.43675  0.91920  1.0000
  C   C79       1.0  0.16000  0.05213  0.72379  1.0000
  H   H126      1.0  0.09075  0.13572  0.78982  1.0000
  Fe  Fe10      1.0  0.01040  0.22280  0.90675  1.0000
  H   H127      1.0  0.14200  0.04612  0.62699  1.0000
  S   S20       1.0  0.00868  0.22397  0.96390  1.0000
  H   H128      1.0  0.19835  0.04196  0.79238  1.0000
  H   H129      1.0  0.04114  0.12635  0.75701  1.0000
  H   H130      1.0  0.02030  0.36054  0.90699  1.0000
  C   C80       1.0  0.06115  0.38059  0.90857  1.0000
  H   H131      1.0  0.02120  0.20138  0.72006  1.0000
  H   H132      1.0  0.05666  0.38520  0.87954  1.0000
  C   C81       1.0  0.18619  0.07359  0.68072  1.0000
  H   H133      1.0  0.00019  0.47615  0.92908  1.0000
  H   H134      1.0  0.99478  0.10982  0.75646  1.0000
  H   H135      1.0  0.31971  0.47142  0.59349  1.0000
  H   H136      1.0  0.00151  0.39078  0.97251  1.0000
  C   C82       1.0  0.13676  0.02723  0.64536  1.0000
  H   H137      1.0  0.01616  0.01226  0.88916  1.0000
  H   H138      1.0  0.04599  0.05887  0.95056  1.0000
  H   H139      1.0  0.12076  0.03814  0.65734  1.0000
  H   H140      1.0  0.01195  0.41725  0.88087  1.0000
  C   C83       1.0  0.01840  0.41617  0.91043  1.0000
  H   H141      1.0  0.07730  0.42408  0.99396  1.0000
  H   H142      1.0  0.10776  0.47503  0.00175  1.0000
  S   S21       1.0  0.02545  0.32459  0.99642  1.0000
  C   C84       1.0  0.00657  0.18009  0.72116  1.0000
  C   C85       1.0  0.20519  0.02759  0.72352  1.0000
  H   H143      1.0  0.01286  0.07985  0.73638  1.0000
  C   C86       1.0  0.16391  0.01638  0.67396  1.0000
  H   H144      1.0  0.99348  0.14975  0.85001  1.0000
  C   C87       1.0  0.00250  0.17048  0.60574  1.0000
  H   H145      1.0  0.04382  0.16678  0.00379  1.0000
  C   C88       1.0  0.99362  0.12108  0.70061  1.0000
  S   S22       1.0  0.03616  0.09809  0.50680  1.0000
  C   C89       1.0  0.99540  0.16787  0.64143  1.0000
  H   H146      1.0  0.01608  0.09231  0.90168  1.0000
  H   H147      1.0  0.23063  0.03199  0.68474  1.0000
  C   C90       1.0  0.99787  0.21318  0.77287  1.0000
  C   C91       1.0  0.01486  0.11209  0.96713  1.0000
  H   H148      1.0  0.26485  0.02923  0.74480  1.0000
  N   N4        1.0  0.99328  0.42220  0.92506  1.0000
  C   C92       1.0  0.02624  0.04728  0.93401  1.0000
  H   H149      1.0  0.04466  0.04138  0.88938  1.0000
  H   H150      1.0  0.99493  0.21081  0.80002  1.0000
  H   H151      1.0  0.01719  0.03044  0.95095  1.0000
  H   H152      1.0  0.99074  0.09424  0.81914  1.0000
  H   H153      1.0  0.99285  0.46672  0.98570  1.0000
  N   N5        1.0  0.99117  0.09524  0.93964  1.0000
  C   C93       1.0  0.22681  0.01362  0.70451  1.0000
  H   H154      1.0  0.17815  0.00684  0.65841  1.0000
  H   H155      1.0  0.05051  0.00611  0.91990  1.0000
  H   H156      1.0  0.19978  0.00632  0.73951  1.0000
  H   H157      1.0  0.19127  0.50121  0.50749  1.0000
  Fe  Fe11      1.0  0.09903  0.70113  0.03595  1.0000
  C   C94       1.0  0.99504  0.77285  0.12982  1.0000
  Fe  Fe12      1.0  0.30978  0.57570  0.46302  1.0000
  Fe  Fe13      1.0  0.08694  0.64841  0.08922  1.0000
  S   S23       1.0  0.04068  0.64779  0.06227  1.0000
  S   S24       1.0  0.10588  0.61471  0.13730  1.0000
  Fe  Fe14      1.0  0.99155  0.94538  0.26384  1.0000
  Fe  Fe15      1.0  0.04505  0.70477  0.06132  1.0000
  S   S25       1.0  0.01160  0.73425  0.08038  1.0000
  S   S26       1.0  0.09927  0.64424  0.03815  1.0000
  S   S27       1.0  0.09129  0.70543  0.09029  1.0000
  H   H158      1.0  0.28923  0.66479  0.46877  1.0000
  H   H159      1.0  0.02235  0.54433  0.13596  1.0000
  H   H160      1.0  0.00969  0.68392  0.18589  1.0000
  H   H161      1.0  0.01474  0.66434  0.47011  1.0000
  H   H162      1.0  0.04544  0.76538  0.27523  1.0000
  H   H163      1.0  0.21162  0.59644  0.36960  1.0000
  S   S28       1.0  0.04921  0.74384  0.44208  1.0000
  Fe  Fe16      1.0  0.26141  0.52848  0.47029  1.0000
  H   H164      1.0  0.27399  0.65886  0.33976  1.0000
  H   H165      1.0  0.21649  0.62647  0.40538  1.0000
  S   S29       1.0  0.26231  0.58028  0.44707  1.0000
  S   S30       1.0  0.27697  0.89041  0.02355  1.0000
  H   H166      1.0  0.18810  0.54670  0.46475  1.0000
  H   H167      1.0  0.09773  0.51071  0.39991  1.0000
  H   H168      1.0  0.05725  0.51312  0.08416  1.0000
  N   N6        1.0  0.03467  0.99817  0.44635  1.0000
  C   C95       1.0  0.16120  0.74840  0.02088  1.0000
  C   C96       1.0  0.20417  0.88715  0.05586  1.0000
  H   H169      1.0  0.19814  0.86084  0.06089  1.0000
  C   C97       1.0  0.02155  0.81994  0.16288  1.0000
  C   C98       1.0  0.04359  0.81270  0.14725  1.0000
  C   C99       1.0  0.04136  0.78586  0.12293  1.0000
  C   C100      1.0  0.01681  0.76617  0.11352  1.0000
  C   C101      1.0  0.00907  0.54768  0.04756  1.0000
  H   H170      1.0  0.06241  0.82829  0.15361  1.0000
  H   H171      1.0  0.05830  0.78107  0.11067  1.0000
  H   H172      1.0  0.04330  0.94077  0.14603  1.0000
  C   C102      1.0  0.17126  0.76133  0.05523  1.0000
  S   S31       1.0  0.02490  0.85569  0.19133  1.0000
  C   C103      1.0  0.21197  0.78682  0.03954  1.0000
  Fe  Fe17      1.0  0.26649  0.59946  0.50216  1.0000
  C   C104      1.0  0.02625  0.76521  0.25233  1.0000
  H   H173      1.0  0.15951  0.75683  0.07458  1.0000
  H   H174      1.0  0.27997  0.74015  0.41155  1.0000
  C   C105      1.0  0.99891  0.82644  0.36807  1.0000
  C   C106      1.0  0.08756  0.58063  0.15098  1.0000
  C   C107      1.0  0.05854  0.57565  0.13642  1.0000
  C   C108      1.0  0.04480  0.54798  0.14742  1.0000
  C   C109      1.0  0.05996  0.52467  0.17272  1.0000
  C   C110      1.0  0.08886  0.53008  0.18799  1.0000
  C   C111      1.0  0.10249  0.55814  0.17739  1.0000
  H   H175      1.0  0.04670  0.59287  0.11638  1.0000
  Fe  Fe18      1.0  0.99608  0.87992  0.22199  1.0000
  H   H176      1.0  0.12485  0.56208  0.18935  1.0000
  N   N7        1.0  0.15600  0.58614  0.45158  1.0000
  N   N8        1.0  0.05447  0.69581  0.19902  1.0000
  C   C112      1.0  0.07705  0.70039  0.17966  1.0000
  H   H177      1.0  0.02665  0.78774  0.23531  1.0000
  C   C113      1.0  0.04996  0.72995  0.21411  1.0000
  C   C114      1.0  0.06259  0.67017  0.22898  1.0000
  C   C115      1.0  0.08154  0.64000  0.22392  1.0000
  C   C116      1.0  0.10523  0.71602  0.20220  1.0000
  S   S32       1.0  0.01250  0.99581  0.28421  1.0000
  C   C117      1.0  0.18425  0.90106  0.02168  1.0000
  S   S33       1.0  0.24353  0.81124  0.05246  1.0000
  C   C118      1.0  0.08235  0.61197  0.25127  1.0000
  C   C119      1.0  0.12980  0.70942  0.18603  1.0000
  H   H178      1.0  0.03312  0.54403  0.00944  1.0000
  H   H179      1.0  0.06910  0.71716  0.15600  1.0000
  H   H180      1.0  0.08202  0.67618  0.16840  1.0000
  H   H181      1.0  0.16888  0.57390  0.38366  1.0000
  C   C120      1.0  0.28704  0.73003  0.43920  1.0000
  H   H182      1.0  0.04677  0.74993  0.19311  1.0000
  H   H183      1.0  0.06919  0.73763  0.23505  1.0000
  H   H184      1.0  0.07426  0.68254  0.25423  1.0000
  C   C121      1.0  0.02476  0.73261  0.23093  1.0000
  H   H185      1.0  0.10362  0.64855  0.22706  1.0000
  H   H186      1.0  0.07428  0.62852  0.19736  1.0000
  H   H187      1.0  0.10283  0.74392  0.20381  1.0000
  H   H188      1.0  0.11111  0.70584  0.22971  1.0000
  H   H189      1.0  0.99980  0.71170  0.50361  1.0000
  H   H190      1.0  0.13102  0.51334  0.07391  1.0000
  H   H191      1.0  0.04366  0.65046  0.13983  1.0000
  S   S34       1.0  0.30891  0.52152  0.48136  1.0000
  C   C122      1.0  0.30981  0.67755  0.47156  1.0000
  C   C123      1.0  0.30221  0.68267  0.40680  1.0000
  C   C124      1.0  0.00811  0.79732  0.35422  1.0000
  H   H192      1.0  0.04319  0.65955  0.23460  1.0000
  H   H193      1.0  0.09674  0.59141  0.24755  1.0000
  H   H194      1.0  0.09026  0.62191  0.27869  1.0000
  H   H195      1.0  0.12618  0.72258  0.16006  1.0000
  H   H196      1.0  0.14973  0.71933  0.20395  1.0000
  H   H197      1.0  0.13248  0.68183  0.18237  1.0000
  S   S35       1.0  0.05258  0.70409  0.00654  1.0000
  H   H198      1.0  0.02928  0.94983  0.47027  1.0000
  Fe  Fe19      1.0  0.06246  0.74327  0.50263  1.0000
  H   H199      1.0  0.15947  0.62478  0.49165  1.0000
  H   H200      1.0  0.25589  0.68198  0.38862  1.0000
  C   C125      1.0  0.17031  0.60703  0.42897  1.0000
  H   H201      1.0  0.00195  0.86629  0.10308  1.0000
  Fe  Fe20      1.0  0.05282  0.64716  0.01065  1.0000
  Fe  Fe21      1.0  0.32118  0.87903  0.02095  1.0000
  C   C126      1.0  0.12182  0.63693  0.45005  1.0000
  Fe  Fe22      1.0  0.26821  0.83453  0.01622  1.0000
  H   H202      1.0  0.21930  0.74200  0.45097  1.0000
  C   C127      1.0  0.03280  0.98331  0.41025  1.0000
  H   H203      1.0  0.15481  0.62374  0.41054  1.0000
  H   H204      1.0  0.11411  0.54512  0.09245  1.0000
  C   C128      1.0  0.02703  0.68599  0.17268  1.0000
  H   H205      1.0  0.20290  0.90308  0.07870  1.0000
  H   H206      1.0  0.04229  0.92700  0.10173  1.0000
  H   H207      1.0  0.12301  0.57724  0.40316  1.0000
  H   H208      1.0  0.13165  0.56227  0.03923  1.0000
  C   C129      1.0  0.10427  0.65381  0.47215  1.0000
  H   H209      1.0  0.19003  0.92798  0.01889  1.0000
  H   H210      1.0  0.10699  0.62512  0.42663  1.0000
  H   H211      1.0  0.13371  0.65737  0.44073  1.0000
  H   H212      1.0  0.09080  0.63490  0.48097  1.0000
  H   H213      1.0  0.11542  0.56047  0.44157  1.0000
  C   C130      1.0  0.11894  0.54717  0.01654  1.0000
  C   C131      1.0  0.99165  0.88998  0.09033  1.0000
  H   H214      1.0  0.99480  0.99075  0.45964  1.0000
  C   C132      1.0  0.03547  0.92076  0.12591  1.0000
  H   H215      1.0  0.13098  0.59632  0.48846  1.0000
  H   H216      1.0  0.30194  0.69999  0.38422  1.0000
  C   C133      1.0  0.99748  0.79933  0.15461  1.0000
  H   H217      1.0  0.08145  0.56738  0.02556  1.0000
  H   H218      1.0  0.99635  0.77245  0.46936  1.0000
  C   C134      1.0  0.14276  0.61046  0.47227  1.0000
  C   C135      1.0  0.00803  0.94248  0.36186  1.0000
  H   H219      1.0  0.99324  0.96193  0.34678  1.0000
  H   H220      1.0  0.27084  0.64606  0.41623  1.0000
  H   H221      1.0  0.06093  0.60092  0.24767  1.0000
  H   H222      1.0  0.99761  0.91418  0.14243  1.0000
  C   C136      1.0  0.11764  0.51135  0.39156  1.0000
  H   H223      1.0  0.06480  0.95881  0.47017  1.0000
  C   C137      1.0  0.18491  0.58728  0.40472  1.0000
  H   H224      1.0  0.28847  0.62277  0.36744  1.0000
  H   H225      1.0  0.06494  0.55533  0.07357  1.0000
  C   C138      1.0  0.26026  0.72110  0.45155  1.0000
  H   H226      1.0  0.22636  0.88727  0.05405  1.0000
  H   H227      1.0  0.25052  0.69687  0.44055  1.0000
  C   C139      1.0  0.13296  0.56414  0.42879  1.0000
  H   H228      1.0  0.02876  0.63054  0.17258  1.0000
  H   H229      1.0  0.26574  0.71872  0.48091  1.0000
  C   C140      1.0  0.08878  0.54146  0.02098  1.0000
  H   H230      1.0  0.18541  0.62888  0.36790  1.0000
  C   C141      1.0  0.06063  0.52936  0.06237  1.0000
  H   H231      1.0  0.00596  0.53394  0.07108  1.0000
  H   H232      1.0  0.02848  0.92833  0.41556  1.0000
  C   C142      1.0  0.01564  0.94997  0.40156  1.0000
  H   H233      1.0  0.25088  0.62968  0.35388  1.0000
  H   H234      1.0  0.03081  0.81178  0.45629  1.0000
  H   H235      1.0  0.23029  0.75101  0.41144  1.0000
  H   H236      1.0  0.02049  0.70613  0.15211  1.0000
  H   H237      1.0  0.02370  0.00169  0.38863  1.0000
  H   H238      1.0  0.02445  0.71085  0.24890  1.0000
  H   H239      1.0  0.19629  0.58276  0.49149  1.0000
  C   C143      1.0  0.19651  0.78043  0.06446  1.0000
  N   N9        1.0  0.30844  0.70200  0.44131  1.0000
  H   H240      1.0  0.18631  0.62415  0.44624  1.0000
  C   C144      1.0  0.27366  0.66362  0.39535  1.0000
  C   C145      1.0  0.04512  0.97061  0.47381  1.0000
  H   H241      1.0  0.14687  0.53655  0.49721  1.0000
  C   C146      1.0  0.02433  0.77282  0.37722  1.0000
  S   S36       1.0  0.01488  0.89605  0.27894  1.0000
  H   H242      1.0  0.29690  0.75212  0.45552  1.0000
  C   C147      1.0  0.02440  0.80756  0.42795  1.0000
  H   H243      1.0  0.03031  0.74973  0.36633  1.0000
  C   C148      1.0  0.00740  0.83160  0.40502  1.0000
  H   H244      1.0  0.20410  0.79036  0.09107  1.0000
  H   H245      1.0  0.01516  0.57431  0.05490  1.0000
  S   S37       1.0  0.31373  0.82270  0.01880  1.0000
  H   H246      1.0  0.16240  0.90050  0.02463  1.0000
  H   H247      1.0  0.13023  0.52312  0.01563  1.0000
  C   C149      1.0  0.20054  0.61139  0.38581  1.0000
  C   C150      1.0  0.17829  0.56605  0.47810  1.0000
  C   C151      1.0  0.03205  0.77746  0.41422  1.0000
  H   H248      1.0  0.99517  0.66686  0.10467  1.0000
  H   H249      1.0  0.05441  0.97785  0.40750  1.0000
  C   C152      1.0  0.23771  0.74870  0.44083  1.0000
  C   C153      1.0  0.02661  0.65183  0.15340  1.0000
  H   H250      1.0  0.04520  0.89632  0.13714  1.0000
  H   H251      1.0  0.09030  0.67348  0.45596  1.0000
  H   H252      1.0  0.20046  0.56868  0.41990  1.0000
  H   H253      1.0  0.24622  0.77344  0.45234  1.0000
  C   C154      1.0  0.27172  0.64254  0.36206  1.0000
  H   H254      1.0  0.11403  0.52533  0.36599  1.0000
  H   H255      1.0  0.99858  0.62185  0.11218  1.0000
  S   S38       1.0  0.24127  0.64801  0.50262  1.0000
  H   H256      1.0  0.00444  0.73328  0.20976  1.0000
  H   H257      1.0  0.11823  0.66626  0.49586  1.0000
  H   H258      1.0  0.00735  0.76717  0.26272  1.0000
  C   C155      1.0  0.03174  0.53029  0.03368  1.0000
  C   C156      1.0  0.99846  0.64671  0.12532  1.0000
  H   H259      1.0  0.02730  0.94183  0.35208  1.0000
  H   H260      1.0  0.19951  0.70015  0.49563  1.0000
  H   H261      1.0  0.14780  0.84512  0.01471  1.0000
  H   H262      1.0  0.99581  0.95107  0.41002  1.0000
  H   H263      1.0  0.00005  0.89379  0.06683  1.0000
  H   H264      1.0  0.99746  0.91753  0.35675  1.0000
  H   H265      1.0  0.99477  0.94384  0.10656  1.0000
  H   H266      1.0  0.16071  0.52765  0.41058  1.0000
  C   C157      1.0  0.99659  0.66180  0.48190  1.0000
  C   C158      1.0  0.14144  0.52788  0.42008  1.0000
  H   H267      1.0  0.14434  0.52255  0.15092  1.0000
  H   H268      1.0  0.99385  0.72007  0.43982  1.0000
  C   C159      1.0  0.11135  0.51882  0.08164  1.0000
  H   H269      1.0  0.10077  0.51254  0.20780  1.0000
  H   H270      1.0  0.00138  0.79280  0.32592  1.0000
  H   H271      1.0  0.00023  0.85392  0.41601  1.0000
  H   H272      1.0  0.14576  0.51144  0.44405  1.0000
  N   N10       1.0  0.08561  0.51734  0.05001  1.0000
  C   C160      1.0  0.00322  0.91877  0.11718  1.0000
  H   H273      1.0  0.00382  0.83100  0.49645  1.0000
  H   H274      1.0  0.31945  0.66415  0.40763  1.0000
  S   S39       1.0  0.12868  0.72596  0.00677  1.0000
  S   S40       1.0  0.03981  0.92717  0.68518  1.0000
  S   S41       1.0  0.04117  0.60433  0.97009  1.0000
  S   S42       1.0  0.25437  0.83747  0.95662  1.0000
  S   S43       1.0  0.31008  0.88604  0.96160  1.0000
  Fe  Fe23      1.0  0.26493  0.89288  0.96365  1.0000
  S   S44       1.0  0.23405  0.93610  0.94181  1.0000
  C   C161      1.0  0.15832  0.76700  0.64800  1.0000
  Fe  Fe24      1.0  0.08420  0.77956  0.57341  1.0000
  S   S45       1.0  0.04043  0.76758  0.53980  1.0000
  S   S46       1.0  0.10038  0.83057  0.59741  1.0000
  Fe  Fe25      1.0  0.10725  0.70927  0.56315  1.0000
  H   H275      1.0  0.26997  0.99479  0.71709  1.0000
  S   S47       1.0  0.14450  0.67286  0.58107  1.0000
  H   H276      1.0  0.22167  0.68306  0.70142  1.0000
  Fe  Fe26      1.0  0.04632  0.71716  0.56870  1.0000
  S   S48       1.0  0.00967  0.69524  0.58742  1.0000
  S   S49       1.0  0.10610  0.75858  0.53413  1.0000
  S   S50       1.0  0.08850  0.73111  0.60502  1.0000
  H   H277      1.0  0.04903  0.69084  0.88280  1.0000
  C   C162      1.0  0.12309  0.99712  0.62263  1.0000
  H   H278      1.0  0.04116  0.58667  0.76532  1.0000
  H   H279      1.0  0.11285  0.97206  0.93456  1.0000
  H   H280      1.0  0.20110  0.91938  0.81183  1.0000
  C   C163      1.0  0.17089  0.66602  0.55840  1.0000
  H   H281      1.0  0.10108  0.80939  0.95810  1.0000
  C   C164      1.0  0.00437  0.57493  0.86866  1.0000
  H   H282      1.0  0.19215  0.98666  0.91467  1.0000
  H   H283      1.0  0.08306  0.66088  0.81510  1.0000
  C   C165      1.0  0.17916  0.96062  0.82882  1.0000
  C   C166      1.0  0.12415  0.96815  0.91381  1.0000
  H   H284      1.0  0.14728  0.74427  0.63425  1.0000
  C   C167      1.0  0.21424  0.65401  0.52439  1.0000
  C   C168      1.0  0.04426  0.66862  0.83086  1.0000
  C   C169      1.0  0.01315  0.65923  0.61573  1.0000
  C   C170      1.0  0.03754  0.63916  0.62381  1.0000
  H   H285      1.0  0.05806  0.59455  0.65113  1.0000
  S   S51       1.0  0.07721  0.97362  0.77518  1.0000
  Fe  Fe27      1.0  0.30082  0.83014  0.95967  1.0000
  H   H286      1.0  0.10951  0.97452  0.88752  1.0000
  C   C171      1.0  0.02025  0.60480  0.92534  1.0000
  C   C172      1.0  0.17567  0.83130  0.92599  1.0000
  H   H287      1.0  0.03727  0.55721  0.91373  1.0000
  H   H288      1.0  0.08148  0.67504  0.87587  1.0000
  C   C173      1.0  0.05719  0.89997  0.66162  1.0000
  C   C174      1.0  0.04353  0.87033  0.64590  1.0000
  C   C175      1.0  0.05653  0.84855  0.62646  1.0000
  C   C176      1.0  0.08326  0.85645  0.62229  1.0000
  C   C177      1.0  0.09697  0.88592  0.63815  1.0000
  C   C178      1.0  0.08410  0.90746  0.65783  1.0000
  H   H289      1.0  0.02273  0.86427  0.64872  1.0000
  H   H290      1.0  0.04576  0.82591  0.61443  1.0000
  H   H291      1.0  0.11766  0.89221  0.63515  1.0000
  H   H292      1.0  0.09494  0.92995  0.66988  1.0000
  S   S52       1.0  0.02004  0.56396  0.68628  1.0000
  C   C179      1.0  0.21310  0.94444  0.89793  1.0000
  C   C180      1.0  0.19368  0.97142  0.89234  1.0000
  C   C181      1.0  0.17648  0.97920  0.85809  1.0000
  H   H293      1.0  0.21905  0.98951  0.69082  1.0000
  C   C182      1.0  0.99222  0.62092  0.65127  1.0000
  H   H294      1.0  0.10649  0.78980  0.65849  1.0000
  H   H295      1.0  0.17870  0.70281  0.65590  1.0000
  H   H296      1.0  0.14298  0.92835  0.89093  1.0000
  C   C183      1.0  0.17481  0.68840  0.53226  1.0000
  H   H297      1.0  0.03185  0.60291  0.80259  1.0000
  N   N11       1.0  0.16156  0.88453  0.95624  1.0000
  C   C184      1.0  0.02219  0.57720  0.90348  1.0000
  H   H298      1.0  0.05547  0.55554  0.84064  1.0000
  S   S53       1.0  0.31693  0.79693  0.92163  1.0000
  H   H299      1.0  0.12573  0.73257  0.67935  1.0000
  H   H300      1.0  0.20135  0.75326  0.64466  1.0000
  H   H301      1.0  0.99124  0.61153  0.75753  1.0000
  H   H302      1.0  0.16131  0.71041  0.52515  1.0000
  S   S54       1.0  0.06510  0.69193  0.52900  1.0000
  C   C185      1.0  0.02056  0.65048  0.74949  1.0000
  C   C186      1.0  0.19868  0.93369  0.83435  1.0000
  S   S55       1.0  0.16076  0.97228  0.78474  1.0000
  H   H303      1.0  0.21409  0.77755  0.98619  1.0000
  S   S56       1.0  0.10133  0.99401  0.70652  1.0000
  H   H304      1.0  0.07387  0.69401  0.74140  1.0000
  C   C187      1.0  0.17809  0.70117  0.68404  1.0000
  C   C188      1.0  0.06032  0.66580  0.80180  1.0000
  H   H305      1.0  0.06475  0.61655  0.73166  1.0000
  H   H306      1.0  0.99599  0.64479  0.78936  1.0000
  C   C189      1.0  0.17455  0.79697  0.70454  1.0000
  H   H307      1.0  0.20596  0.74395  0.70275  1.0000
  H   H308      1.0  0.13974  0.57178  0.98057  1.0000
  C   C190      1.0  0.18660  0.88098  0.98851  1.0000
  H   H309      1.0  0.13777  0.98621  0.60839  1.0000
  H   H310      1.0  0.19697  0.77748  0.58531  1.0000
  C   C191      1.0  0.04807  0.60493  0.78765  1.0000
  H   H311      1.0  0.02416  0.68265  0.82011  1.0000
  H   H312      1.0  0.13867  0.74696  0.72337  1.0000
  H   H313      1.0  0.10624  0.55251  0.95877  1.0000
  C   C192      1.0  0.07220  0.55578  0.82632  1.0000
  H   H314      1.0  0.31527  0.72088  0.50921  1.0000
  H   H315      1.0  0.08967  0.76441  0.72435  1.0000
  C   C193      1.0  0.18416  0.73609  0.70275  1.0000
  N   N12       1.0  0.16311  0.76379  0.68766  1.0000
  C   C194      1.0  0.06981  0.67037  0.72570  1.0000
  H   H316      1.0  0.07528  0.93610  0.53502  1.0000
  C   C195      1.0  0.06957  0.63889  0.74973  1.0000
  H   H317      1.0  0.15264  0.81806  0.98048  1.0000
  H   H318      1.0  0.17632  0.93506  0.94858  1.0000
  H   H319      1.0  0.06630  0.71431  0.85489  1.0000
  H   H320      1.0  0.15704  0.69136  0.68461  1.0000
  C   C196      1.0  0.21529  0.92528  0.86879  1.0000
  H   H321      1.0  0.15791  0.79435  0.75196  1.0000
  Fe  Fe28      1.0  0.06147  0.97335  0.71546  1.0000
  C   C197      1.0  0.11789  0.56700  0.98249  1.0000
  H   H322      1.0  0.12067  0.86083  0.93519  1.0000
  C   C198      1.0  0.06142  0.68847  0.86294  1.0000
  C   C199      1.0  0.15628  0.92197  0.94897  1.0000
  H   H323      1.0  0.17138  0.85429  0.74555  1.0000
  C   C200      1.0  0.21013  0.63141  0.55024  1.0000
  H   H324      1.0  0.15638  0.81657  0.92583  1.0000
  H   H325      1.0  0.09102  0.68835  0.68698  1.0000
  H   H326      1.0  0.16927  0.74462  0.96947  1.0000
  C   C201      1.0  0.13532  0.75495  0.69519  1.0000
  C   C202      1.0  0.11230  0.78307  0.68699  1.0000
  H   H327      1.0  0.07597  0.74925  0.67922  1.0000
  C   C203      1.0  0.03915  0.61004  0.64528  1.0000
  H   H328      1.0  0.23022  0.90453  0.87270  1.0000
  C   C204      1.0  0.01656  0.60072  0.65910  1.0000
  H   H329      1.0  0.06173  0.95956  0.56634  1.0000
  C   C205      1.0  0.00073  0.63055  0.91174  1.0000
  H   H330      1.0  0.05996  0.69163  0.79029  1.0000
  H   H331      1.0  0.19279  0.82460  0.94984  1.0000
  H   H332      1.0  0.25235  0.98716  0.75137  1.0000
  H   H333      1.0  0.06644  0.53777  0.80376  1.0000
  C   C206      1.0  0.17800  0.79963  0.74512  1.0000
  C   C207      1.0  0.20206  0.77357  0.00533  1.0000
  H   H334      1.0  0.16779  0.82444  0.86876  1.0000
  H   H335      1.0  0.20406  0.83465  0.89155  1.0000
  H   H336      1.0  0.14933  0.93399  0.97090  1.0000
  C   C208      1.0  0.16798  0.54827  0.50788  1.0000
  H   H337      1.0  0.18589  0.62014  0.58755  1.0000
  H   H338      1.0  0.03803  0.93419  0.53316  1.0000
  H   H339      1.0  0.00575  0.55328  0.85238  1.0000
  H   H340      1.0  0.09168  0.63528  0.76624  1.0000
  H   H341      1.0  0.09310  0.59006  0.79934  1.0000
  C   C209      1.0  0.11010  0.82057  0.98478  1.0000
  C   C210      1.0  0.18505  0.82027  0.89345  1.0000
  H   H342      1.0  0.09026  0.64307  0.69086  1.0000
  C   C211      1.0  0.09278  0.66707  0.70610  1.0000
  H   H343      1.0  0.22368  0.60943  0.55738  1.0000
  H   H344      1.0  0.14388  0.78849  0.63751  1.0000
  H   H345      1.0  0.11952  0.80637  0.70249  1.0000
  C   C212      1.0  0.18870  0.63757  0.56732  1.0000
  H   H346      1.0  0.05506  0.64585  0.61320  1.0000
  H   H347      1.0  0.06947  0.79217  0.69005  1.0000
  C   C213      1.0  0.20018  0.67491  0.70226  1.0000
  H   H348      1.0  0.99896  0.65185  0.92832  1.0000
  H   H349      1.0  0.19019  0.83634  0.78774  1.0000
  H   H350      1.0  0.09231  0.54706  0.84496  1.0000
  H   H351      1.0  0.16183  0.79271  0.58290  1.0000
  H   H352      1.0  0.20805  0.84162  0.75337  1.0000
  C   C214      1.0  0.17767  0.77271  0.59428  1.0000
  C   C215      1.0  0.07603  0.59144  0.81297  1.0000
  H   H353      1.0  0.19541  0.65035  0.68814  1.0000
  H   H354      1.0  0.11483  0.91495  0.90948  1.0000
  H   H355      1.0  0.01955  0.67847  0.74556  1.0000
  H   H356      1.0  0.18523  0.73161  0.73122  1.0000
  H   H357      1.0  0.19047  0.79289  0.89574  1.0000
  C   C216      1.0  0.13381  0.93134  0.91385  1.0000
  H   H358      1.0  0.08308  0.60787  0.83665  1.0000
  C   C217      1.0  0.18750  0.83516  0.75861  1.0000
  S   S57       1.0  0.26413  0.54790  0.52564  1.0000
  H   H359      1.0  0.16897  0.74763  0.58402  1.0000
  H   H360      1.0  0.19423  0.78145  0.75989  1.0000
  H   H361      1.0  0.15181  0.87329  0.89992  1.0000
  H   H362      1.0  0.16119  0.81849  0.69089  1.0000
  H   H363      1.0  0.19587  0.80193  0.70079  1.0000
  C   C218      1.0  0.16925  0.86966  0.92454  1.0000
  C   C219      1.0  0.08528  0.77130  0.69580  1.0000
  H   H364      1.0  0.03956  0.64360  0.84088  1.0000
  H   H365      1.0  0.19452  0.79814  0.64369  1.0000
  H   H366      1.0  0.18793  0.88325  0.92004  1.0000
  C   C220      1.0  0.18509  0.77306  0.63484  1.0000
  N   N13       1.0  0.04928  0.64015  0.77285  1.0000
  H   H367      1.0  0.16628  0.56711  0.52826  1.0000
  S   S58       1.0  0.00242  0.53233  0.77198  1.0000
  Fe  Fe29      1.0  0.31162  0.54461  0.53480  1.0000
  Fe  Fe30      1.0  0.11682  0.99630  0.76622  1.0000
  C   C221      1.0  0.13487  0.86849  0.96134  1.0000
  H   H368      1.0  0.11414  0.66763  0.72516  1.0000
  H   H369      1.0  0.04928  0.67307  0.70515  1.0000
  H   H370      1.0  0.11711  0.97709  0.63929  1.0000
  C   C222      1.0  0.05126  0.98156  0.51330  1.0000
  C   C223      1.0  0.17679  0.75461  0.99606  1.0000
  H   H371      1.0  0.30420  0.68241  0.52492  1.0000
  H   H372      1.0  0.20632  0.88978  0.98223  1.0000
  H   H373      1.0  0.12234  0.88722  0.97204  1.0000
  H   H374      1.0  0.09493  0.83909  0.99055  1.0000
  H   H375      1.0  0.19986  0.67104  0.73032  1.0000
  H   H376      1.0  0.10725  0.59183  0.98257  1.0000
  C   C224      1.0  0.05691  0.95091  0.53832  1.0000
  H   H377      1.0  0.14254  0.98559  0.91866  1.0000
  H   H378      1.0  0.01716  0.63936  0.72253  1.0000
  C   C225      1.0  0.19650  0.68252  0.51557  1.0000
  H   H379      1.0  0.15873  0.99404  0.68868  1.0000
  C   C226      1.0  0.31835  0.69306  0.50959  1.0000
  H   H380      1.0  0.00442  0.65046  0.50886  1.0000
  H   H381      1.0  0.07036  0.99787  0.52091  1.0000
  C   C227      1.0  0.13852  0.83740  0.98674  1.0000
  C   C228      1.0  0.18859  0.52080  0.52667  1.0000
  S   S59       1.0  0.31398  0.59845  0.51628  1.0000
  H   H382      1.0  0.03306  0.99565  0.51799  1.0000
  C   C229      1.0  0.99416  0.63926  0.76120  1.0000
  H   H383      1.0  0.20949  0.53207  0.53974  1.0000
  H   H384      1.0  0.07474  0.53374  0.99475  1.0000
  H   H385      1.0  0.16190  0.00030  0.85419  1.0000
  H   H386      1.0  0.19100  0.85405  0.99629  1.0000
  H   H387      1.0  0.18035  0.50833  0.54737  1.0000
  H   H388      1.0  0.11319  0.79985  0.00479  1.0000
  H   H389      1.0  0.10359  0.00565  0.60263  1.0000
  C   C230      1.0  0.25520  0.00578  0.73117  1.0000
  Fe  Fe31      1.0  0.49578  0.03908  0.21876  1.0000
  S   S60       1.0  0.45552  0.06344  0.22247  1.0000
  S   S61       1.0  0.52304  0.05849  0.18388  1.0000
  H   H390      1.0  0.58738  0.22268  0.21804  1.0000
  H   H391      1.0  0.38001  0.46011  0.50473  1.0000
  H   H392      1.0  0.51740  0.20466  0.23478  1.0000
  H   H393      1.0  0.65317  0.45538  0.44989  1.0000
  Fe  Fe32      1.0  0.47064  0.05194  0.28112  1.0000
  S   S62       1.0  0.46527  0.09010  0.32219  1.0000
  C   C231      1.0  0.41254  0.02452  0.06321  1.0000
  S   S63       1.0  0.51238  0.03122  0.27797  1.0000
  S   S64       1.0  0.56505  0.43032  0.20130  1.0000
  S   S65       1.0  0.55676  0.10903  0.47097  1.0000
  C   C232      1.0  0.54451  0.44682  0.10724  1.0000
  S   S66       1.0  0.61413  0.26463  0.04784  1.0000
  Fe  Fe33      1.0  0.55488  0.22294  0.08163  1.0000
  S   S67       1.0  0.60087  0.21872  0.11139  1.0000
  S   S68       1.0  0.52016  0.20124  0.10478  1.0000
  Fe  Fe34      1.0  0.60254  0.27458  0.09881  1.0000
  S   S69       1.0  0.62695  0.31572  0.13552  1.0000
  Fe  Fe35      1.0  0.60812  0.20948  0.05747  1.0000
  H   H394      1.0  0.51020  0.43643  0.13090  1.0000
  S   S70       1.0  0.55624  0.27960  0.07198  1.0000
  H   H395      1.0  0.51431  0.21154  0.29317  1.0000
  C   C233      1.0  0.44829  0.01904  0.38318  1.0000
  H   H396      1.0  0.64993  0.35815  0.31755  1.0000
  C   C234      1.0  0.58244  0.39941  0.18202  1.0000
  C   C235      1.0  0.61013  0.40389  0.17954  1.0000
  C   C236      1.0  0.62349  0.37812  0.16510  1.0000
  C   C237      1.0  0.60910  0.34800  0.15232  1.0000
  C   C238      1.0  0.58114  0.34400  0.15386  1.0000
  C   C239      1.0  0.56798  0.36948  0.16887  1.0000
  H   H397      1.0  0.62137  0.42696  0.18919  1.0000
  C   C240      1.0  0.54723  0.13617  0.28708  1.0000
  H   H398      1.0  0.56982  0.32095  0.14414  1.0000
  H   H399      1.0  0.54648  0.36587  0.17043  1.0000
  C   C241      1.0  0.49134  0.09694  0.36274  1.0000
  C   C242      1.0  0.48498  0.11735  0.38896  1.0000
  C   C243      1.0  0.50504  0.12241  0.42195  1.0000
  C   C244      1.0  0.53166  0.10705  0.42888  1.0000
  C   C245      1.0  0.53822  0.08746  0.40222  1.0000
  C   C246      1.0  0.51821  0.08244  0.36931  1.0000
  H   H400      1.0  0.46428  0.12892  0.38395  1.0000
  H   H401      1.0  0.49972  0.13755  0.44224  1.0000
  H   H402      1.0  0.55894  0.07601  0.40717  1.0000
  H   H403      1.0  0.52354  0.06730  0.34908  1.0000
  C   C247      1.0  0.52011  0.20247  0.36355  1.0000
  C   C248      1.0  0.44349  0.15438  0.23870  1.0000
  H   H404      1.0  0.60055  0.46619  0.12651  1.0000
  C   C249      1.0  0.52178  0.16192  0.12772  1.0000
  C   C250      1.0  0.50025  0.15357  0.14396  1.0000
  C   C251      1.0  0.50041  0.12223  0.16163  1.0000
  C   C252      1.0  0.52212  0.09883  0.16313  1.0000
  C   C253      1.0  0.54366  0.10726  0.14707  1.0000
  C   C254      1.0  0.54360  0.13863  0.12961  1.0000
  H   H405      1.0  0.48323  0.17137  0.14255  1.0000
  H   H406      1.0  0.48355  0.11605  0.17357  1.0000
  H   H407      1.0  0.56054  0.08936  0.14800  1.0000
  H   H408      1.0  0.56028  0.14462  0.11723  1.0000
  H   H409      1.0  0.45588  0.04567  0.38561  1.0000
  N   N14       1.0  0.43592  0.04811  0.08205  1.0000
  H   H410      1.0  0.55581  0.46119  0.13119  1.0000
  C   C255      1.0  0.42983  0.05972  0.11601  1.0000
  C   C256      1.0  0.43705  0.07758  0.05773  1.0000
  C   C257      1.0  0.46438  0.03068  0.09137  1.0000
  C   C258      1.0  0.51917  0.17471  0.33617  1.0000
  H   H411      1.0  0.47328  0.19095  0.23053  1.0000
  C   C259      1.0  0.45688  0.10714  0.07472  1.0000
  C   C260      1.0  0.40264  0.08139  0.11139  1.0000
  C   C261      1.0  0.40049  0.09530  0.14694  1.0000
  H   H412      1.0  0.47031  0.18816  0.27537  1.0000
  H   H413      1.0  0.62591  0.43491  0.46552  1.0000
  S   S71       1.0  0.59305  0.49420  0.28134  1.0000
  H   H414      1.0  0.49520  0.13244  0.23733  1.0000
  H   H415      1.0  0.61541  0.36568  0.25677  1.0000
  H   H416      1.0  0.42729  0.03756  0.13260  1.0000
  H   H417      1.0  0.44818  0.07393  0.13278  1.0000
  H   H418      1.0  0.61030  0.42313  0.06559  1.0000
  Fe  Fe36      1.0  0.58427  0.48064  0.22340  1.0000
  C   C262      1.0  0.60358  0.39715  0.29479  1.0000
  H   H419      1.0  0.48066  0.04700  0.10917  1.0000
  H   H420      1.0  0.56948  0.07111  0.29798  1.0000
  S   S72       1.0  0.56170  0.21083  0.02808  1.0000
  H   H421      1.0  0.60180  0.47224  0.03056  1.0000
  C   C263      1.0  0.45692  0.13505  0.04750  1.0000
  H   H422      1.0  0.47901  0.09824  0.08523  1.0000
  H   H423      1.0  0.44998  0.11883  0.09674  1.0000
  H   H424      1.0  0.40218  0.10339  0.09356  1.0000
  H   H425      1.0  0.38349  0.06578  0.10036  1.0000
  H   H426      1.0  0.38091  0.11065  0.14286  1.0000
  H   H427      1.0  0.39948  0.07427  0.16553  1.0000
  H   H428      1.0  0.41894  0.11169  0.15891  1.0000
  H   H429      1.0  0.61976  0.49628  0.46726  1.0000
  H   H430      1.0  0.44436  0.06889  0.03464  1.0000
  H   H431      1.0  0.52666  0.16613  0.21832  1.0000
  H   H432      1.0  0.55671  0.12270  0.23643  1.0000
  H   H433      1.0  0.44036  0.13643  0.25930  1.0000
  H   H434      1.0  0.56562  0.46259  0.01305  1.0000
  H   H435      1.0  0.56491  0.48039  0.37905  1.0000
  H   H436      1.0  0.43532  0.14565  0.03674  1.0000
  H   H437      1.0  0.64504  0.38151  0.16369  1.0000
  H   H438      1.0  0.51508  0.48546  0.34574  1.0000
  H   H439      1.0  0.59384  0.41436  0.09952  1.0000
  C   C264      1.0  0.58185  0.36402  0.05038  1.0000
  H   H440      1.0  0.58987  0.50510  0.10472  1.0000
  H   H441      1.0  0.61130  0.41950  0.31173  1.0000
  C   C265      1.0  0.62460  0.38739  0.27390  1.0000
  C   C266      1.0  0.55834  0.01299  0.45838  1.0000
  H   H442      1.0  0.58462  0.35424  0.07775  1.0000
  H   H443      1.0  0.63990  0.46166  0.09488  1.0000
  H   H444      1.0  0.54229  0.03254  0.45917  1.0000
  H   H445      1.0  0.65627  0.10918  0.01404  1.0000
  H   H446      1.0  0.39204  0.03833  0.05491  1.0000
  H   H447      1.0  0.54874  0.39807  0.05285  1.0000
  H   H448      1.0  0.54171  0.21336  0.37275  1.0000
  H   H449      1.0  0.47208  0.02705  0.06732  1.0000
  C   C267      1.0  0.61366  0.48399  0.44076  1.0000
  H   H450      1.0  0.56698  0.21581  0.26878  1.0000
  H   H451      1.0  0.58881  0.03770  0.50162  1.0000
  H   H452      1.0  0.59502  0.09758  0.28452  1.0000
  H   H453      1.0  0.50104  0.43087  0.08341  1.0000
  H   H454      1.0  0.43029  0.01723  0.35891  1.0000
  H   H455      1.0  0.60256  0.36353  0.04394  1.0000
  S   S73       1.0  0.63038  0.16548  0.03821  1.0000
  H   H456      1.0  0.60029  0.37572  0.31175  1.0000
  C   C268      1.0  0.56564  0.21240  0.21354  1.0000
  H   H457      1.0  0.47118  0.15588  0.06043  1.0000
  H   H458      1.0  0.56712  0.34683  0.03184  1.0000
  C   C269      1.0  0.59895  0.47997  0.10109  1.0000
  Fe  Fe37      1.0  0.56739  0.26685  0.02112  1.0000
  C   C270      1.0  0.57423  0.08468  0.27529  1.0000
  H   H459      1.0  0.55176  0.42016  0.11051  1.0000
  C   C271      1.0  0.62965  0.48584  0.09868  1.0000
  C   C272      1.0  0.51308  0.44691  0.10564  1.0000
  C   C273      1.0  0.57956  0.01205  0.49504  1.0000
  H   H460      1.0  0.64404  0.46389  0.34252  1.0000
  N   N15       1.0  0.57971  0.46110  0.07046  1.0000
  H   H461      1.0  0.64839  0.33810  0.24020  1.0000
  H   H462      1.0  0.53458  0.45285  0.04965  1.0000
  C   C274      1.0  0.55096  0.11030  0.25902  1.0000
  H   H463      1.0  0.49338  0.12998  0.28161  1.0000
  C   C275      1.0  0.49686  0.14812  0.26136  1.0000
  C   C276      1.0  0.53170  0.18243  0.24233  1.0000
  H   H464      1.0  0.56831  0.14703  0.30055  1.0000
  H   H465      1.0  0.57925  0.01545  0.35902  1.0000
  H   H466      1.0  0.44302  0.14023  0.21410  1.0000
  H   H467      1.0  0.58287  0.40371  0.27606  1.0000
  H   H468      1.0  0.51440  0.19154  0.38696  1.0000
  H   H469      1.0  0.57821  0.17579  0.25531  1.0000
  C   C277      1.0  0.54981  0.46347  0.07363  1.0000
  H   H470      1.0  0.55033  0.23349  0.20470  1.0000
  C   C278      1.0  0.47154  0.17320  0.25190  1.0000
  C   C279      1.0  0.52751  0.18878  0.30315  1.0000
  H   H471      1.0  0.53105  0.09604  0.24852  1.0000
  H   H472      1.0  0.53403  0.15453  0.34953  1.0000
  H   H473      1.0  0.54946  0.19860  0.31315  1.0000
  H   H474      1.0  0.59087  0.47782  0.43448  1.0000
  N   N16       1.0  0.52586  0.16390  0.27350  1.0000
  C   C280      1.0  0.56218  0.19620  0.24778  1.0000
  C   C281      1.0  0.65385  0.37828  0.29943  1.0000
  H   H475      1.0  0.57000  0.02119  0.43912  1.0000
  H   H476      1.0  0.44062  0.01241  0.40662  1.0000
  H   H477      1.0  0.54111  0.12098  0.30793  1.0000
  H   H478      1.0  0.62101  0.49251  0.38891  1.0000
  H   H479      1.0  0.46477  0.12515  0.02535  1.0000
  H   H480      1.0  0.41551  0.08809  0.04580  1.0000
  C   C282      1.0  0.58059  0.47610  0.03518  1.0000
  H   H481      1.0  0.50475  0.22290  0.35212  1.0000
  C   C283      1.0  0.56950  0.39974  0.04672  1.0000
  H   H482      1.0  0.42571  0.17278  0.23267  1.0000
  H   H483      1.0  0.62625  0.40915  0.25657  1.0000
  H   H484      1.0  0.57560  0.06573  0.25488  1.0000
  H   H485      1.0  0.49747  0.16410  0.32891  1.0000
  C   C284      1.0  0.58960  0.42473  0.07203  1.0000
  H   H486      1.0  0.56222  0.19333  0.19198  1.0000
  Fe  Fe38      1.0  0.43787  0.01049  0.21683  1.0000
  H   H487      1.0  0.50448  0.47305  0.10211  1.0000
  C   C285      1.0  0.41642  0.00762  0.02906  1.0000
  C   C286      1.0  0.64784  0.50204  0.13258  1.0000
  H   H488      1.0  0.53744  0.49802  0.31806  1.0000
  H   H489      1.0  0.56599  0.40751  0.01859  1.0000
  H   H490      1.0  0.62990  0.50311  0.07628  1.0000
  C   C287      1.0  0.63001  0.45067  0.44381  1.0000
  H   H491      1.0  0.50426  0.02516  0.41424  1.0000
  H   H492      1.0  0.54350  0.49043  0.07447  1.0000
  H   H493      1.0  0.41514  0.02694  0.00795  1.0000
  H   H494      1.0  0.65218  0.15257  0.48406  1.0000
  H   H495      1.0  0.64992  0.48469  0.15558  1.0000
  H   H496      1.0  0.62308  0.43622  0.41864  1.0000
  S   S74       1.0  0.62536  0.50041  0.21688  1.0000
  H   H497      1.0  0.53869  0.01586  0.38511  1.0000
  C   C288      1.0  0.53044  0.50482  0.34194  1.0000
  H   H498      1.0  0.44450  0.30124  0.51346  1.0000
  S   S75       1.0  0.60901  0.14682  0.54604  1.0000
  Fe  Fe39      1.0  0.54917  0.19203  0.57553  1.0000
  S   S76       1.0  0.59484  0.19538  0.60676  1.0000
  S   S77       1.0  0.51341  0.21733  0.59395  1.0000
  Fe  Fe40      1.0  0.60373  0.20245  0.55332  1.0000
  H   H499      1.0  0.64255  0.03279  0.75285  1.0000
  Fe  Fe41      1.0  0.59572  0.13909  0.59631  1.0000
  S   S78       1.0  0.61821  0.09767  0.63445  1.0000
  S   S79       1.0  0.55769  0.20179  0.52232  1.0000
  S   S80       1.0  0.54962  0.13506  0.56826  1.0000
  Fe  Fe42      1.0  0.43606  0.39807  0.71301  1.0000
  S   S81       1.0  0.47514  0.42147  0.70357  1.0000
  S   S82       1.0  0.39219  0.40169  0.67470  1.0000
  Fe  Fe43      1.0  0.46906  0.36494  0.78355  1.0000
  S   S83       1.0  0.50992  0.38694  0.77901  1.0000
  S   S84       1.0  0.46529  0.32823  0.82728  1.0000
  Fe  Fe44      1.0  0.48522  0.43486  0.76165  1.0000
  H   H500      1.0  0.36720  0.46855  0.70690  1.0000
  Fe  Fe45      1.0  0.49585  0.37102  0.72168  1.0000
  S   S85       1.0  0.52820  0.34389  0.69914  1.0000
  S   S86       1.0  0.44499  0.41410  0.77018  1.0000
  S   S87       1.0  0.45609  0.34672  0.72702  1.0000
  S   S88       1.0  0.56120  0.30052  0.97145  1.0000
  C   C289      1.0  0.44497  0.41027  0.86717  1.0000
  H   H501      1.0  0.45107  0.37122  0.53878  1.0000
  C   C290      1.0  0.49219  0.32033  0.86709  1.0000
  C   C291      1.0  0.48699  0.29755  0.89240  1.0000
  C   C292      1.0  0.50785  0.29087  0.92445  1.0000
  C   C293      1.0  0.53417  0.30693  0.93141  1.0000
  C   C294      1.0  0.53938  0.32955  0.90594  1.0000
  C   C295      1.0  0.51852  0.33624  0.87401  1.0000
  H   H502      1.0  0.46665  0.28511  0.88731  1.0000
  H   H503      1.0  0.50353  0.27348  0.94382  1.0000
  H   H504      1.0  0.55968  0.34208  0.91107  1.0000
  H   H505      1.0  0.52279  0.35369  0.85473  1.0000
  C   C296      1.0  0.38069  0.43737  0.64699  1.0000
  C   C297      1.0  0.35206  0.44013  0.62795  1.0000
  S   S89       1.0  0.50520  0.48481  0.78379  1.0000
  H   H506      1.0  0.63991  0.09230  0.74545  1.0000
  H   H507      1.0  0.50524  0.43210  0.64759  1.0000
  H   H508      1.0  0.46539  0.22940  0.77196  1.0000
  H   H509      1.0  0.33740  0.42032  0.63026  1.0000
  H   H510      1.0  0.55115  0.29705  0.83475  1.0000
  Fe  Fe46      1.0  0.56254  0.14536  0.51799  1.0000
  C   C298      1.0  0.51778  0.25266  0.62309  1.0000
  C   C299      1.0  0.54385  0.26897  0.63558  1.0000
  C   C300      1.0  0.54654  0.29684  0.65869  1.0000
  C   C301      1.0  0.52331  0.30874  0.66980  1.0000
  C   C302      1.0  0.49724  0.29230  0.65760  1.0000
  C   C303      1.0  0.49448  0.26453  0.63425  1.0000
  H   H511      1.0  0.56194  0.26025  0.62723  1.0000
  H   H512      1.0  0.56682  0.30931  0.66792  1.0000
  H   H513      1.0  0.47929  0.30084  0.66627  1.0000
  H   H514      1.0  0.47425  0.25200  0.62488  1.0000
  N   N17       1.0  0.48542  0.45248  0.89522  1.0000
  C   C304      1.0  0.37914  0.44053  0.52492  1.0000
  H   H515      1.0  0.44927  0.46199  0.85048  1.0000
  H   H516      1.0  0.47364  0.22000  0.73087  1.0000
  C   C305      1.0  0.61256  0.03751  0.66741  1.0000
  C   C306      1.0  0.59891  0.06725  0.65179  1.0000
  C   C307      1.0  0.57062  0.07247  0.65130  1.0000
  C   C308      1.0  0.55621  0.04820  0.66638  1.0000
  H   H517      1.0  0.64193  0.07789  0.80314  1.0000
  H   H518      1.0  0.63424  0.03303  0.66720  1.0000
  H   H519      1.0  0.55993  0.09540  0.63962  1.0000
  H   H520      1.0  0.52275  0.05901  0.58981  1.0000
  C   C309      1.0  0.65301  0.23066  0.96457  1.0000
  C   C310      1.0  0.39950  0.46291  0.64350  1.0000
  C   C311      1.0  0.45464  0.44727  0.87587  1.0000
  H   H521      1.0  0.54535  0.43253  0.83662  1.0000
  H   H522      1.0  0.41004  0.42390  0.82122  1.0000
  S   S90       1.0  0.62741  0.24506  0.53378  1.0000
  H   H523      1.0  0.57546  0.43828  0.87433  1.0000
  H   H524      1.0  0.44683  0.39563  0.89196  1.0000
  C   C312      1.0  0.52090  0.23961  0.81486  1.0000
  H   H525      1.0  0.55284  0.40215  0.87295  1.0000
  H   H526      1.0  0.48910  0.37196  0.63639  1.0000
  H   H527      1.0  0.56694  0.24109  0.84202  1.0000
  C   C313      1.0  0.50366  0.39876  0.93439  1.0000
  C   C314      1.0  0.53519  0.45008  0.88448  1.0000
  C   C315      1.0  0.52178  0.01297  0.55887  1.0000
  H   H528      1.0  0.39021  0.38283  0.55978  1.0000
  C   C316      1.0  0.46364  0.30612  0.53564  1.0000
  H   H529      1.0  0.52594  0.39831  0.93292  1.0000
  H   H530      1.0  0.51390  0.39863  0.99233  1.0000
  H   H531      1.0  0.55182  0.20979  0.77395  1.0000
  C   C317      1.0  0.56996  0.01859  0.68222  1.0000
  H   H532      1.0  0.47370  0.43646  0.94237  1.0000
  H   H533      1.0  0.51315  0.26113  0.82809  1.0000
  H   H534      1.0  0.45471  0.42210  0.61645  1.0000
  C   C318      1.0  0.44290  0.25898  0.72749  1.0000
  H   H535      1.0  0.54383  0.44683  0.91360  1.0000
  C   C319      1.0  0.49250  0.43581  0.93153  1.0000
  H   H536      1.0  0.52545  0.31863  0.80018  1.0000
  H   H537      1.0  0.45749  0.39777  0.85112  1.0000
  H   H538      1.0  0.51347  0.35741  0.97264  1.0000
  N   N18       1.0  0.52323  0.25007  0.77856  1.0000
  H   H539      1.0  0.49515  0.44978  0.84452  1.0000
  C   C320      1.0  0.49535  0.26547  0.75827  1.0000
  C   C321      1.0  0.53038  0.21935  0.75988  1.0000
  C   C322      1.0  0.54620  0.27616  0.78112  1.0000
  C   C323      1.0  0.54632  0.30595  0.80681  1.0000
  H   H540      1.0  0.40788  0.38207  0.83887  1.0000
  C   C324      1.0  0.53058  0.22494  0.72058  1.0000
  C   C325      1.0  0.34200  0.46894  0.60687  1.0000
  H   H541      1.0  0.59723  0.05338  0.81078  1.0000
  C   C326      1.0  0.56876  0.33219  0.80486  1.0000
  H   H542      1.0  0.53816  0.19712  0.67629  1.0000
  C   C327      1.0  0.53804  0.19229  0.70429  1.0000
  C   C328      1.0  0.41384  0.40877  0.84609  1.0000
  H   H543      1.0  0.53758  0.47714  0.87778  1.0000
  H   H544      1.0  0.48916  0.28607  0.77404  1.0000
  H   H545      1.0  0.40325  0.41377  0.59288  1.0000
  H   H546      1.0  0.51580  0.19802  0.76103  1.0000
  H   H547      1.0  0.44068  0.45720  0.89170  1.0000
  H   H548      1.0  0.56754  0.26423  0.78903  1.0000
  H   H549      1.0  0.54458  0.28760  0.75451  1.0000
  C   C329      1.0  0.48914  0.38870  0.61365  1.0000
  H   H550      1.0  0.42525  0.24054  0.71952  1.0000
  H   H551      1.0  0.43682  0.27853  0.74445  1.0000
  H   H552      1.0  0.50224  0.41202  0.86907  1.0000
  H   H553      1.0  0.54643  0.24432  0.71849  1.0000
  H   H554      1.0  0.50958  0.23331  0.70411  1.0000
  N   N19       1.0  0.43533  0.37934  0.58482  1.0000
  C   C330      1.0  0.45950  0.40404  0.59695  1.0000
  C   C331      1.0  0.40854  0.39983  0.57081  1.0000
  H   H555      1.0  0.49735  0.27818  0.73354  1.0000
  H   H556      1.0  0.49641  0.37438  0.59343  1.0000
  H   H557      1.0  0.59017  0.32056  0.81219  1.0000
  H   H558      1.0  0.56443  0.34305  0.77763  1.0000
  H   H559      1.0  0.56846  0.35311  0.82365  1.0000
  C   C332      1.0  0.60827  0.04101  0.79283  1.0000
  H   H560      1.0  0.41905  0.34993  0.53672  1.0000
  H   H561      1.0  0.55939  0.18316  0.71907  1.0000
  H   H562      1.0  0.52213  0.17229  0.70438  1.0000
  C   C333      1.0  0.51114  0.41636  0.62725  1.0000
  C   C334      1.0  0.43200  0.35944  0.61654  1.0000
  C   C335      1.0  0.59829  0.01343  0.68290  1.0000
  C   C336      1.0  0.43972  0.35694  0.55542  1.0000
  C   C337      1.0  0.45561  0.32283  0.56673  1.0000
  C   C338      1.0  0.40469  0.33770  0.60985  1.0000
  H   H563      1.0  0.51866  0.06591  0.54315  1.0000
  C   C339      1.0  0.40688  0.31090  0.63877  1.0000
  H   H564      1.0  0.43196  0.37689  0.63883  1.0000
  H   H565      1.0  0.45040  0.34269  0.62741  1.0000
  H   H566      1.0  0.56385  0.20873  0.89556  1.0000
  H   H567      1.0  0.49131  0.38239  0.91292  1.0000
  C   C340      1.0  0.51243  0.04931  0.56282  1.0000
  C   C341      1.0  0.55320  0.42936  0.86589  1.0000
  H   H568      1.0  0.44200  0.30472  0.57635  1.0000
  H   H569      1.0  0.47522  0.32588  0.58836  1.0000
  H   H570      1.0  0.38633  0.35422  0.60987  1.0000
  H   H571      1.0  0.40002  0.32479  0.58379  1.0000
  C   C342      1.0  0.40877  0.42618  0.54130  1.0000
  H   H572      1.0  0.50458  0.21963  0.81258  1.0000
  C   C343      1.0  0.50349  0.43991  0.87213  1.0000
  H   H573      1.0  0.50904  0.45046  0.95098  1.0000
  H   H574      1.0  0.51330  0.43285  0.60503  1.0000
  H   H575      1.0  0.61781  0.26212  0.96894  1.0000
  H   H576      1.0  0.38690  0.29618  0.63324  1.0000
  H   H577      1.0  0.42458  0.29316  0.63944  1.0000
  H   H578      1.0  0.41017  0.32315  0.66507  1.0000
  H   H579      1.0  0.46208  0.41961  0.57427  1.0000
  H   H580      1.0  0.55265  0.19937  0.83149  1.0000
  H   H581      1.0  0.54257  0.24655  0.88936  1.0000
  C   C344      1.0  0.62143  0.23608  0.96046  1.0000
  H   H582      1.0  0.42253  0.44798  0.55258  1.0000
  H   H583      1.0  0.53200  0.40443  0.63971  1.0000
  H   H584      1.0  0.53431  0.05245  0.66580  1.0000
  H   H585      1.0  0.40009  0.41852  0.86225  1.0000
  H   H586      1.0  0.52603  0.20563  0.87816  1.0000
  C   C345      1.0  0.54486  0.22124  0.87812  1.0000
  C   C346      1.0  0.63973  0.04998  0.80425  1.0000
  H   H587      1.0  0.44603  0.27104  0.70311  1.0000
  C   C347      1.0  0.54821  0.22490  0.84050  1.0000
  H   H588      1.0  0.59841  0.04986  0.76521  1.0000
  H   H589      1.0  0.42168  0.46082  0.65749  1.0000
  C   C348      1.0  0.46981  0.24073  0.74801  1.0000
  H   H590      1.0  0.47432  0.28152  0.54450  1.0000
  H   H591      1.0  0.44698  0.49265  0.78851  1.0000
  C   C349      1.0  0.50286  0.38252  0.96969  1.0000
  H   H592      1.0  0.65410  0.30029  0.50862  1.0000
  H   H593      1.0  0.47854  0.32242  0.52605  1.0000
  C   C350      1.0  0.38952  0.49144  0.62209  1.0000
  H   H594      1.0  0.54499  0.01352  0.56267  1.0000
  H   H595      1.0  0.64820  0.04177  0.83235  1.0000
  H   H596      1.0  0.48910  0.05078  0.55801  1.0000
  H   H597      1.0  0.36937  0.48445  0.75089  1.0000
  H   H598      1.0  0.61353  0.21780  0.97728  1.0000
  H   H599      1.0  0.37073  0.45257  0.54564  1.0000
  H   H600      1.0  0.48794  0.50282  0.87377  1.0000
  H   H601      1.0  0.41648  0.41469  0.51979  1.0000
  C   C351      1.0  0.35884  0.48776  0.72212  1.0000
  H   H602      1.0  0.64469  0.13350  0.70114  1.0000
  H   H603      1.0  0.64863  0.12951  0.92945  1.0000
  H   H604      1.0  0.60915  0.23309  0.93232  1.0000
  H   H605      1.0  0.36439  0.42025  0.51171  1.0000
  H   H606      1.0  0.60535  0.01317  0.79418  1.0000
  H   H607      1.0  0.33580  0.48326  0.71760  1.0000
  H   H608      1.0  0.48061  0.37868  0.97051  1.0000
  C   C352      1.0  0.49025  0.49022  0.89994  1.0000
  H   H609      1.0  0.64218  0.18700  0.93074  1.0000
  H   H610      1.0  0.46858  0.49539  0.94250  1.0000
  H   H611      1.0  0.51235  0.49540  0.91567  1.0000
  C   C353      1.0  0.36063  0.49509  0.60446  1.0000
  H   H612      1.0  0.65591  0.07278  0.71456  1.0000
  C   C354      1.0  0.65604  0.03195  0.78062  1.0000
  H   H613      1.0  0.65620  0.17708  0.97643  1.0000
  S   S91       1.0  0.51229  0.93478  0.29860  1.0000
  H   H614      1.0  0.57471  0.77737  0.33017  1.0000
  C   C355      1.0  0.59169  0.78330  0.38719  1.0000
  C   C356      1.0  0.40033  0.93231  0.10707  1.0000
  Fe  Fe47      1.0  0.60222  0.54986  0.20263  1.0000
  S   S92       1.0  0.56048  0.52901  0.20526  1.0000
  S   S93       1.0  0.60685  0.58551  0.15877  1.0000
  Fe  Fe48      1.0  0.57344  0.54520  0.26259  1.0000
  S   S94       1.0  0.53961  0.57274  0.28238  1.0000
  H   H615      1.0  0.51135  0.52876  0.13493  1.0000
  S   S95       1.0  0.61420  0.56855  0.25904  1.0000
  H   H616      1.0  0.37191  0.99319  0.00939  1.0000
  Fe  Fe49      1.0  0.46725  0.72344  0.44877  1.0000
  S   S96       1.0  0.51475  0.72070  0.47140  1.0000
  S   S97       1.0  0.44065  0.69569  0.47983  1.0000
  Fe  Fe50      1.0  0.47195  0.77683  0.39368  1.0000
  S   S98       1.0  0.51909  0.77720  0.41234  1.0000
  S   S99       1.0  0.44775  0.81421  0.35195  1.0000
  Fe  Fe51      1.0  0.51614  0.72021  0.41406  1.0000
  S   S100      1.0  0.55080  0.69055  0.39734  1.0000
  Fe  Fe52      1.0  0.51390  0.77759  0.46783  1.0000
  S   S101      1.0  0.46864  0.71961  0.39157  1.0000
  S   S102      1.0  0.46660  0.78053  0.44887  1.0000
  H   H617      1.0  0.39842  0.80683  0.28893  1.0000
  C   C357      1.0  0.41245  0.66670  0.46409  1.0000
  C   C358      1.0  0.40124  0.64976  0.48898  1.0000
  C   C359      1.0  0.37815  0.62747  0.47792  1.0000
  C   C360      1.0  0.36582  0.62203  0.44174  1.0000
  C   C361      1.0  0.37721  0.63868  0.41679  1.0000
  C   C362      1.0  0.40040  0.66095  0.42787  1.0000
  H   H618      1.0  0.53385  0.97161  0.46981  1.0000
  H   H619      1.0  0.32423  0.83868  0.13511  1.0000
  H   H620      1.0  0.40881  0.67380  0.40842  1.0000
  C   C363      1.0  0.54291  0.60703  0.31268  1.0000
  C   C364      1.0  0.56876  0.62320  0.32740  1.0000
  C   C365      1.0  0.57069  0.64897  0.35289  1.0000
  C   C366      1.0  0.54677  0.65926  0.36362  1.0000
  C   C367      1.0  0.52081  0.64357  0.34831  1.0000
  C   C368      1.0  0.51896  0.61756  0.32311  1.0000
  H   H621      1.0  0.58730  0.61557  0.31944  1.0000
  H   H622      1.0  0.59088  0.66092  0.36448  1.0000
  H   H623      1.0  0.50224  0.65102  0.35635  1.0000
  H   H624      1.0  0.49884  0.60523  0.31198  1.0000
  C   C369      1.0  0.54153  0.59427  0.04999  1.0000
  C   C370      1.0  0.56334  0.61796  0.06026  1.0000
  C   C371      1.0  0.58301  0.61526  0.09390  1.0000
  C   C372      1.0  0.58088  0.58911  0.11757  1.0000
  C   C373      1.0  0.55862  0.56599  0.10764  1.0000
  C   C374      1.0  0.53904  0.56861  0.07403  1.0000
  H   H625      1.0  0.56552  0.63775  0.04193  1.0000
  H   H626      1.0  0.60022  0.63323  0.10139  1.0000
  H   H627      1.0  0.55687  0.54571  0.12559  1.0000
  H   H628      1.0  0.52208  0.55035  0.06633  1.0000
  H   H629      1.0  0.35197  0.87518  0.18338  1.0000
  C   C375      1.0  0.49386  0.90159  0.31306  1.0000
  C   C376      1.0  0.50891  0.87275  0.32875  1.0000
  C   C377      1.0  0.49502  0.84583  0.34071  1.0000
  C   C378      1.0  0.46590  0.84750  0.33705  1.0000
  C   C379      1.0  0.45084  0.87645  0.32142  1.0000
  C   C380      1.0  0.46482  0.90358  0.30985  1.0000
  H   H630      1.0  0.53139  0.87106  0.33141  1.0000
  H   H631      1.0  0.50679  0.82358  0.35226  1.0000
  H   H632      1.0  0.42837  0.87808  0.31885  1.0000
  H   H633      1.0  0.45319  0.92600  0.29849  1.0000
  C   C381      1.0  0.61652  0.75405  0.48564  1.0000
  C   C382      1.0  0.37201  0.92665  0.08817  1.0000
  H   H634      1.0  0.60760  0.58918  0.38139  1.0000
  C   C383      1.0  0.40718  0.95504  0.13571  1.0000
  H   H635      1.0  0.37745  0.78601  0.24941  1.0000
  H   H636      1.0  0.61183  0.79296  0.38324  1.0000
  N   N20       1.0  0.50752  0.63135  0.16545  1.0000
  C   C384      1.0  0.47947  0.63986  0.17235  1.0000
  C   C385      1.0  0.50977  0.59338  0.16280  1.0000
  C   C386      1.0  0.53057  0.64243  0.19761  1.0000
  C   C387      1.0  0.51191  0.64870  0.13267  1.0000
  C   C388      1.0  0.48515  0.65574  0.10151  1.0000
  C   C389      1.0  0.47597  0.67718  0.18278  1.0000
  C   C390      1.0  0.56130  0.63313  0.19766  1.0000
  C   C391      1.0  0.48759  0.57585  0.13227  1.0000
  C   C392      1.0  0.48999  0.53732  0.13573  1.0000
  C   C393      1.0  0.49312  0.66834  0.06841  1.0000
  C   C394      1.0  0.44492  0.68605  0.17858  1.0000
  N   N21       1.0  0.60241  0.53906  0.40167  1.0000
  H   H637      1.0  0.47605  0.62368  0.19433  1.0000
  H   H638      1.0  0.46156  0.63372  0.14912  1.0000
  H   H639      1.0  0.53052  0.58627  0.15864  1.0000
  H   H640      1.0  0.50901  0.58126  0.18842  1.0000
  H   H641      1.0  0.52681  0.63163  0.22243  1.0000
  H   H642      1.0  0.53029  0.67043  0.20048  1.0000
  H   H643      1.0  0.52229  0.67379  0.13958  1.0000
  H   H644      1.0  0.52707  0.63387  0.12189  1.0000
  H   H645      1.0  0.47189  0.67566  0.10893  1.0000
  H   H646      1.0  0.47177  0.63302  0.09397  1.0000
  H   H647      1.0  0.48751  0.68113  0.21114  1.0000
  H   H648      1.0  0.48465  0.69513  0.16648  1.0000
  C   C395      1.0  0.62046  0.56636  0.39157  1.0000
  H   H649      1.0  0.56493  0.60556  0.20209  1.0000
  H   H650      1.0  0.46564  0.58259  0.13203  1.0000
  H   H651      1.0  0.49134  0.58277  0.10636  1.0000
  C   C396      1.0  0.59230  0.55242  0.43232  1.0000
  H   H652      1.0  0.55617  0.75354  0.35620  1.0000
  H   H653      1.0  0.63715  0.57467  0.41551  1.0000
  H   H654      1.0  0.47364  0.67422  0.04698  1.0000
  H   H655      1.0  0.50615  0.69167  0.07428  1.0000
  H   H656      1.0  0.50507  0.64858  0.05843  1.0000
  H   H657      1.0  0.44328  0.71246  0.18747  1.0000
  H   H658      1.0  0.43257  0.68408  0.15030  1.0000
  H   H659      1.0  0.43565  0.66882  0.19501  1.0000
  H   H660      1.0  0.39475  0.96040  0.03408  1.0000
  H   H661      1.0  0.36790  0.63452  0.38873  1.0000
  Fe  Fe53      1.0  0.48984  0.98098  0.26937  1.0000
  C   C397      1.0  0.37097  0.75841  0.42899  1.0000
  H   H662      1.0  0.53294  0.92323  0.40593  1.0000
  H   H663      1.0  0.60458  0.64345  0.22723  1.0000
  H   H664      1.0  0.60699  0.73792  0.41834  1.0000
  Fe  Fe54      1.0  0.63317  0.51668  0.27388  1.0000
  S   S103      1.0  0.47739  0.98643  0.20991  1.0000
  H   H665      1.0  0.62797  0.73126  0.48025  1.0000
  H   H666      1.0  0.41702  0.91865  0.09979  1.0000
  C   C398      1.0  0.59539  0.80891  0.46404  1.0000
  H   H667      1.0  0.55700  0.86199  0.43936  1.0000
  C   C399      1.0  0.63532  0.55703  0.36246  1.0000
  H   H668      1.0  0.58291  0.89541  0.44539  1.0000
  C   C400      1.0  0.38578  0.97266  0.14545  1.0000
  H   H669      1.0  0.34075  0.98088  0.13368  1.0000
  C   C401      1.0  0.56275  0.59427  0.45655  1.0000
  H   H670      1.0  0.35394  0.69679  0.45209  1.0000
  H   H671      1.0  0.58102  0.67895  0.22427  1.0000
  H   H672      1.0  0.55015  0.61802  0.45052  1.0000
  H   H673      1.0  0.37327  0.82047  0.16420  1.0000
  H   H674      1.0  0.48108  0.87429  0.44058  1.0000
  H   H675      1.0  0.32868  0.94023  0.08338  1.0000
  H   H676      1.0  0.47757  0.00166  0.35532  1.0000
  C   C402      1.0  0.37019  0.84487  0.14954  1.0000
  H   H677      1.0  0.57977  0.53318  0.44219  1.0000
  H   H678      1.0  0.56016  0.94404  0.37446  1.0000
  S   S104      1.0  0.33548  0.59595  0.42664  1.0000
  C   C403      1.0  0.34138  0.84339  0.12204  1.0000
  H   H679      1.0  0.52351  0.76529  0.00809  1.0000
  N   N22       1.0  0.39760  0.87706  0.20642  1.0000
  C   C404      1.0  0.37178  0.87531  0.17494  1.0000
  C   C405      1.0  0.39752  0.90987  0.22630  1.0000
  C   C406      1.0  0.42342  0.87682  0.19229  1.0000
  C   C407      1.0  0.39978  0.84691  0.23091  1.0000
  C   C408      1.0  0.37490  0.84122  0.24754  1.0000
  H   H680      1.0  0.35728  0.93532  0.20139  1.0000
  C   C409      1.0  0.45225  0.88446  0.21960  1.0000
  C   C410      1.0  0.36837  0.92428  0.22769  1.0000
  C   C411      1.0  0.37191  0.95238  0.25530  1.0000
  C   C412      1.0  0.37812  0.80757  0.26776  1.0000
  S   S105      1.0  0.36478  0.89710  0.05305  1.0000
  C   C413      1.0  0.47624  0.88556  0.20152  1.0000
  H   H681      1.0  0.37049  0.89868  0.15851  1.0000
  C   C414      1.0  0.54418  0.97792  0.44851  1.0000
  H   H682      1.0  0.41109  0.90736  0.25401  1.0000
  H   H683      1.0  0.40711  0.93068  0.21400  1.0000
  H   H684      1.0  0.42075  0.89554  0.17034  1.0000
  H   H685      1.0  0.42585  0.85180  0.18044  1.0000
  H   H686      1.0  0.40315  0.82324  0.21730  1.0000
  H   H687      1.0  0.41891  0.84904  0.25377  1.0000
  H   H688      1.0  0.35425  0.84057  0.22718  1.0000
  H   H689      1.0  0.38531  0.97310  0.24941  1.0000
  H   H690      1.0  0.38650  0.84734  0.13471  1.0000
  H   H691      1.0  0.58057  0.59849  0.48058  1.0000
  H   H692      1.0  0.45764  0.86466  0.24057  1.0000
  H   H693      1.0  0.45210  0.90937  0.23251  1.0000
  H   H694      1.0  0.57722  0.80474  0.38769  1.0000
  H   H695      1.0  0.56111  0.95855  0.45111  1.0000
  H   H696      1.0  0.57969  0.64377  0.25383  1.0000
  C   C415      1.0  0.57811  0.53172  0.36962  1.0000
  C   C416      1.0  0.57384  0.58505  0.42481  1.0000
  H   H697      1.0  0.57237  0.80352  0.45415  1.0000
  C   C417      1.0  0.57744  0.76199  0.35473  1.0000
  H   H698      1.0  0.40902  0.00442  0.08165  1.0000
  C   C418      1.0  0.60070  0.84466  0.45032  1.0000
  H   H699      1.0  0.33691  0.86743  0.10666  1.0000
  H   H700      1.0  0.50534  0.87148  0.41362  1.0000
  H   H701      1.0  0.49650  0.89120  0.22163  1.0000
  H   H702      1.0  0.47832  0.86079  0.18911  1.0000
  H   H703      1.0  0.47234  0.90579  0.18089  1.0000
  C   C419      1.0  0.35747  0.96734  0.12630  1.0000
  N   N23       1.0  0.52297  0.97576  0.41257  1.0000
  H   H704      1.0  0.42895  0.95847  0.15060  1.0000
  H   H705      1.0  0.51534  0.91950  0.45853  1.0000
  H   H706      1.0  0.48175  0.93784  0.43536  1.0000
  H   H707      1.0  0.58602  0.52124  0.34783  1.0000
  C   C420      1.0  0.57843  0.87003  0.45496  1.0000
  H   H708      1.0  0.56572  0.64024  0.17218  1.0000
  H   H709      1.0  0.47048  0.88962  0.39566  1.0000
  H   H710      1.0  0.38865  0.73996  0.43744  1.0000
  C   C421      1.0  0.35056  0.94433  0.09782  1.0000
  H   H711      1.0  0.37127  0.77571  0.45141  1.0000
  H   H712      1.0  0.58630  0.60707  0.41981  1.0000
  C   C422      1.0  0.55566  0.50620  0.37491  1.0000
  H   H713      1.0  0.55974  0.98563  0.32648  1.0000
  C   C423      1.0  0.39324  0.98146  0.01473  1.0000
  H   H714      1.0  0.50022  0.93634  0.37804  1.0000
  S   S106      1.0  0.39353  0.00099  0.18166  1.0000
  H   H715      1.0  0.54987  0.51785  0.02772  1.0000
  H   H716      1.0  0.37447  0.77364  0.40657  1.0000
  C   C424      1.0  0.48861  0.88741  0.41968  1.0000
  H   H717      1.0  0.52017  0.98395  0.35693  1.0000
  H   H718      1.0  0.63979  0.81124  0.43365  1.0000
  C   C425      1.0  0.58288  0.65104  0.22766  1.0000
  H   H719      1.0  0.62174  0.85414  0.46573  1.0000
  H   H720      1.0  0.61954  0.55227  0.33676  1.0000
  C   C426      1.0  0.51423  0.93928  0.40544  1.0000
  H   H721      1.0  0.60032  0.84463  0.42190  1.0000
  C   C427      1.0  0.49985  0.92260  0.43214  1.0000
  H   H722      1.0  0.64156  0.60948  0.34827  1.0000
  H   H723      1.0  0.58008  0.97320  0.40706  1.0000
  C   C428      1.0  0.56351  0.97120  0.38153  1.0000
  H   H724      1.0  0.64884  0.53420  0.36981  1.0000
  C   C429      1.0  0.64138  0.79138  0.45424  1.0000
  H   H725      1.0  0.34352  0.72416  0.39393  1.0000
  C   C430      1.0  0.59663  0.76226  0.42180  1.0000
  H   H726      1.0  0.58526  0.53007  0.05142  1.0000
  C   C431      1.0  0.58903  0.74015  0.49314  1.0000
  H   H727      1.0  0.47408  0.52538  0.11335  1.0000
  H   H728      1.0  0.56719  0.55551  0.35850  1.0000
  H   H729      1.0  0.48600  0.52867  0.16106  1.0000
  H   H730      1.0  0.35088  0.96315  0.25469  1.0000
  C   C432      1.0  0.34262  0.73989  0.41709  1.0000
  C   C433      1.0  0.33764  0.71721  0.44737  1.0000
  H   H731      1.0  0.59043  0.73937  0.35293  1.0000
  H   H732      1.0  0.49603  0.95646  0.13323  1.0000
  H   H733      1.0  0.57869  0.87194  0.48341  1.0000
  H   H734      1.0  0.65238  0.80364  0.47989  1.0000
  H   H735      1.0  0.46301  0.96896  0.37751  1.0000
  H   H736      1.0  0.38176  0.94226  0.28238  1.0000
  H   H737      1.0  0.57429  0.76066  0.49553  1.0000
  H   H738      1.0  0.55517  0.58184  0.40163  1.0000
  N   N24       1.0  0.61243  0.77954  0.45567  1.0000
  C   C434      1.0  0.53538  0.98805  0.38337  1.0000
  H   H739      1.0  0.35438  0.90476  0.23421  1.0000
  C   C435      1.0  0.49561  0.98103  0.11913  1.0000
  H   H740      1.0  0.37474  0.86149  0.26705  1.0000
  H   H741      1.0  0.36055  0.80454  0.28047  1.0000
  H   H742      1.0  0.59926  0.81194  0.49335  1.0000
  H   H743      1.0  0.57787  0.72304  0.47142  1.0000
  H   H744      1.0  0.64332  0.51521  0.42456  1.0000
  H   H745      1.0  0.61085  0.55775  0.45534  1.0000
  H   H746      1.0  0.54883  0.57391  0.46199  1.0000
  H   H747      1.0  0.57531  0.75461  0.42349  1.0000
  H   H748      1.0  0.63839  0.52637  0.13789  1.0000
  C   C436      1.0  0.62078  0.50789  0.41269  1.0000
  H   H749      1.0  0.45129  0.97726  0.09390  1.0000
  S   S107      1.0  0.53919  0.81843  0.50449  1.0000
  H   H750      1.0  0.49110  0.77041  0.02076  1.0000
  C   C437      1.0  0.57263  0.51416  0.02955  1.0000
  H   H751      1.0  0.34290  0.73293  0.47178  1.0000
  H   H752      1.0  0.50212  0.97662  0.09441  1.0000
  H   H753      1.0  0.49080  0.99348  0.43714  1.0000
  C   C438      1.0  0.65419  0.58604  0.35646  1.0000
  H   H754      1.0  0.65167  0.75043  0.42139  1.0000
  C   C439      1.0  0.49797  0.99798  0.41281  1.0000
  H   H755      1.0  0.51402  0.80653  0.02091  1.0000
  H   H756      1.0  0.34125  0.82246  0.10311  1.0000
  H   H757      1.0  0.51948  0.52974  0.33727  1.0000
  H   H758      1.0  0.47142  0.90282  0.49060  1.0000
  H   H759      1.0  0.36991  0.61444  0.49739  1.0000
  H   H760      1.0  0.54729  0.51308  0.39758  1.0000
  C   C440      1.0  0.57505  0.98816  0.35306  1.0000
  C   C441      1.0  0.47188  0.99496  0.38009  1.0000
  H   H761      1.0  0.59700  0.99402  0.49539  1.0000
  H   H762      1.0  0.43704  0.99443  0.03392  1.0000
  H   H763      1.0  0.40699  0.76655  0.00797  1.0000
  S   S108      1.0  0.44892  0.00129  0.27592  1.0000
  H   H764      1.0  0.51106  0.99829  0.13667  1.0000
  H   H765      1.0  0.59514  0.97576  0.35215  1.0000
  C   C442      1.0  0.46581  0.99598  0.11046  1.0000
  H   H766      1.0  0.46004  0.99896  0.13570  1.0000
  C   C443      1.0  0.50555  0.78278  0.00694  1.0000
  H   H767      1.0  0.32556  0.75902  0.40845  1.0000
  H   H768      1.0  0.32430  0.65618  0.47039  1.0000
  S   S109      1.0  0.51810  0.59388  0.00678  1.0000
  Fe  Fe55      1.0  0.46856  0.63868  0.88850  1.0000
  S   S110      1.0  0.51543  0.63483  0.91161  1.0000
  S   S111      1.0  0.44420  0.60308  0.84520  1.0000
  Fe  Fe56      1.0  0.46248  0.69344  0.94181  1.0000
  S   S112      1.0  0.50941  0.69294  0.96840  1.0000
  S   S113      1.0  0.43825  0.72650  0.97124  1.0000
  Fe  Fe57      1.0  0.51414  0.69217  0.91248  1.0000
  S   S114      1.0  0.54792  0.72202  0.89439  1.0000
  Fe  Fe58      1.0  0.50630  0.63615  0.96514  1.0000
  S   S115      1.0  0.46745  0.69605  0.88604  1.0000
  S   S116      1.0  0.45919  0.63689  0.94165  1.0000
  H   H769      1.0  0.64938  0.81030  0.82806  1.0000
  H   H770      1.0  0.48531  0.57453  0.69259  1.0000
  Fe  Fe59      1.0  0.57134  0.93960  0.72536  1.0000
  S   S117      1.0  0.60791  0.91441  0.71147  1.0000
  H   H771      1.0  0.37961  0.88790  0.93385  1.0000
  Fe  Fe60      1.0  0.56661  0.88334  0.77897  1.0000
  S   S118      1.0  0.60369  0.85553  0.76962  1.0000
  S   S119      1.0  0.53810  0.86388  0.81251  1.0000
  Fe  Fe61      1.0  0.62406  0.90710  0.77094  1.0000
  Fe  Fe62      1.0  0.58376  0.86572  0.71127  1.0000
  S   S120      1.0  0.57376  0.82014  0.67418  1.0000
  S   S121      1.0  0.58828  0.93435  0.78462  1.0000
  S   S122      1.0  0.54597  0.89163  0.72089  1.0000
  C   C444      1.0  0.54831  0.81836  0.55166  1.0000
  C   C445      1.0  0.56224  0.84674  0.56999  1.0000
  C   C446      1.0  0.56940  0.84818  0.60742  1.0000
  C   C447      1.0  0.56362  0.82062  0.62698  1.0000
  C   C448      1.0  0.55041  0.79186  0.60865  1.0000
  C   C449      1.0  0.54241  0.79087  0.57119  1.0000
  H   H772      1.0  0.56765  0.86762  0.55510  1.0000
  H   H773      1.0  0.58015  0.87010  0.62123  1.0000
  H   H774      1.0  0.54639  0.77016  0.62353  1.0000
  H   H775      1.0  0.53201  0.76870  0.55747  1.0000
  H   H776      1.0  0.52128  0.88073  0.89173  1.0000
  C   C450      1.0  0.39571  0.52994  0.71412  1.0000
  H   H777      1.0  0.41974  0.61364  0.66108  1.0000
  C   C451      1.0  0.54451  0.76133  0.87126  1.0000
  C   C452      1.0  0.51898  0.77925  0.86157  1.0000
  C   C453      1.0  0.51731  0.81048  0.84339  1.0000
  C   C454      1.0  0.54100  0.82392  0.83427  1.0000
  C   C455      1.0  0.56644  0.80585  0.84361  1.0000
  C   C456      1.0  0.56820  0.77485  0.86218  1.0000
  H   H778      1.0  0.50062  0.76904  0.86825  1.0000
  H   H779      1.0  0.49751  0.82423  0.83617  1.0000
  H   H780      1.0  0.58482  0.81599  0.83694  1.0000
  H   H781      1.0  0.58804  0.76115  0.86952  1.0000
  C   C457      1.0  0.40378  0.74403  0.95690  1.0000
  C   C458      1.0  0.39392  0.76358  0.98105  1.0000
  C   C459      1.0  0.36731  0.77954  0.97066  1.0000
  C   C460      1.0  0.35022  0.77625  0.93589  1.0000
  H   H782      1.0  0.52485  0.99844  0.61334  1.0000
  C   C461      1.0  0.38670  0.74051  0.92211  1.0000
  H   H783      1.0  0.36009  0.79457  0.98956  1.0000
  H   H784      1.0  0.37679  0.65388  0.74899  1.0000
  H   H785      1.0  0.39403  0.72550  0.90328  1.0000
  C   C462      1.0  0.59420  0.89790  0.88111  1.0000
  C   C463      1.0  0.50341  0.54494  0.81766  1.0000
  C   C464      1.0  0.49043  0.57111  0.83189  1.0000
  C   C465      1.0  0.46162  0.56937  0.83004  1.0000
  C   C466      1.0  0.44604  0.54087  0.81440  1.0000
  H   H786      1.0  0.49714  0.90800  0.90632  1.0000
  H   H787      1.0  0.52565  0.54676  0.81881  1.0000
  H   H788      1.0  0.50263  0.59296  0.84363  1.0000
  H   H789      1.0  0.42375  0.53929  0.81300  1.0000
  H   H790      1.0  0.41317  0.77935  0.81332  1.0000
  C   C467      1.0  0.51602  0.93356  0.61558  1.0000
  C   C468      1.0  0.54970  0.94615  0.58089  1.0000
  C   C469      1.0  0.41813  0.83516  0.93026  1.0000
  H   H791      1.0  0.49506  0.93129  0.67562  1.0000
  C   C470      1.0  0.49369  0.73241  0.64065  1.0000
  H   H792      1.0  0.50025  0.75815  0.63445  1.0000
  H   H793      1.0  0.35188  0.65708  0.53390  1.0000
  H   H794      1.0  0.49170  0.54534  0.72985  1.0000
  H   H795      1.0  0.47279  0.91306  0.59665  1.0000
  C   C471      1.0  0.45913  0.51443  0.80056  1.0000
  C   C472      1.0  0.48215  0.54459  0.93029  1.0000
  H   H796      1.0  0.50330  0.54285  0.94970  1.0000
  H   H797      1.0  0.44794  0.76669  0.83918  1.0000
  H   H798      1.0  0.50542  0.80029  0.95497  1.0000
  H   H799      1.0  0.60021  0.81919  0.95973  1.0000
  H   H800      1.0  0.43660  0.82587  0.85220  1.0000
  H   H801      1.0  0.50294  0.95146  0.52584  1.0000
  H   H802      1.0  0.52570  0.90783  0.61833  1.0000
  N   N25       1.0  0.51985  0.95175  0.58307  1.0000
  H   H803      1.0  0.40152  0.51226  0.69526  1.0000
  H   H804      1.0  0.53608  0.71219  0.70101  1.0000
  H   H805      1.0  0.55406  0.91860  0.58026  1.0000
  C   C473      1.0  0.36005  0.75664  0.91167  1.0000
  H   H806      1.0  0.41079  0.66616  0.77744  1.0000
  C   C474      1.0  0.63857  0.84951  0.92710  1.0000
  H   H807      1.0  0.40423  0.51099  0.61942  1.0000
  H   H808      1.0  0.40668  0.84895  0.90568  1.0000
  H   H809      1.0  0.65654  0.99724  0.88988  1.0000
  H   H810      1.0  0.63152  0.92877  0.88745  1.0000
  C   C475      1.0  0.60257  0.95432  0.60680  1.0000
  C   C476      1.0  0.62125  0.82564  0.97774  1.0000
  H   H811      1.0  0.40522  0.81102  0.86349  1.0000
  H   H812      1.0  0.63990  0.96127  0.83646  1.0000
  H   H813      1.0  0.62359  0.91829  0.92746  1.0000
  H   H814      1.0  0.61929  0.83677  0.91045  1.0000
  H   H815      1.0  0.61882  0.87793  0.96298  1.0000
  C   C477      1.0  0.38556  0.87040  0.95700  1.0000
  H   H816      1.0  0.49096  0.99295  0.58392  1.0000
  H   H817      1.0  0.60462  0.96705  0.58219  1.0000
  H   H818      1.0  0.43980  0.54587  0.66467  1.0000
  C   C478      1.0  0.47067  0.50931  0.91862  1.0000
  H   H819      1.0  0.58591  0.87680  0.89423  1.0000
  H   H820      1.0  0.61897  0.96479  0.62970  1.0000
  H   H821      1.0  0.62766  0.85264  0.85817  1.0000
  H   H822      1.0  0.55261  0.92109  0.86332  1.0000
  C   C479      1.0  0.48505  0.92999  0.61784  1.0000
  H   H823      1.0  0.57562  0.70947  0.53180  1.0000
  S   S123      1.0  0.55068  0.98813  0.69949  1.0000
  H   H824      1.0  0.49426  0.83052  0.89984  1.0000
  C   C480      1.0  0.41570  0.85712  0.96228  1.0000
  H   H825      1.0  0.50649  0.85395  0.94062  1.0000
  H   H826      1.0  0.48519  0.88417  0.86545  1.0000
  H   H827      1.0  0.35165  0.52576  0.68145  1.0000
  H   H828      1.0  0.43003  0.87927  0.96633  1.0000
  C   C481      1.0  0.59562  0.71968  0.52768  1.0000
  H   H829      1.0  0.47437  0.95498  0.61516  1.0000
  H   H830      1.0  0.40545  0.81189  0.93088  1.0000
  H   H831      1.0  0.48264  0.76536  0.95566  1.0000
  H   H832      1.0  0.38812  0.63058  0.67030  1.0000
  H   H833      1.0  0.44671  0.51560  0.70086  1.0000
  H   H834      1.0  0.39248  0.63046  0.78948  1.0000
  H   H835      1.0  0.39133  0.59538  0.60149  1.0000
  H   H836      1.0  0.46762  0.55785  0.94318  1.0000
  H   H837      1.0  0.55253  0.95643  0.55551  1.0000
  H   H838      1.0  0.59336  0.89042  0.85354  1.0000
  C   C482      1.0  0.57432  0.92815  0.87877  1.0000
  H   H839      1.0  0.57278  0.94866  0.63763  1.0000
  H   H840      1.0  0.44701  0.86719  0.89196  1.0000
  H   H841      1.0  0.46158  0.87813  0.93662  1.0000
  C   C483      1.0  0.38300  0.61458  0.61680  1.0000
  H   H842      1.0  0.41610  0.63585  0.72422  1.0000
  C   C484      1.0  0.49966  0.93840  0.54963  1.0000
  C   C485      1.0  0.48393  0.91465  0.65337  1.0000
  H   H843      1.0  0.47221  0.72743  0.62304  1.0000
  H   H844      1.0  0.47740  0.94443  0.54917  1.0000
  C   C486      1.0  0.48112  0.54861  0.70108  1.0000
  H   H845      1.0  0.39353  0.55576  0.65149  1.0000
  H   H846      1.0  0.37180  0.59645  0.72174  1.0000
  C   C487      1.0  0.57328  0.96071  0.61209  1.0000
  H   H847      1.0  0.41680  0.75180  0.85119  1.0000
  H   H848      1.0  0.60906  0.99064  0.69477  1.0000
  H   H849      1.0  0.58142  0.94981  0.86506  1.0000
  H   H850      1.0  0.48391  0.55992  0.90709  1.0000
  N   N26       1.0  0.40397  0.56585  0.70785  1.0000
  C   C488      1.0  0.43585  0.56677  0.71549  1.0000
  C   C489      1.0  0.39423  0.58865  0.73336  1.0000
  H   H851      1.0  0.60567  0.73604  0.55068  1.0000
  C   C490      1.0  0.38945  0.57522  0.66982  1.0000
  C   C491      1.0  0.41192  0.62104  0.74635  1.0000
  H   H852      1.0  0.34694  0.75388  0.88474  1.0000
  H   H853      1.0  0.52782  0.94690  0.64005  1.0000
  H   H854      1.0  0.44560  0.56075  0.74402  1.0000
  H   H855      1.0  0.44347  0.59255  0.71169  1.0000
  H   H856      1.0  0.39437  0.57463  0.75829  1.0000
  H   H857      1.0  0.61965  0.77784  0.76273  1.0000
  H   H858      1.0  0.35476  0.54159  0.72553  1.0000
  H   H859      1.0  0.57352  0.93610  0.90570  1.0000
  H   H860      1.0  0.43269  0.61394  0.76471  1.0000
  C   C492      1.0  0.48785  0.51659  0.80181  1.0000
  H   H861      1.0  0.45014  0.79957  0.97823  1.0000
  H   H862      1.0  0.49382  0.88911  0.65698  1.0000
  H   H863      1.0  0.60644  0.92672  0.60524  1.0000
  H   H864      1.0  0.40766  0.52128  0.74118  1.0000
  C   C493      1.0  0.39665  0.61024  0.65668  1.0000
  H   H865      1.0  0.47184  0.83632  0.98302  1.0000
  H   H866      1.0  0.41049  0.65389  0.51705  1.0000
  H   H867      1.0  0.46156  0.91211  0.65414  1.0000
  N   N27       1.0  0.52489  0.73804  0.74389  1.0000
  C   C494      1.0  0.52326  0.73443  0.70493  1.0000
  C   C495      1.0  0.55545  0.74067  0.76555  1.0000
  C   C496      1.0  0.51270  0.70613  0.75551  1.0000
  C   C497      1.0  0.50772  0.76765  0.75093  1.0000
  C   C498      1.0  0.51311  0.80260  0.73578  1.0000
  C   C499      1.0  0.49314  0.73020  0.67953  1.0000
  C   C500      1.0  0.51507  0.70297  0.79592  1.0000
  C   C501      1.0  0.57612  0.76053  0.74901  1.0000
  C   C502      1.0  0.60528  0.76381  0.77542  1.0000
  C   C503      1.0  0.48954  0.82755  0.73697  1.0000
  C   C504      1.0  0.50252  0.66953  0.80448  1.0000
  H   H868      1.0  0.53309  0.75637  0.69496  1.0000
  H   H869      1.0  0.55670  0.75194  0.79195  1.0000
  H   H870      1.0  0.56502  0.71493  0.77131  1.0000
  H   H871      1.0  0.52307  0.68336  0.74776  1.0000
  H   H872      1.0  0.48978  0.70380  0.74175  1.0000
  H   H873      1.0  0.48470  0.76199  0.74128  1.0000
  H   H874      1.0  0.51149  0.77148  0.77998  1.0000
  H   H875      1.0  0.51392  0.80149  0.70779  1.0000
  H   H876      1.0  0.53326  0.81333  0.75221  1.0000
  H   H877      1.0  0.48428  0.70508  0.68351  1.0000
  H   H878      1.0  0.47858  0.75021  0.68382  1.0000
  H   H879      1.0  0.50340  0.72367  0.80487  1.0000
  H   H880      1.0  0.53746  0.70377  0.81205  1.0000
  H   H881      1.0  0.57919  0.74696  0.72548  1.0000
  H   H882      1.0  0.56828  0.78625  0.74051  1.0000
  H   H883      1.0  0.63557  0.80347  0.97999  1.0000
  C   C505      1.0  0.34880  0.68485  0.53054  1.0000
  H   H884      1.0  0.60377  0.77795  0.79928  1.0000
  H   H885      1.0  0.49466  0.85302  0.72830  1.0000
  H   H886      1.0  0.46908  0.81927  0.71891  1.0000
  H   H887      1.0  0.48728  0.82966  0.76440  1.0000
  H   H888      1.0  0.65527  0.82975  0.93189  1.0000
  H   H889      1.0  0.51381  0.64763  0.79691  1.0000
  H   H890      1.0  0.50480  0.66791  0.83351  1.0000
  H   H891      1.0  0.47963  0.66792  0.79045  1.0000
  N   N28       1.0  0.44781  0.82595  0.92889  1.0000
  C   C506      1.0  0.44534  0.79741  0.90265  1.0000
  C   C507      1.0  0.46431  0.81415  0.96552  1.0000
  H   H892      1.0  0.50851  0.71340  0.63485  1.0000
  C   C508      1.0  0.46078  0.85726  0.91746  1.0000
  C   C509      1.0  0.49129  0.85387  0.91381  1.0000
  C   C510      1.0  0.42739  0.80471  0.86417  1.0000
  H   H893      1.0  0.49042  0.53003  0.68616  1.0000
  C   C511      1.0  0.48993  0.79007  0.96818  1.0000
  C   C512      1.0  0.49907  0.88362  0.89310  1.0000
  C   C513      1.0  0.42635  0.77368  0.84062  1.0000
  H   H894      1.0  0.43607  0.77478  0.91241  1.0000
  H   H895      1.0  0.46634  0.78888  0.90068  1.0000
  C   C514      1.0  0.62481  0.90735  0.90186  1.0000
  C   C515      1.0  0.36373  0.52352  0.70983  1.0000
  H   H896      1.0  0.61455  0.73841  0.78364  1.0000
  C   C516      1.0  0.44931  0.54240  0.69359  1.0000
  C   C517      1.0  0.39696  0.64425  0.76673  1.0000
  H   H897      1.0  0.50490  0.88427  0.56681  1.0000
  H   H898      1.0  0.56899  0.00463  0.51571  1.0000
  H   H899      1.0  0.38782  0.64013  0.60799  1.0000
  S   S124      1.0  0.34852  0.53439  0.58385  1.0000
  H   H900      1.0  0.36606  0.57503  0.66520  1.0000
  C   C518      1.0  0.50220  0.89999  0.54257  1.0000
  H   H901      1.0  0.56437  0.51321  0.97181  1.0000
  H   H902      1.0  0.52076  0.89562  0.53199  1.0000
  C   C519      1.0  0.51384  0.98896  0.58633  1.0000
  C   C520      1.0  0.63371  0.85668  0.96387  1.0000
  H   H903      1.0  0.35963  0.61176  0.61060  1.0000
  H   H904      1.0  0.57091  0.98841  0.61446  1.0000
  H   H905      1.0  0.45734  0.88740  0.52603  1.0000
  C   C521      1.0  0.57737  0.52753  0.99485  1.0000
  H   H906      1.0  0.35321  0.69623  0.55738  1.0000
  H   H907      1.0  0.60007  0.52565  0.99540  1.0000
  H   H908      1.0  0.65421  0.86225  0.98338  1.0000
  H   H909      1.0  0.36437  0.69503  0.51724  1.0000
  H   H910      1.0  0.57100  0.55463  0.99137  1.0000
  N   N29       1.0  0.64647  0.87930  0.90734  1.0000
  H   H911      1.0  0.39569  0.97064  0.98955  1.0000
  H   H912      1.0  0.37016  0.84919  0.95266  1.0000
  H   H913      1.0  0.64774  0.88865  0.85304  1.0000
  C   C522      1.0  0.47600  0.88702  0.51505  1.0000
  H   H914      1.0  0.47964  0.86047  0.50796  1.0000
  C   C523      1.0  0.64731  0.86684  0.87107  1.0000
  H   H915      1.0  0.44929  0.51270  0.90001  1.0000
  H   H916      1.0  0.62990  0.76522  0.51073  1.0000
  H   H917      1.0  0.60983  0.69809  0.52651  1.0000
  H   H918      1.0  0.42104  0.84181  0.98712  1.0000
  H   H919      1.0  0.38407  0.88436  0.98105  1.0000
  H   H920      1.0  0.61850  0.83106  0.00448  1.0000
  H   H921      1.0  0.65707  0.00455  0.78793  1.0000
  H   H922      1.0  0.51158  0.00516  0.53121  1.0000
  S   S125      1.0  0.96871  0.14013  0.45017  1.0000
  S   S126      1.0  0.97251  0.20423  0.39733  1.0000
  Fe  Fe63      1.0  0.96895  0.19694  0.45321  1.0000
  S   S127      1.0  0.94393  0.22936  0.48218  1.0000
  H   H923      1.0  0.74936  0.24989  0.50042  1.0000
  H   H924      1.0  0.71007  0.21657  0.50492  1.0000
  H   H925      1.0  0.73141  0.48693  0.35340  1.0000
  S   S128      1.0  0.75512  0.31781  0.46617  1.0000
  C   C524      1.0  0.67771  0.28268  0.23028  1.0000
  S   S129      1.0  0.81640  0.28158  0.43130  1.0000
  Fe  Fe64      1.0  0.75501  0.37462  0.46244  1.0000
  S   S130      1.0  0.71218  0.39322  0.42798  1.0000
  H   H926      1.0  0.90263  0.38404  0.49519  1.0000
  H   H927      1.0  0.77722  0.14103  0.41887  1.0000
  S   S131      1.0  0.75932  0.12149  0.06294  1.0000
  H   H928      1.0  0.69379  0.27042  0.21915  1.0000
  H   H929      1.0  0.78335  0.20218  0.01742  1.0000
  H   H930      1.0  0.97629  0.03635  0.19441  1.0000
  C   C525      1.0  0.72339  0.13255  0.05776  1.0000
  C   C526      1.0  0.71671  0.16121  0.07522  1.0000
  H   H931      1.0  0.93881  0.26858  0.41697  1.0000
  H   H932      1.0  0.94538  0.05233  0.39997  1.0000
  C   C527      1.0  0.66639  0.15299  0.04777  1.0000
  C   C528      1.0  0.90785  0.24147  0.46789  1.0000
  Fe  Fe65      1.0  0.97686  0.14718  0.39666  1.0000
  C   C529      1.0  0.86891  0.27392  0.47960  1.0000
  C   C530      1.0  0.85160  0.26614  0.44589  1.0000
  C   C531      1.0  0.86249  0.24567  0.42330  1.0000
  C   C532      1.0  0.89054  0.23341  0.43420  1.0000
  C   C533      1.0  0.89681  0.26155  0.49056  1.0000
  N   N30       1.0  0.98043  0.32446  0.12653  1.0000
  S   S132      1.0  0.79940  0.37594  0.45612  1.0000
  H   H933      1.0  0.89877  0.21787  0.41656  1.0000
  H   H934      1.0  0.73506  0.31166  0.38384  1.0000
  C   C534      1.0  0.68834  0.17160  0.07002  1.0000
  H   H935      1.0  0.74125  0.35604  0.37840  1.0000
  H   H936      1.0  0.73358  0.17579  0.09234  1.0000
  C   C535      1.0  0.73983  0.18210  0.44291  1.0000
  H   H937      1.0  0.70888  0.30974  0.26954  1.0000
  C   C536      1.0  0.66715  0.33401  0.26334  1.0000
  H   H938      1.0  0.81474  0.23958  0.50520  1.0000
  H   H939      1.0  0.92854  0.38354  0.44975  1.0000
  H   H940      1.0  0.68347  0.19401  0.08305  1.0000
  C   C537      1.0  0.67452  0.43337  0.38053  1.0000
  C   C538      1.0  0.70329  0.42669  0.39658  1.0000
  C   C539      1.0  0.72377  0.44617  0.38673  1.0000
  C   C540      1.0  0.71545  0.47200  0.36095  1.0000
  Fe  Fe66      1.0  0.80053  0.31960  0.46513  1.0000
  H   H941      1.0  0.74598  0.44131  0.39890  1.0000
  H   H942      1.0  0.95720  0.38165  0.33704  1.0000
  H   H943      1.0  0.75109  0.21197  0.40076  1.0000
  H   H944      1.0  0.91596  0.13769  0.23491  1.0000
  H   H945      1.0  0.70910  0.38727  0.32611  1.0000
  H   H946      1.0  0.94317  0.12215  0.27242  1.0000
  C   C541      1.0  0.92341  0.08312  0.23535  1.0000
  C   C542      1.0  0.91586  0.29202  0.36756  1.0000
  C   C543      1.0  0.95674  0.04911  0.32403  1.0000
  H   H947      1.0  0.72180  0.35943  0.29866  1.0000
  H   H948      1.0  0.93504  0.04661  0.32517  1.0000
  H   H949      1.0  0.74959  0.16117  0.46132  1.0000
  C   C544      1.0  0.91360  0.26018  0.34487  1.0000
  C   C545      1.0  0.93260  0.04110  0.16199  1.0000
  H   H950      1.0  0.91730  0.30646  0.44905  1.0000
  H   H951      1.0  0.83970  0.07477  0.16859  1.0000
  H   H952      1.0  0.70455  0.43158  0.29160  1.0000
  C   C546      1.0  0.89806  0.33677  0.10530  1.0000
  C   C547      1.0  0.87197  0.04266  0.15455  1.0000
  H   H953      1.0  0.67232  0.26499  0.24966  1.0000
  C   C548      1.0  0.96920  0.02311  0.30881  1.0000
  N   N31       1.0  0.94872  0.32182  0.42262  1.0000
  H   H954      1.0  0.78085  0.20143  0.43747  1.0000
  H   H955      1.0  0.69537  0.33191  0.22802  1.0000
  H   H956      1.0  0.91705  0.31409  0.35038  1.0000
  H   H957      1.0  0.85743  0.02739  0.21559  1.0000
  S   S133      1.0  0.95426  0.11231  0.35197  1.0000
  H   H958      1.0  0.93243  0.06912  0.16373  1.0000
  C   C549      1.0  0.89498  0.00691  0.25057  1.0000
  H   H959      1.0  0.78192  0.16924  0.38454  1.0000
  H   H960      1.0  0.88024  0.06145  0.13850  1.0000
  H   H961      1.0  0.92370  0.31210  0.07644  1.0000
  H   H962      1.0  0.66728  0.44017  0.27583  1.0000
  S   S134      1.0  0.76990  0.02899  0.02435  1.0000
  H   H963      1.0  0.87754  0.08050  0.22057  1.0000
  H   H964      1.0  0.93249  0.25755  0.33453  1.0000
  H   H965      1.0  0.91168  0.23729  0.36070  1.0000
  H   H966      1.0  0.94525  0.35574  0.48601  1.0000
  H   H967      1.0  0.93384  0.36008  0.38198  1.0000
  N   N32       1.0  0.89135  0.04012  0.19178  1.0000
  H   H968      1.0  0.96871  0.33179  0.06915  1.0000
  Fe  Fe67      1.0  0.81381  0.03007  0.01630  1.0000
  H   H969      1.0  0.89806  0.02949  0.26790  1.0000
  C   C550      1.0  0.89487  0.07519  0.20787  1.0000
  C   C551      1.0  0.97377  0.31552  0.45450  1.0000
  S   S135      1.0  0.81763  0.08677  0.02138  1.0000
  H   H970      1.0  0.74745  0.15162  0.38146  1.0000
  C   C552      1.0  0.70141  0.11366  0.03609  1.0000
  H   H971      1.0  0.89609  0.29367  0.37613  1.0000
  C   C553      1.0  0.71240  0.23469  0.43622  1.0000
  H   H972      1.0  0.75028  0.32524  0.34905  1.0000
  C   C554      1.0  0.94210  0.29028  0.40021  1.0000
  C   C555      1.0  0.75617  0.23010  0.48441  1.0000
  H   H973      1.0  0.96475  0.18792  0.27433  1.0000
  C   C556      1.0  0.91891  0.02456  0.18940  1.0000
  N   N33       1.0  0.67634  0.36705  0.28221  1.0000
  N   N34       1.0  0.73086  0.21071  0.46290  1.0000
  H   H974      1.0  0.89249  0.09503  0.18687  1.0000
  H   H975      1.0  0.71100  0.44451  0.23243  1.0000
  H   H976      1.0  0.84922  0.23940  0.39721  1.0000
  H   H977      1.0  0.90667  0.11476  0.27055  1.0000
  H   H978      1.0  0.83442  0.08475  0.10438  1.0000
  H   H979      1.0  0.66187  0.39279  0.23156  1.0000
  C   C557      1.0  0.98546  0.02552  0.41589  1.0000
  H   H980      1.0  0.98562  0.44505  0.04190  1.0000
  C   C558      1.0  0.96014  0.04232  0.42468  1.0000
  H   H981      1.0  0.96659  0.30375  0.47664  1.0000
  C   C559      1.0  0.95046  0.32369  0.13003  1.0000
  C   C560      1.0  0.95384  0.35217  0.40155  1.0000
  H   H982      1.0  0.72095  0.17044  0.42430  1.0000
  C   C561      1.0  0.68582  0.42971  0.26833  1.0000
  C   C562      1.0  0.66621  0.45911  0.35474  1.0000
  C   C563      1.0  0.98299  0.18353  0.29786  1.0000
  C   C564      1.0  0.92206  0.11654  0.25431  1.0000
  H   H983      1.0  0.98387  0.33993  0.46514  1.0000
  C   C565      1.0  0.68666  0.47839  0.34465  1.0000
  H   H984      1.0  0.92066  0.03383  0.13461  1.0000
  H   H985      1.0  0.82573  0.04056  0.09514  1.0000
  H   H986      1.0  0.94067  0.08529  0.22206  1.0000
  H   H987      1.0  0.76655  0.24428  0.46665  1.0000
  H   H988      1.0  0.95674  0.26862  0.08746  1.0000
  C   C566      1.0  0.92326  0.32941  0.43616  1.0000
  C   C567      1.0  0.90057  0.36171  0.47749  1.0000
  C   C568      1.0  0.67310  0.12385  0.03114  1.0000
  H   H989      1.0  0.87147  0.01817  0.14064  1.0000
  H   H990      1.0  0.89449  0.26183  0.32194  1.0000
  H   H991      1.0  0.96483  0.24602  0.03182  1.0000
  C   C569      1.0  0.68042  0.39265  0.25526  1.0000
  C   C570      1.0  0.71515  0.19626  0.48791  1.0000
  H   H992      1.0  0.72551  0.24929  0.42205  1.0000
  H   H993      1.0  0.82941  0.03109  0.15964  1.0000
  C   C571      1.0  0.70495  0.33517  0.33884  1.0000
  H   H994      1.0  0.69869  0.38533  0.24512  1.0000
  H   H995      1.0  0.97226  0.04102  0.14736  1.0000
  C   C572      1.0  0.96312  0.02914  0.16758  1.0000
  Fe  Fe68      1.0  0.77240  0.08596  0.02440  1.0000
  C   C573      1.0  0.82501  0.06188  0.11332  1.0000
  H   H996      1.0  0.96727  0.06380  0.44315  1.0000
  H   H997      1.0  0.88111  0.34230  0.08064  1.0000
  H   H998      1.0  0.67913  0.24855  0.46218  1.0000
  C   C574      1.0  0.69541  0.26100  0.45148  1.0000
  H   H999      1.0  0.92945  0.06311  0.25570  1.0000
  C   C575      1.0  0.69135  0.45244  0.23914  1.0000
  H   H1000     1.0  0.78586  0.18659  0.49838  1.0000
  H   H1001     1.0  0.69036  0.34126  0.35530  1.0000
  C   C576      1.0  0.84082  0.05271  0.15154  1.0000
  C   C577      1.0  0.68945  0.31589  0.24829  1.0000
  C   C578      1.0  0.68770  0.17644  0.47012  1.0000
  H   H1002     1.0  0.66130  0.40044  0.31671  1.0000
  C   C579      1.0  0.76705  0.16148  0.40013  1.0000
  C   C580      1.0  0.96881  0.27320  0.03860  1.0000
  H   H1003     1.0  0.70963  0.27543  0.47315  1.0000
  H   H1004     1.0  0.90448  0.33579  0.41388  1.0000
  C   C581      1.0  0.73472  0.33193  0.36395  1.0000
  H   H1005     1.0  0.93494  0.02431  0.21554  1.0000
  C   C582      1.0  0.76040  0.19195  0.42045  1.0000
  H   H1006     1.0  0.69400  0.47906  0.24853  1.0000
  H   H1007     1.0  0.89242  0.31313  0.11735  1.0000
  C   C583      1.0  0.97194  0.07856  0.33719  1.0000
  C   C584      1.0  0.68014  0.28636  0.42311  1.0000
  H   H1008     1.0  0.69694  0.22056  0.41504  1.0000
  C   C585      1.0  0.92633  0.33264  0.09635  1.0000
  C   C586      1.0  0.70392  0.36337  0.31072  1.0000
  H   H1009     1.0  0.88087  0.36464  0.45556  1.0000
  H   H1010     1.0  0.89908  0.35811  0.12403  1.0000
  H   H1011     1.0  0.94514  0.29806  0.13844  1.0000
  H   H1012     1.0  0.69909  0.31012  0.32640  1.0000
  H   H1013     1.0  0.97922  0.38419  0.08381  1.0000
  H   H1014     1.0  0.80248  0.06747  0.11161  1.0000
  H   H1015     1.0  0.69559  0.30102  0.41282  1.0000
  H   H1016     1.0  0.97911  0.19739  0.32077  1.0000
  H   H1017     1.0  0.67332  0.45137  0.21488  1.0000
  H   H1018     1.0  0.95889  0.39428  0.11487  1.0000
  C   C587      1.0  0.76101  0.20719  0.01712  1.0000
  H   H1019     1.0  0.93055  0.35630  0.08343  1.0000
  H   H1020     1.0  0.94849  0.34087  0.15178  1.0000
  C   C588      1.0  0.92649  0.35908  0.46294  1.0000
  C   C589      1.0  0.98228  0.31523  0.08978  1.0000
  H   H1021     1.0  0.70622  0.09132  0.02287  1.0000
  H   H1022     1.0  0.96020  0.37438  0.41928  1.0000
  H   H1023     1.0  0.66808  0.30454  0.43504  1.0000
  H   H1024     1.0  0.86086  0.28959  0.49726  1.0000
  H   H1025     1.0  0.67348  0.19097  0.44814  1.0000
  H   H1026     1.0  0.94972  0.28786  0.02460  1.0000
  H   H1027     1.0  0.69306  0.15218  0.45923  1.0000
  C   C590      1.0  0.97520  0.27782  0.07879  1.0000
  H   H1028     1.0  0.96026  0.28263  0.39019  1.0000
  H   H1029     1.0  0.94858  0.02377  0.43700  1.0000
  C   C591      1.0  0.87751  0.01641  0.21255  1.0000
  H   H1030     1.0  0.98437  0.15598  0.30404  1.0000
  H   H1031     1.0  0.98225  0.31535  0.19793  1.0000
  H   H1032     1.0  0.75665  0.19361  0.04000  1.0000
  H   H1033     1.0  0.66510  0.27315  0.40085  1.0000
  H   H1034     1.0  0.89872  0.33878  0.49327  1.0000
  H   H1035     1.0  0.97332  0.32592  0.36422  1.0000
  H   H1036     1.0  0.65848  0.28746  0.20808  1.0000
  C   C592      1.0  0.97698  0.34841  0.38163  1.0000
  C   C593      1.0  0.97754  0.37920  0.35796  1.0000
  C   C594      1.0  0.98036  0.38899  0.11203  1.0000
  H   H1037     1.0  0.98702  0.28162  0.02891  1.0000
  H   H1038     1.0  0.98770  0.44274  0.10574  1.0000
  H   H1039     1.0  0.98160  0.40273  0.37397  1.0000
  H   H1040     1.0  0.75834  0.23482  0.02029  1.0000
  C   C595      1.0  0.67103  0.16803  0.49695  1.0000
  H   H1041     1.0  0.65858  0.41821  0.38782  1.0000
  H   H1042     1.0  0.98863  0.27345  0.14761  1.0000
  H   H1043     1.0  0.98944  0.26491  0.44702  1.0000
  H   H1044     1.0  0.65981  0.31593  0.28091  1.0000
  H   H1045     1.0  0.95161  0.05574  0.01388  1.0000
  C   C596      1.0  0.90774  0.36382  0.66217  1.0000
  S   S136      1.0  0.85484  0.40620  0.54180  1.0000
  H   H1046     1.0  0.86008  0.45546  0.71684  1.0000
  C   C597      1.0  0.97504  0.46769  0.87554  1.0000
  H   H1047     1.0  0.92892  0.03831  0.97320  1.0000
  H   H1048     1.0  0.89453  0.38346  0.64513  1.0000
  C   C598      1.0  0.86436  0.33401  0.66982  1.0000
  S   S137      1.0  0.96328  0.22019  0.88399  1.0000
  S   S138      1.0  0.95871  0.28103  0.93978  1.0000
  Fe  Fe69      1.0  0.96124  0.22414  0.94077  1.0000
  S   S139      1.0  0.93860  0.18927  0.97102  1.0000
  Fe  Fe70      1.0  0.96512  0.27742  0.88500  1.0000
  S   S140      1.0  0.93936  0.31157  0.84094  1.0000
  S   S141      1.0  0.79790  0.03122  0.95626  1.0000
  S   S142      1.0  0.75483  0.09152  0.96557  1.0000
  Fe  Fe71      1.0  0.75424  0.03451  0.96454  1.0000
  H   H1049     1.0  0.69206  0.22525  0.84748  1.0000
  S   S143      1.0  0.81526  0.12317  0.92513  1.0000
  C   C599      1.0  0.90414  0.17150  0.95731  1.0000
  C   C600      1.0  0.89588  0.14839  0.98011  1.0000
  C   C601      1.0  0.86885  0.13339  0.97054  1.0000
  C   C602      1.0  0.84963  0.14142  0.93801  1.0000
  C   C603      1.0  0.85790  0.16449  0.91511  1.0000
  C   C604      1.0  0.88499  0.17956  0.92472  1.0000
  H   H1050     1.0  0.80058  0.25183  0.54162  1.0000
  H   H1051     1.0  0.72588  0.20618  0.84962  1.0000
  H   H1052     1.0  0.89101  0.19738  0.90696  1.0000
  H   H1053     1.0  0.66838  0.21036  0.89688  1.0000
  H   H1054     1.0  0.91426  0.30046  0.69072  1.0000
  Fe  Fe72      1.0  0.81341  0.37897  0.51618  1.0000
  C   C605      1.0  0.95625  0.34596  0.82592  1.0000
  C   C606      1.0  0.92673  0.13387  0.86918  1.0000
  C   C607      1.0  0.87641  0.47650  0.63850  1.0000
  H   H1055     1.0  0.98642  0.14088  0.90760  1.0000
  C   C608      1.0  0.95324  0.40139  0.79680  1.0000
  C   C609      1.0  0.94006  0.37333  0.80809  1.0000
  H   H1056     1.0  0.94074  0.42269  0.78383  1.0000
  H   H1057     1.0  0.91734  0.37315  0.80369  1.0000
  C   C610      1.0  0.86239  0.43189  0.58009  1.0000
  C   C611      1.0  0.89078  0.43961  0.59700  1.0000
  C   C612      1.0  0.89781  0.46127  0.62652  1.0000
  C   C613      1.0  0.84101  0.44603  0.59297  1.0000
  H   H1058     1.0  0.90742  0.42907  0.58695  1.0000
  C   C614      1.0  0.80566  0.23005  0.52660  1.0000
  C   C615      1.0  0.66354  0.25705  0.54369  1.0000
  H   H1059     1.0  0.96613  0.04977  0.93911  1.0000
  H   H1060     1.0  0.67995  0.21651  0.58043  1.0000
  H   H1061     1.0  0.93973  0.50177  0.87407  1.0000
  H   H1062     1.0  0.86648  0.30694  0.66298  1.0000
  H   H1063     1.0  0.72209  0.02966  0.76629  1.0000
  H   H1064     1.0  0.91198  0.38510  0.72876  1.0000
  C   C616      1.0  0.98328  0.45807  0.91554  1.0000
  H   H1065     1.0  0.96610  0.39719  0.87931  1.0000
  H   H1066     1.0  0.91813  0.25363  0.73291  1.0000
  H   H1067     1.0  0.83770  0.49564  0.53049  1.0000
  H   H1068     1.0  0.97749  0.14992  0.63788  1.0000
  H   H1069     1.0  0.94836  0.08857  0.71934  1.0000
  H   H1070     1.0  0.65764  0.08322  0.89210  1.0000
  H   H1071     1.0  0.97875  0.37035  0.91627  1.0000
  H   H1072     1.0  0.70775  0.22809  0.98464  1.0000
  H   H1073     1.0  0.73613  0.08610  0.87697  1.0000
  H   H1074     1.0  0.96478  0.46423  0.92553  1.0000
  C   C617      1.0  0.70994  0.20038  0.98118  1.0000
  C   C618      1.0  0.67066  0.28586  0.52668  1.0000
  H   H1075     1.0  0.69396  0.13772  0.97131  1.0000
  C   C619      1.0  0.96124  0.50274  0.86993  1.0000
  H   H1076     1.0  0.72394  0.24088  0.87858  1.0000
  H   H1077     1.0  0.68630  0.10012  0.78871  1.0000
  H   H1078     1.0  0.70473  0.08475  0.75885  1.0000
  H   H1079     1.0  0.86934  0.42397  0.75163  1.0000
  H   H1080     1.0  0.98846  0.06016  0.98134  1.0000
  H   H1081     1.0  0.94113  0.08450  0.88918  1.0000
  S   S144      1.0  0.96817  0.49018  0.70175  1.0000
  C   C620      1.0  0.81717  0.33739  0.62254  1.0000
  H   H1082     1.0  0.69371  0.09690  0.89852  1.0000
  C   C621      1.0  0.98773  0.43950  0.98758  1.0000
  C   C622      1.0  0.98266  0.40188  0.80268  1.0000
  C   C623      1.0  0.92081  0.37406  0.89817  1.0000
  C   C624      1.0  0.68516  0.23869  0.56711  1.0000
  S   S145      1.0  0.76886  0.38178  0.52215  1.0000
  H   H1083     1.0  0.81738  0.30970  0.61768  1.0000
  N   N35       1.0  0.89300  0.34890  0.68807  1.0000
  C   C625      1.0  0.70881  0.19256  0.89359  1.0000
  S   S146      1.0  0.81645  0.32256  0.52423  1.0000
  H   H1084     1.0  0.69690  0.23395  0.92314  1.0000
  H   H1085     1.0  0.69992  0.02139  0.83473  1.0000
  C   C626      1.0  0.97296  0.12214  0.91691  1.0000
  C   C627      1.0  0.74135  0.19480  0.98211  1.0000
  H   H1086     1.0  0.95983  0.44946  0.85926  1.0000
  C   C628      1.0  0.68976  0.20753  0.91583  1.0000
  C   C629      1.0  0.95066  0.10863  0.88350  1.0000
  C   C630      1.0  0.67572  0.09616  0.91068  1.0000
  H   H1087     1.0  0.96093  0.10367  0.86195  1.0000
  H   H1088     1.0  0.68727  0.03566  0.70918  1.0000
  H   H1089     1.0  0.93676  0.32514  0.65238  1.0000
  S   S147      1.0  0.75661  0.28978  0.56338  1.0000
  H   H1090     1.0  0.93319  0.42470  0.91388  1.0000
  H   H1091     1.0  0.96988  0.47291  0.62610  1.0000
  C   C631      1.0  0.98348  0.49097  0.61633  1.0000
  N   N36       1.0  0.68535  0.04533  0.78317  1.0000
  H   H1092     1.0  0.96955  0.05553  0.74567  1.0000
  H   H1093     1.0  0.70406  0.31867  0.51967  1.0000
  C   C632      1.0  0.97436  0.07163  0.95682  1.0000
  H   H1094     1.0  0.90050  0.31799  0.62839  1.0000
  H   H1095     1.0  0.82188  0.21427  0.54515  1.0000
  H   H1096     1.0  0.77109  0.20014  0.53353  1.0000
  S   S148      1.0  0.71111  0.01285  0.93471  1.0000
  H   H1097     1.0  0.91108  0.12288  0.84592  1.0000
  H   H1098     1.0  0.69196  0.06501  0.83655  1.0000
  H   H1099     1.0  0.93508  0.15755  0.86054  1.0000
  H   H1100     1.0  0.74347  0.04157  0.88632  1.0000
  C   C633      1.0  0.69164  0.15031  0.94524  1.0000
  C   C634      1.0  0.74620  0.06323  0.86934  1.0000
  C   C635      1.0  0.96801  0.07340  0.72316  1.0000
  H   H1101     1.0  0.74678  0.20962  0.96074  1.0000
  C   C636      1.0  0.87472  0.43419  0.72773  1.0000
  H   H1102     1.0  0.87789  0.41840  0.67679  1.0000
  H   H1103     1.0  0.80550  0.34241  0.64271  1.0000
  C   C637      1.0  0.66713  0.13195  0.91827  1.0000
  H   H1104     1.0  0.83134  0.48021  0.63104  1.0000
  H   H1105     1.0  0.91571  0.13970  0.88979  1.0000
  H   H1106     1.0  0.93365  0.33133  0.72072  1.0000
  H   H1107     1.0  0.69894  0.16953  0.87935  1.0000
  H   H1108     1.0  0.74612  0.16764  0.97959  1.0000
  Fe  Fe73      1.0  0.79984  0.08791  0.96236  1.0000
  C   C638      1.0  0.94265  0.39911  0.91914  1.0000
  H   H1109     1.0  0.80560  0.34999  0.59733  1.0000
  H   H1110     1.0  0.68204  0.08112  0.93571  1.0000
  Fe  Fe74      1.0  0.77077  0.32480  0.52489  1.0000
  H   H1111     1.0  0.96182  0.13756  0.93258  1.0000
  H   H1112     1.0  0.84924  0.39933  0.69097  1.0000
  C   C639      1.0  0.87186  0.40685  0.69944  1.0000
  H   H1113     1.0  0.90230  0.36525  0.58755  1.0000
  H   H1114     1.0  0.91586  0.37956  0.86926  1.0000
  C   C640      1.0  0.73350  0.05503  0.83010  1.0000
  H   H1115     1.0  0.93100  0.09282  0.94226  1.0000
  H   H1116     1.0  0.92723  0.37763  0.67674  1.0000
  H   H1117     1.0  0.95303  0.11060  0.98177  1.0000
  H   H1118     1.0  0.81908  0.44038  0.58005  1.0000
  C   C641      1.0  0.69899  0.29632  0.53286  1.0000
  H   H1119     1.0  0.90095  0.37608  0.90648  1.0000
  C   C642      1.0  0.90191  0.30413  0.73915  1.0000
  H   H1120     1.0  0.93058  0.33585  0.58929  1.0000
  S   S149      1.0  0.93809  0.50503  0.76700  1.0000
  C   C643      1.0  0.65956  0.09095  0.73664  1.0000
  H   H1121     1.0  0.85743  0.34645  0.61294  1.0000
  C   C644      1.0  0.84730  0.35127  0.63465  1.0000
  C   C645      1.0  0.77914  0.20894  0.51105  1.0000
  H   H1122     1.0  0.88106  0.36524  0.73498  1.0000
  H   H1123     1.0  0.70636  0.18822  0.00539  1.0000
  C   C646      1.0  0.93580  0.06190  0.98843  1.0000
  H   H1124     1.0  0.96446  0.43688  0.97855  1.0000
  H   H1125     1.0  0.84583  0.37903  0.63714  1.0000
  C   C647      1.0  0.66401  0.12587  0.72197  1.0000
  N   N37       1.0  0.68802  0.18799  0.94862  1.0000
  C   C648      1.0  0.70044  0.02053  0.76526  1.0000
  H   H1126     1.0  0.90404  0.32170  0.76176  1.0000
  H   H1127     1.0  0.73709  0.07719  0.81430  1.0000
  H   H1128     1.0  0.71164  0.14431  0.93859  1.0000
  H   H1129     1.0  0.66028  0.14616  0.89285  1.0000
  H   H1130     1.0  0.98836  0.06192  0.89478  1.0000
  H   H1131     1.0  0.73019  0.23486  0.59140  1.0000
  H   H1132     1.0  0.74543  0.03306  0.82385  1.0000
  C   C649      1.0  0.71359  0.24915  0.57326  1.0000
  C   C650      1.0  0.89049  0.37580  0.71439  1.0000
  H   H1133     1.0  0.91970  0.46693  0.63937  1.0000
  H   H1134     1.0  0.87953  0.29588  0.72980  1.0000
  C   C651      1.0  0.71281  0.21787  0.86563  1.0000
  H   H1135     1.0  0.66425  0.23573  0.99281  1.0000
  H   H1136     1.0  0.66811  0.14522  0.74326  1.0000
  H   H1137     1.0  0.92881  0.34769  0.90319  1.0000
  C   C652      1.0  0.97083  0.39650  0.90873  1.0000
  C   C653      1.0  0.65925  0.19393  0.95478  1.0000
  H   H1138     1.0  0.85071  0.33357  0.68846  1.0000
  C   C654      1.0  0.72064  0.27785  0.55593  1.0000
  H   H1139     1.0  0.89663  0.44434  0.73547  1.0000
  H   H1140     1.0  0.93808  0.37548  0.61281  1.0000
  C   C655      1.0  0.91190  0.32129  0.70876  1.0000
  C   C656      1.0  0.70151  0.04625  0.82202  1.0000
  C   C657      1.0  0.92002  0.27310  0.75381  1.0000
  H   H1141     1.0  0.88930  0.49497  0.54694  1.0000
  H   H1142     1.0  0.96694  0.05835  0.69889  1.0000
  H   H1143     1.0  0.76923  0.06831  0.87443  1.0000
  H   H1144     1.0  0.73004  0.18522  0.91010  1.0000
  C   C658      1.0  0.84802  0.46862  0.62179  1.0000
  H   H1145     1.0  0.68428  0.15352  0.51986  1.0000
  H   H1146     1.0  0.91699  0.07338  0.99457  1.0000
  H   H1147     1.0  0.94258  0.28050  0.76440  1.0000
  H   H1148     1.0  0.91281  0.26186  0.77599  1.0000
  H   H1149     1.0  0.84321  0.17087  0.88989  1.0000
  C   C659      1.0  0.92231  0.35480  0.60488  1.0000
  C   C660      1.0  0.94811  0.08684  0.96655  1.0000
  H   H1150     1.0  0.94619  0.39249  0.94761  1.0000
  H   H1151     1.0  0.91007  0.26803  0.51660  1.0000
  C   C661      1.0  0.68640  0.01293  0.72562  1.0000
  C   C662      1.0  0.91682  0.33783  0.63758  1.0000
  H   H1152     1.0  0.97219  0.13280  0.69218  1.0000
  H   H1153     1.0  0.92870  0.50352  0.59157  1.0000
  H   H1154     1.0  0.86287  0.11563  0.98837  1.0000
  C   C663      1.0  0.68527  0.08065  0.76784  1.0000
  H   H1155     1.0  0.91046  0.14207  0.00542  1.0000
  H   H1156     1.0  0.65993  0.24953  0.94754  1.0000
  H   H1157     1.0  0.68199  0.12527  0.70974  1.0000
  Fe  Fe75      1.0  0.97871  0.48312  0.76107  1.0000
  C   C664      1.0  0.98558  0.34651  0.83149  1.0000
  H   H1158     1.0  0.98735  0.48097  0.59154  1.0000
  H   H1159     1.0  0.98572  0.18831  0.70380  1.0000
  H   H1160     1.0  0.98817  0.19323  0.64749  1.0000
  H   H1161     1.0  0.98397  0.18056  0.58516  1.0000
  H   H1162     1.0  0.97861  0.22507  0.75526  1.0000
  H   H1163     1.0  0.98401  0.16261  0.75932  1.0000
  H   H1164     1.0  0.66352  0.19161  0.50684  1.0000
  H   H1165     1.0  0.72884  0.17827  0.50697  1.0000
  H   H1166     1.0  0.82221  0.97199  0.08759  1.0000
  C   C665      1.0  0.92984  0.74019  0.45642  1.0000
  S   S150      1.0  0.95689  0.85744  0.23258  1.0000
  C   C666      1.0  0.98232  0.82937  0.50052  1.0000
  C   C667      1.0  0.66150  0.76386  0.44655  1.0000
  S   S151      1.0  0.95222  0.92701  0.27634  1.0000
  H   H1167     1.0  0.67135  0.59094  0.38101  1.0000
  H   H1168     1.0  0.66731  0.74507  0.46851  1.0000
  H   H1169     1.0  0.91250  0.84456  0.08191  1.0000
  Fe  Fe76      1.0  0.93847  0.90999  0.21946  1.0000
  S   S152      1.0  0.89285  0.92089  0.18837  1.0000
  C   C668      1.0  0.95045  0.87362  0.11073  1.0000
  C   C669      1.0  0.95123  0.76236  0.40972  1.0000
  H   H1170     1.0  0.85873  0.99007  0.26860  1.0000
  C   C670      1.0  0.88230  0.94144  0.14644  1.0000
  C   C671      1.0  0.85346  0.94858  0.13131  1.0000
  C   C672      1.0  0.84443  0.96646  0.09888  1.0000
  C   C673      1.0  0.86424  0.97728  0.08129  1.0000
  H   H1171     1.0  0.91579  0.99730  0.18244  1.0000
  C   C674      1.0  0.90203  0.95192  0.12861  1.0000
  H   H1172     1.0  0.83804  0.94054  0.14492  1.0000
  H   H1173     1.0  0.89255  0.97423  0.29443  1.0000
  C   C675      1.0  0.97462  0.77078  0.47291  1.0000
  H   H1174     1.0  0.92426  0.94684  0.14013  1.0000
  H   H1175     1.0  0.96143  0.81990  0.44586  1.0000
  H   H1176     1.0  0.92474  0.82441  0.14418  1.0000
  H   H1177     1.0  0.96930  0.77870  0.40795  1.0000
  H   H1178     1.0  0.66409  0.57919  0.33501  1.0000
  H   H1179     1.0  0.85026  0.51995  0.49868  1.0000
  H   H1180     1.0  0.91370  0.76737  0.34075  1.0000
  H   H1181     1.0  0.97600  0.75767  0.12288  1.0000
  C   C676      1.0  0.91270  0.84832  0.13641  1.0000
  C   C677      1.0  0.88542  0.70580  0.45188  1.0000
  C   C678      1.0  0.95363  0.80049  0.02659  1.0000
  H   H1182     1.0  0.95418  0.89352  0.13152  1.0000
  H   H1183     1.0  0.93254  0.71711  0.37831  1.0000
  H   H1184     1.0  0.95722  0.00069  0.29862  1.0000
  H   H1185     1.0  0.91687  0.76368  0.45260  1.0000
  C   C679      1.0  0.96297  0.80750  0.47186  1.0000
  H   H1186     1.0  0.87157  0.99232  0.19758  1.0000
  H   H1187     1.0  0.95299  0.81308  0.07949  1.0000
  H   H1188     1.0  0.87292  0.72934  0.45148  1.0000
  H   H1189     1.0  0.96546  0.69251  0.49617  1.0000
  H   H1190     1.0  0.90089  0.72044  0.40787  1.0000
  C   C680      1.0  0.91880  0.86361  0.10328  1.0000
  H   H1191     1.0  0.94766  0.93673  0.08883  1.0000
  C   C681      1.0  0.87963  0.98039  0.26711  1.0000
  C   C682      1.0  0.97426  0.71436  0.44799  1.0000
  H   H1192     1.0  0.87122  0.68621  0.43619  1.0000
  H   H1193     1.0  0.92131  0.68783  0.43635  1.0000
  H   H1194     1.0  0.93432  0.73442  0.48532  1.0000
  H   H1195     1.0  0.66933  0.50730  0.12964  1.0000
  C   C683      1.0  0.94509  0.91876  0.06635  1.0000
  H   H1196     1.0  0.91860  0.86639  0.15880  1.0000
  H   H1197     1.0  0.94842  0.92131  0.01136  1.0000
  H   H1198     1.0  0.70017  0.79294  0.46778  1.0000
  C   C684      1.0  0.96237  0.82364  0.05891  1.0000
  Fe  Fe77      1.0  0.97456  0.87672  0.28855  1.0000
  H   H1199     1.0  0.96201  0.86838  0.02747  1.0000
  C   C685      1.0  0.93518  0.75739  0.34241  1.0000
  C   C686      1.0  0.95245  0.86059  0.04907  1.0000
  N   N38       1.0  0.95989  0.88576  0.07909  1.0000
  H   H1200     1.0  0.68481  0.79780  0.42034  1.0000
  H   H1201     1.0  0.88975  0.84278  0.13110  1.0000
  C   C687      1.0  0.94702  0.73831  0.37740  1.0000
  H   H1202     1.0  0.92183  0.91473  0.05645  1.0000
  H   H1203     1.0  0.94918  0.77886  0.34001  1.0000
  C   C688      1.0  0.91011  0.71226  0.43577  1.0000
  C   C689      1.0  0.98355  0.69645  0.48473  1.0000
  H   H1204     1.0  0.90500  0.88617  0.09551  1.0000
  H   H1205     1.0  0.96359  0.85189  0.12382  1.0000
  C   C690      1.0  0.68908  0.77961  0.44296  1.0000
  H   H1206     1.0  0.94543  0.98837  0.04993  1.0000
  H   H1207     1.0  0.93375  0.74005  0.31971  1.0000
  C   C691      1.0  0.89300  0.96973  0.09623  1.0000
  H   H1208     1.0  0.91583  0.96775  0.01926  1.0000
  H   H1209     1.0  0.98575  0.82232  0.06894  1.0000
  H   H1210     1.0  0.93270  0.77977  0.40493  1.0000
  H   H1211     1.0  0.92922  0.86037  0.03643  1.0000
  H   H1212     1.0  0.98056  0.64704  0.13767  1.0000
  C   C692      1.0  0.95414  0.93684  0.03583  1.0000
  H   H1213     1.0  0.96297  0.69535  0.42856  1.0000
  N   N39       1.0  0.95703  0.74632  0.44630  1.0000
  H   H1214     1.0  0.97734  0.76137  0.50053  1.0000
  H   H1215     1.0  0.97724  0.94165  0.04300  1.0000
  S   S153      1.0  0.97239  0.85283  0.34112  1.0000
  H   H1216     1.0  0.70325  0.75941  0.43792  1.0000
  H   H1217     1.0  0.94173  0.80774  0.47669  1.0000
  H   H1218     1.0  0.87654  0.95671  0.25126  1.0000
  S   S154      1.0  0.97660  0.93150  0.20585  1.0000
  H   H1219     1.0  0.96779  0.72736  0.37685  1.0000
  C   C693      1.0  0.93921  0.97100  0.02687  1.0000
  H   H1220     1.0  0.89329  0.69655  0.47971  1.0000
  S   S155      1.0  0.67715  0.51051  0.31176  1.0000
  H   H1221     1.0  0.97355  0.85542  0.49926  1.0000
  H   H1222     1.0  0.96380  0.00119  0.16478  1.0000
  H   H1223     1.0  0.93025  0.80020  0.01577  1.0000
  H   H1224     1.0  0.90840  0.97846  0.08301  1.0000
  H   H1225     1.0  0.98060  0.64452  0.46527  1.0000
  H   H1226     1.0  0.91571  0.99586  0.25062  1.0000
  S   S156      1.0  0.85451  0.00038  0.04086  1.0000
  H   H1227     1.0  0.98052  0.80420  0.16678  1.0000
  H   H1228     1.0  0.96085  0.77423  0.03453  1.0000
  H   H1229     1.0  0.98871  0.54796  0.02651  1.0000
  H   H1230     1.0  0.97712  0.00500  0.39663  1.0000
  Fe  Fe78      1.0  0.96118  0.55491  0.77392  1.0000
  H   H1231     1.0  0.96407  0.65083  0.71023  1.0000
  C   C694      1.0  0.67552  0.89288  0.92605  1.0000
  C   C695      1.0  0.88919  0.60137  0.64478  1.0000
  H   H1232     1.0  0.69257  0.85862  0.87529  1.0000
  H   H1233     1.0  0.66604  0.84612  0.81274  1.0000
  H   H1234     1.0  0.93521  0.66743  0.53491  1.0000
  H   H1235     1.0  0.87046  0.57072  0.59956  1.0000
  C   C696      1.0  0.89643  0.54989  0.54693  1.0000
  H   H1236     1.0  0.95937  0.51174  0.84250  1.0000
  S   S157      1.0  0.94769  0.56742  0.71539  1.0000
  H   H1237     1.0  0.83697  0.54120  0.53204  1.0000
  H   H1238     1.0  0.91469  0.54282  0.62682  1.0000
  C   C697      1.0  0.68164  0.94506  0.83616  1.0000
  H   H1239     1.0  0.71752  0.90476  0.99068  1.0000
  C   C698      1.0  0.91672  0.56592  0.61114  1.0000
  H   H1240     1.0  0.72590  0.93443  0.84297  1.0000
  H   H1241     1.0  0.90194  0.54617  0.52132  1.0000
  H   H1242     1.0  0.96682  0.64739  0.86723  1.0000
  C   C699      1.0  0.96734  0.65652  0.73885  1.0000
  C   C700      1.0  0.98393  0.59985  0.85566  1.0000
  N   N40       1.0  0.92290  0.55641  0.57652  1.0000
  C   C701      1.0  0.67176  0.98355  0.87969  1.0000
  H   H1243     1.0  0.96627  0.64216  0.55314  1.0000
  C   C702      1.0  0.66842  0.82675  0.83402  1.0000
  H   H1244     1.0  0.96774  0.53579  0.63553  1.0000
  Fe  Fe79      1.0  0.92873  0.51512  0.70820  1.0000
  C   C703      1.0  0.87882  0.51859  0.55219  1.0000
  H   H1245     1.0  0.70885  0.94884  0.99380  1.0000
  C   C704      1.0  0.96969  0.52597  0.60976  1.0000
  C   C705      1.0  0.88949  0.58696  0.60867  1.0000
  H   H1246     1.0  0.68993  0.87172  0.93829  1.0000
  H   H1247     1.0  0.94256  0.63133  0.51066  1.0000
  H   H1248     1.0  0.74267  0.97111  0.89618  1.0000
  H   H1249     1.0  0.97482  0.61425  0.66203  1.0000
  C   C706      1.0  0.99055  0.65000  0.62967  1.0000
  H   H1250     1.0  0.90479  0.61779  0.53843  1.0000
  C   C707      1.0  0.71070  0.94821  0.85312  1.0000
  H   H1251     1.0  0.92624  0.63165  0.58131  1.0000
  S   S158      1.0  0.67038  0.91843  0.79858  1.0000
  H   H1252     1.0  0.86950  0.61619  0.64215  1.0000
  C   C708      1.0  0.92655  0.61888  0.55614  1.0000
  S   S159      1.0  0.95904  0.59613  0.81352  1.0000
  H   H1253     1.0  0.66853  0.94489  0.94156  1.0000
  C   C709      1.0  0.70078  0.98669  0.89674  1.0000
  H   H1254     1.0  0.88969  0.58059  0.66417  1.0000
  C   C710      1.0  0.72028  0.96896  0.88327  1.0000
  H   H1255     1.0  0.68533  0.90502  0.90639  1.0000
  H   H1256     1.0  0.88208  0.57206  0.54227  1.0000
  C   C711      1.0  0.94022  0.58343  0.56463  1.0000
  H   H1257     1.0  0.96869  0.68436  0.74282  1.0000
  C   C712      1.0  0.67735  0.92070  0.95457  1.0000
  C   C713      1.0  0.66225  0.96307  0.84946  1.0000
  C   C714      1.0  0.70805  0.92748  0.97514  1.0000
  H   H1258     1.0  0.90761  0.61834  0.65510  1.0000
  H   H1259     1.0  0.96022  0.58821  0.58551  1.0000
  H   H1260     1.0  0.88713  0.60843  0.58989  1.0000
  Fe  Fe80      1.0  0.98793  0.54203  0.71312  1.0000
  H   H1261     1.0  0.93502  0.57991  0.62827  1.0000
  C   C715      1.0  0.94028  0.52422  0.58219  1.0000
  C   C716      1.0  0.98252  0.62793  0.87712  1.0000
  H   H1262     1.0  0.94662  0.57450  0.54089  1.0000
  C   C717      1.0  0.84914  0.51907  0.52668  1.0000
  H   H1263     1.0  0.97165  0.66548  0.62373  1.0000
  C   C718      1.0  0.67274  0.84359  0.87019  1.0000
  C   C719      1.0  0.94374  0.64121  0.53757  1.0000
  H   H1264     1.0  0.68710  0.81085  0.83412  1.0000
  H   H1265     1.0  0.98397  0.81875  0.52739  1.0000
  H   H1266     1.0  0.67598  0.82313  0.89033  1.0000
  H   H1267     1.0  0.94877  0.64700  0.74715  1.0000
  H   H1268     1.0  0.98449  0.54245  0.60024  1.0000
  H   H1269     1.0  0.87671  0.51738  0.57965  1.0000
  H   H1270     1.0  0.66544  0.91409  0.97395  1.0000
  H   H1271     1.0  0.97415  0.52144  0.88854  1.0000
  H   H1272     1.0  0.72085  0.93465  0.95670  1.0000
  H   H1273     1.0  0.70115  0.96068  0.72721  1.0000
  H   H1274     1.0  0.69188  0.97998  0.68372  1.0000
  H   H1275     1.0  0.70324  0.99585  0.77995  1.0000
  H   H1276     1.0  0.72453  0.99158  0.71549  1.0000
  C   C720      1.0  0.70206  0.98456  0.71234  1.0000
  H   H1277     1.0  0.66421  0.00446  0.72108  1.0000
  H   H1278     1.0  0.94530  0.98279  0.00416  1.0000
  H   H1279     1.0  0.94365  0.51537  0.55658  1.0000
  H   H1280     1.0  0.96353  0.80891  0.00557  1.0000
  S   S160      1.0  0.88424  0.50645  0.67316  1.0000
