data_image0
_chemical_formula_structural       HCSCHSFeS2FeS2FeSFeS3FeS2HCH2FeSCS2CFeSFeS2FeS2FeSFeS3H3SH2FeCSH2SCHNHFeHSHSHCSCH3C2HCH2C3S2H2CH3CH4NH3C7H4C4H3C6H4C6H4CSH2C2H5C2HCH3C6H4CHC2H3C6H4C6H5CNC11H29CH7NC2H2NCHC2HCH8CH2CHSH7CHC2H2C2HCHC2H3SCHC2HCHCH3CHCH3C2H3CH2CH3CHCHC2H2C2HCH3CH7CNC2HC3HC5H13CH11NHCH2C2H4CHCHSH6NC9HFeCH12CH4CH9FeCH8CHFeHCH2CHCHC3NC4FeHC2H3CSCHCH4CH2CH2C2H3NH2FeCH6CH6CH2FeCH6C2HCH3CHC2H9SH2FeSCHFeS2FeS2FeSFeS3HSC2H2FeSCH3FeHS2HFeCSHC2HSH4CNC4SCSHSH2SHFeS2FeS2FeHFeS3H2C2HSNC7H7C2HSC2H5C2H3CFeC6H4C6H2FeH5C2H4CH3C2H5CHCH4CH3C6H4CSH3C6H4C7H7CHCH3NC12H30CSHCH2CH3SHCH2CH4NC2H2CH6CH2NH11SCHCH3C2H3C2HCHCNHCSH3C2HCHC2H2C3HCHCH2CH6C2H7CH4CHNC9HC2H17SHC2H5CHNC4HCH2CHC2H7CH8C2HCHCH6NC4SC4HCH13CH8CH2C2H2NCHC4H3CHCH5CH2CHCHCH6CH3C2H5CHCSNHCH2C4HC2HC2H8CHCH2Fe2HCHCHCH2C2H2SH2NHCH2SFeS2FeS2FeSFeCS2FeHSFeS2H2FeS2HFeS2FeS2FeSFeS3C2FeS2FeS2FeSFeS3H5C6H4C5H5C4HCH2C6H3FeC5HFeH2NHSC7H7C6H4CSCSH3CHSC6H4C6H4C3H3FeHCHNC8H2C2H29CNH7CHCH4C3HCH4CH2C2H3CH3C3H4C2HC2FeH3SCHCH4CHSCH5CH4S2HC3HC2H3NC12H21CH6NC6H2CH3C2H7CH7CH6CH2C3H2SH4CH3CSC2H4CHCH2CH3NC6HC3NH12CFeH2NSH4CH7C2HCHFeHC2H3C2H5CH4CH4NC11H25NC7H2C3H15FeHC2H6C2HSH3C2HCH2C2HSCHC3H2SCSC3H5C2H2C3H5NH2CH2C2H11C2H6C2HCH5FeH2C3HSH10CH2C2H2FeH2CS2FeSCFeS2FeSFe2S2CHCHFeSCSFeS2FeS2FeSFeS3HCH3SHFeSFeS2FeSFeS4H6CH5FeS2C4H4C2H2CH6C6H4C6H4C6H4C6H5C2HC3FeH3C3H2SH7C8H6C2HC6H4C6H16CH3C3H7CH2C2H5CH10SHSHCHCFeHSHCH2CH3CHSCHC2H5C2SH3NC9HC2H19CH6CH3CHCH4CHC5H3Fe2H2C4FeCHCHNH6NH2CH3C2HCH3CNH6SCHSH2C2HC3H3C2SC4H2CH3CH2CH4CHCH7C2NH2NCSH4CH2CH5C2NH2C2HCH2C4H15NHSHC2HCHC2HNC6HCHC3H4CH24FeNC8HCHCH10C2SH6FeH2N2H3C3H4C2HCHS2H2CH2C2H3NH4CHC2SC2H4CH7FeHCH2CHCHCHCSH8CH5C4H9CHSHC3HCNH3SH4SHC2H3FeHCHC2HCHC3HSCFeS2CH3CHSH2CSFeS2FeS2FeSFeHS2FeS2FeS2FeCFeS3FeS2FeHFeSNHS2HFeHSCH2SHFeS2FeS2FeSFeS3C2H2C6H5C4H2C3HC2FeNH2C6H5FeCHNH10C6H6C4H5CHC3NH2FeC2H7C2SCHC6H4C6H4C6H5CHC3HC3H2C3H3CHSH2CH3CH3S2H7CSCH4CH3CHCH13C2HCHC2H3C2HCNC12H28NC5HC4HCH10CH8CHCHCH4C2SH2NH6CH3CHCHC4H5CH2NH5SH5CH3CH2C4H2C3HC3H10C3H4CH2CHC2HCH3CH2C5HCH13CH3CHNHC3HCH4SH2CH2CH2CHCFeHCHC2HCNSHCH3C2H4FeH11SC2HCHC4H2CH5CH2CH10C2H3CH2C2H2CHCHCHFeH2C2HC2H3CH10C2H5CHC3HCH6SCHC2HNH3CHFeHCH3CH4CSFeSHSHSCSHFeSHCHFeSCFeS2FeSFeS3FeS2FeS2FeSFeS3FeHSFeCSH2CS2CFeS2FeSFeSFeS3FeHSFeSH2S2CH3C6H5CHCHC2SHCH7CHC2HC6H4CHCH3C6H5C4HCH2CHC3HCH2CH5CH2C6H4C6H4C6H5C2H2C2H6CH7CSHFeH2CSHSH2C2SH2CH2CHC2HCHCH7FeH5CHCH7CH3CHCH7C2HCHCHCH3C3SHC2HSHC4NC12H23NH4NC12H14CH2SH10C3HCHSH2SH2CH2C3H3CH3C2H2NH2C2H5C5HSH4FeH2CNC2HCHFeCH4CSH2C2H2FeH2CHNH5CH2CH2NC12H24CH6C4H3C2H2NH3NC12H28C4HCH2CH3NC8HCH17CHCH3CH3CH2CH2SNHCHCH3FeHCH4SHCH2CH12CH6CH5CHC2H3SFeHSCHCH8CHFeSH2FeSH3FeH2FeS2H2FeS3C2FeS2FeS2FeSFeS3C6H3C6H4FeH2C2HCHCH2C3FeC2H4C2H5C6H3CNH5C2SH3CHSHCHC6H2C7H3CSH5CSH2CHC2FeH2CHCH5CHC2SCHNC12H27NC3HSHCH8CH3C2H4CH2SHCHCNSH3CHNHC2HCHCHC2H6SH2NCHSHCH2SHSH2C2HCHC2HC2H10C4HCHCSH4CSHSH3C2H2CH2FeHCH2C2H3CHCFeH4CNC12H28SH3C3HCNH4CSH3CH2FeH2CHCH2CH2FeH5C2H2CNCH4CH3SC2H5C3HCH10C2H4CHCHSHCHCHCHC2HSH2CHC2H2C2HCHCH4CHFeCHNH2SH3CHCH2CNCSHCH5CHCHC2H2C2HNHC2HCHC2H7SFeS2H3SFeS2FeSHFeS3HFeSFeS2FeS2FeSFeS3H2CFeHSH5S2HFeSHSNHC3H5C6H4C6H11CH5CFeSCHC7H2SHSH4CH3NFeH5CH3C4H2C2H2C6HCNCHC2HCHCHC3H3CH3CH4C2SH4CH8NC12H17CH7CH2FeC2HCHCHCHC3H2C2H5CH2CH3CHSCH4C2SHCSNC2HC3HC3HCH10CH12C2HCFeH2CH4CH4CH3FeH2CH4CHFeHCH3CH3SH9CH5CH2CH2FeSHC4HCHCH2CH7SC2HC5SH2CHC2SCHC2HCHCH2C2HSC2HC3HCSHCH6FeH2C3SHCHCH3CH4N2HCH4CH3CNH2SCH4SC2HCHCHCH2CH3CSH2C2H2SH2C2H2FeH4NCHC3HCH3CH4C3H4CHCH3NH2CH5FeH4CHCH2CH2CSHCH4C2HCH9C3HC2HCH2SC3HC2H10CH3CHCH2CH2CHC2S3FeS2FeS2FeSFeS3FeH2SH3FeHFeS2FeSFeSFeS3FeS2FeS2FeSFeS3HFeSCFeS2Fe2S3FeS2FeS2FeSFeCS2H3C6HCH3CSCHC2H6CH2SCH3C6H6SHCHC6H3C7H5C5H3C4HSH4C7H4C6H4CH3FeCH2C6H4C4H2C4H3CHCH4CH3C3H4C2H2CSH2CH4CH4FeCHNC9SHC2H19CHCH5CH2C2H4CHCHCHCHCH4CHCH3C2H5CH2C2SH9C2HNH10NC4HC4HC2H9CH11CHCH5CH4CH15CH6Fe2HCHCH2CH2CFeN2C12H25CH2SH3C2H3SHCH3FeH2CNHCHCNC10NH11CH13CH2CNC12H28SH3NC7HCHCH5CH4SHC2H4NC6HC4H6CH7CH6CH8C5SHSH2CHC2H5C4H2C3H3CH2C2H2CSCH4NCHS2H6CHSHSFeS2FeS2FeSFeS3Fe2S2FeSCS2H2SH3CHFe2S2FeS2Fe2S3FeSHFeS2FeSFeS3FeS2FeS2FeSFeS2FeS2C2FeSFeS3CHCH4CH3C6H2SHC6H5C6H5CH2C7H4C6H6C2H5C2HC2H3C6H4C3SH2C6H2CHC2H2C5H5SCNC10H16CH2CH2CHC3H6NCHC2HCH2CHC2H8CH5NHFeH4CH6CHCHC3NHCSHC5H15CH2C2HCHFeH4C2H2CHNC12H29CH4CH5C3H4CHC2H4NSNH4CH6CHCHNC12H18CH7CNC10H24C4HC3HCHSHCH2CH2SCHC2H4CH4C2H2CH5CH2CH4NC8FeCH21NC2HC7H24CH4NCHCHCHCHCHCHC2H3C2HCH2C3H4CH2CH2CH7SH2CH8CH2CHC2H4C2H7SC3H6SHCNH7CHCH2C2H2C2HCHFeH2CHCH3C3H6CHCSHSH3FeSCHFeSHFeS2FeSFeS3FeSFeS2FeHFeS5HSHSFeS2FeS2FeSFeS3FeS2FeS2FeSFeS3FeS3CH2FeS2C3H2C6H4SH5C7H5CH3C7H2C6H4CHCHC4H4C6H6FeC6H4C7H3C6H3SNC11H25CH2CH3CH2CH2C2H2CH2C3H14CH6CH4CH6FeCHNH4NC12H26SCHCH3C2FeH3C2HSH2CNC7H2CSCHCH12C2HCH9NH5CHCH3C2H2SH4CHC3HSH10SH5CSFeHFeH2NHC2H2C3H2CH3C2H2C2H2CH4SH2C2H2CH3CH4NFeH3C3HCH4C3H4CH2CHCH4SC2HCHCHCH2CH2NC7HC4H15CH2CH9CH4NC12H29SH2CH2FeHC2SH2CH2CH3CHC2H6CHCH2NC12H13C2HCHCH2CH2CHC2HCHCH7NH4CHCH3NCH5FeCH2CHSCH5C2H3C2HC3H3SFeS2FeSFeS3H3FeS2FeS2FeSFeS3FeS2FeS2FeSFeHS2H2CHS2FeSH2CSFeS2FeSHFeSFeS3FeS2FeS2FeSFeS3HCH3SCSH4S2HSC2HC6H4CHC7H4CH6C2H3C6H4C6H4C2FeH2CH2C6H4C3H2CHCH8C6H4C6H4C6H5CH3C3HCH5CHC2H3CH2C2NH3CH4CFeCHC2HCHC3H3CH4C2H3CH11NC12H16FeHFeH7NC12H29C2HCH2S2C2H2CHC2H4CHCHCH3FeCH3CH12CHFeH7CH2C3H2CH4NC3HCSH4CH4CHFeH4C3HNC2HCHCHC3H2CH3C2H11CH2CH3CH5NH3CHNCH3FeH3CHCHNC12H22CH5NC12H24NC7H2C4H2SH11CH2CH3CH2C2H5CH3CHCH2CHCHC2HC2H5C2H2C2H4CH3CH2CHSHC2H6CH2CH5CHC5H2C2FeS2FeS2Fe2SH3CHSHFeS2FeSFeHSHCSC2H2FeS3H2FeS2FeS2FeSFeS3C6H3C7H7CHCNCHCH6CHFeC8H4C3SHCH3C6H4C6H4NC5HC6H5NH2CH10CNH2C2H5S2HSCH3CHCHCFeHC3HCH3SHCHSH3SH4CH2CHC2FeH2C2H4FeCHCSH3SH2CH11C4H2SCH2CHCHCHNH2CHFeCHNHNC2H2CH10NC2H3FeCH5C2H3CH2C4HC3HCH3CH3C2HCHC3H2SH6CH2SH8FeH2NCHCSNCHC3H17C2H4CHS2H2NHCHCH3CHCH2C4H5C3HCH2C4SHCHSCH4C2H8CH11C2H4CHFeSH3CHCHSHCH2CH2C5HC2H5CH3C3H2CH5NH5CH3C2SHCFeCSHC2HCH4C2HCHCHCHCHCH7CH3CH3FeCHCHCHCH4SH3C2HCH3FeHC3H10CH5FeS2FeS2CS2H2CH2CH2C2H2CFeHCHCH3FeCS2CSFeS2FeSFeS2HCS2HFe2SCFeS2FeSFeS3C6H4C3H4NH2C6H7FeCH2CH3NCH4CHC4H4C3H2CH3CHCNCH4C4HC3H3C6H3CH3FeHCH4CNC12H31CSFeHSH5CH5CNC2H3CHCHC2H4CH2CHFeH4CH11CH3CH3NSHC4H5SH5CHCSHCNH3CH3C3SH2C3HSH2C3H5CHCH3CH2CH5C3H3C2H3C2H12CHCHCH5CSCH2CHC3HCHCH11CH2SCHCH4NH5CHC2SH2CH3CH5C3SHCHC2H5C2HCH2CNC12H28CH3CNH3C4H3C2HSH2FeCH2NH5FeHC3H2FeH2FeCSH9C5H2C2H4CH3CH3CH2C3H2FeHFeH3CH5CHCSCH8CFeS2FeSHSHSFeS2FeS2FeSFeS3HC3H2FeSCSCFeS2FeSCFeSFeS3C2H2SCFeS2FeS2FeSFeS3FeS2FeCFeSCS2C7H4CHC2HC6H4C6H5C2HCH3CH4C2H2C2H4NSH3C7H4C6H4C6H4C6H7CSCSH6C4H3CHNC2H2CH7CH2C2H2C2HCH3NC12H29FeH3CHCNHC2H3CH4SHCHCH5CH4CHCH2CHCH10CH3NC2HCH2C2H6C2H2C2HCH2C2HC2HSH3CH3CH3CH2C2H4C3HSH6C6HCSCHCH6CH3C2H5SCNC11H19FeH6NC12H28SC2H3CH16C2H2CHCH2NH2CFe2H8CH6CHC2HCH2CHCHFeH11NC11H20CH8C2H4CSCH3CHC2H3CHCNH5C2H2C2H3CHCH5CH6SFeHC2H5CH2SHCH2NHCH6NH2C2HFeC2HCNCHSHCHFeS2FeS3HSFeS2FeSCFeSFeS3NHCFeCHFeSHSHFeS2FeS2FeSFeS3FeSHCSFeS3FeS2FeS2FeSFeS3C6H5NHCHC6H4C3H6SC6H6C2H2C3HC3H5CHCHFeHCH3FeHCHC2HSCHC6H7SFeC7H4C6H3C6H5NC9HCH5CH14CHCH2NC3HCH2C3H10SH4C2H3NH7CH3SH6CH2CH2CHC5HCH6NHCH2SH3C3H8C3HSC4H3CH7CSH3CFeHCHC2H3CH9CNC5HC3HCH10CH3CH11CH2SH3C4H2C2H5C3H4CHCHC3H11CH5C2HC2HCHCH3C2H3CFeSH5C6HC2H7FeH4C2H3NH5C3H3CH9C4H3C6NC2NSH3CHCH16CHNH2CHCHC3NH7CH3CHCH2C2H4C2HFeHCH7CH2NH4CHC2SH3NS2H2CH2FeS2FeS2FeHFeS3CSFeHSHCSHS2FeSFeS2FeS2FeSFeS3FeS2H3FeS2FeS2FeSFeS3HC6H2CH2CH3C3HCHCH2C2H2C6H4CHC3H3C6H5CH2C2HCH3C6H8C6H4C6H4CHC3H4NC3HCH3CH5CH3C2HC2H3NH4CHCH4C2H2CH3CH4NH2CH5CH3FeH2C4SC3NC10H23C3H11CSH2SC2H6C2H9C2H4CHC3H2CH3SCH5CH3CH3C2H4NHCHCHSH2CSHC2HCH4NHC2HC2HC3H6C2H4CHC2HC4H11CSH2CH5CHCHCHCH2C3H2C3H2C2HNCH2CH2CFeCH13CFeCH6CH2NC6HC4H13FeH14N2C6HCH8CH2CH4NC12H17SHC2HCHSH4C2HCH7CH3CSH4CH3CH2CHCH2CHCHC2HCH3SFeS2FeSHFeSFeSH2FeS2HFeS2FeS2FeSFeS3FeS2FeHFeS2FeS2FeS2FeS2FeSFeS3H3SHC6HCH2C3H2FeC2H2C6H7CHC6H3FeC6H5CH2CHCH2C6H5C4H2C6HCH2CHC4H4SNC9SCH10CH5S2H5C2HCH3CH3CH6NC2H3SCH3CH7NHCHC3H2NC7H2CHCH2FeH10CH2CH4NHSH3NC12H27CH2CH8CNH2C2H2CH3CHC2SH2CH2CH4CH3CHC2H4C2H5SH2NH2NC12H25CHNC10FeCH22C2H5CFeHNC4FeHC2H2C2H6C2H7CH3SC2HSCH4CH2C2HCH3CH2CH2NC12H25C2H3C2H3CH2CH4SCHCH2CH2C4HCHCH5CHC2HCH3SFeHCH5CHSHSC2S2HCSHFeHCHC2H4SH3SH2C2HCH3CHSHCHFeSH2SHCH2FeSH2CHCHCH2CHFeS2FeS2FeSFeS3CSHCSHFeSFeSC2H9FeSCH3CH3CHC3FeS2FeS2FeSFeS4CHCH2CHCHC2H3CH4CH3C2H4CH6CH3C6H8C3HCHCHCH4C2H4CHCH2CHC6H6C3H3SH2C4H2C3NH2NH4CH2C2HC2H3CHCH3C2H4CH3C3HSH7CHCHCH3CHCH2C6H3CHC3NC9HC2H21CH7CH2C2H2CNC12H28NC5NCH17C2H4SH2SC3HC2H3CHCNC10HCH11CH2C3FeH2CHC2H3C2SCH14CHC3H5C2H5CHCH4CH5CH5CHSCHSCH4CFeS2FeS2FeSFeS3FeS2FeS2H2FeS5C2SFeSFeSCFeS2FeS2FeSFeS2FeS2HCSH3CH2CHCSC2SHFeSH2SFeSFeS2H2C4H5C5H4SH3CHCHC6HFeH3C6H4CHCH2C6H4CSC3HC4HC2H2C4HCHCHC6H4CH4CHCHC3H2CHC5H4C6H4CHNH4C2HCHSH3CH2CH3CSH2CH4CH2C2HC3H2CHCH2CH2CH9CH12C3H7C2H4FeH2CHCHC2H2NC9HC2H18SH2CH7CHCH2CH3C4HCHCH3CH3CH6CH3C2H2CH4CHCHCH3NH8C3HCH3C3H3FeH4NH2SCHNC2HC3H2FeH3C3HC2H2C2HCH10C2H4CH5C2H4CH2SCH4SHC2H6CNC3H3CH2FeH3NCH2NC8HC2H15CHCH10CNC6H2CH6CH5CH2CNCH3CHCH6CHSHFeCH2CH2CHC
_chemical_formula_sum              "H7296 C4104 S912 Fe456 N228"
_cell_length_a       91.5472
_cell_length_b       91.1165
_cell_length_c       50.0513
_cell_angle_alpha    77.7256
_cell_angle_beta     78.1466
_cell_angle_gamma    101.544

_space_group_name_H-M_alt    "P 1"
_space_group_IT_number       1

loop_
  _space_group_symop_operation_xyz
  'x, y, z'

loop_
  _atom_site_type_symbol
  _atom_site_label
  _atom_site_symmetry_multiplicity
  _atom_site_fract_x
  _atom_site_fract_y
  _atom_site_fract_z
  _atom_site_occupancy
  H   H1        1.0  0.00261  0.12173  0.10979  1.0000
  C   C1        1.0  0.08915  0.04744  0.98016  1.0000
  S   S1        1.0  0.15636  0.36279  0.31733  1.0000
  C   C2        1.0  0.16243  0.12301  0.25558  1.0000
  H   H2        1.0  0.03928  0.37067  0.98722  1.0000
  S   S2        1.0  0.16963  0.40839  0.30411  1.0000
  Fe  Fe1       1.0  0.09964  0.42541  0.17184  1.0000
  S   S3        1.0  0.07480  0.42628  0.17896  1.0000
  S   S4        1.0  0.10789  0.41219  0.20704  1.0000
  Fe  Fe2       1.0  0.10654  0.44000  0.10872  1.0000
  S   S5        1.0  0.08225  0.44162  0.11043  1.0000
  S   S6        1.0  0.12604  0.44714  0.06913  1.0000
  Fe  Fe3       1.0  0.08401  0.45009  0.14899  1.0000
  S   S7        1.0  0.07454  0.47087  0.15235  1.0000
  Fe  Fe4       1.0  0.07506  0.41765  0.13997  1.0000
  S   S8        1.0  0.05494  0.39736  0.14418  1.0000
  S   S9        1.0  0.10892  0.45010  0.14525  1.0000
  S   S10       1.0  0.09931  0.41522  0.13485  1.0000
  Fe  Fe5       1.0  0.01312  0.35519  0.04842  1.0000
  S   S11       1.0  0.00259  0.33426  0.08569  1.0000
  S   S12       1.0  0.03160  0.37728  0.04259  1.0000
  H   H3        1.0  0.05536  0.45515  0.27646  1.0000
  C   C3        1.0  0.03064  0.45353  0.19555  1.0000
  H   H4        1.0  0.06694  0.37192  0.20394  1.0000
  H   H5        1.0  0.99235  0.46581  0.27880  1.0000
  Fe  Fe6       1.0  0.00584  0.32023  0.05408  1.0000
  S   S13       1.0  0.01597  0.29950  0.06073  1.0000
  C   C4        1.0  0.15048  0.31572  0.45290  1.0000
  S   S14       1.0  0.01818  0.34103  0.01755  1.0000
  S   S15       1.0  0.16900  0.17474  0.15393  1.0000
  C   C5        1.0  0.16200  0.25356  0.12942  1.0000
  Fe  Fe7       1.0  0.16803  0.19828  0.16106  1.0000
  S   S16       1.0  0.14538  0.20298  0.18140  1.0000
  Fe  Fe8       1.0  0.08586  0.25928  0.28492  1.0000
  S   S17       1.0  0.09561  0.24267  0.31234  1.0000
  S   S18       1.0  0.06247  0.25295  0.27289  1.0000
  Fe  Fe9       1.0  0.11274  0.28731  0.28136  1.0000
  S   S19       1.0  0.12413  0.27234  0.30741  1.0000
  S   S20       1.0  0.12487  0.31301  0.25961  1.0000
  Fe  Fe10      1.0  0.11869  0.25535  0.28184  1.0000
  S   S21       1.0  0.13858  0.24468  0.26806  1.0000
  Fe  Fe11      1.0  0.10041  0.26094  0.33617  1.0000
  S   S22       1.0  0.09705  0.25303  0.38455  1.0000
  S   S23       1.0  0.10894  0.27116  0.25336  1.0000
  S   S24       1.0  0.08895  0.27675  0.31126  1.0000
  H   H6        1.0  0.16654  0.43935  0.45512  1.0000
  H   H7        1.0  0.11215  0.33849  0.40137  1.0000
  H   H8        1.0  0.16443  0.08630  0.19931  1.0000
  S   S25       1.0  0.11719  0.13295  0.04618  1.0000
  H   H9        1.0  0.04726  0.45762  0.23032  1.0000
  H   H10       1.0  0.14100  0.34345  0.42420  1.0000
  Fe  Fe12      1.0  0.11366  0.13172  0.00251  1.0000
  C   C6        1.0  0.11512  0.06088  0.04217  1.0000
  S   S26       1.0  0.17190  0.01233  0.17841  1.0000
  H   H11       1.0  0.02014  0.32103  0.13834  1.0000
  H   H12       1.0  0.16064  0.30043  0.39949  1.0000
  S   S27       1.0  0.17420  0.01319  0.09561  1.0000
  C   C7        1.0  0.10987  0.35546  0.28286  1.0000
  H   H13       1.0  0.07775  0.36768  0.99582  1.0000
  N   N1        1.0  0.98747  0.23407  0.04440  1.0000
  H   H14       1.0  0.15473  0.12415  0.24116  1.0000
  Fe  Fe13      1.0  0.00400  0.20404  0.19288  1.0000
  H   H15       1.0  0.04717  0.25433  0.43132  1.0000
  S   S28       1.0  0.02779  0.21124  0.20294  1.0000
  H   H16       1.0  0.17710  0.28535  0.18953  1.0000
  S   S29       1.0  0.99254  0.18339  0.10772  1.0000
  H   H17       1.0  0.99813  0.21496  0.05484  1.0000
  C   C8        1.0  0.03296  0.43713  0.19524  1.0000
  S   S30       1.0  0.00249  0.21366  0.14832  1.0000
  C   C9        1.0  0.17237  0.24883  0.14897  1.0000
  H   H18       1.0  0.02332  0.45617  0.18102  1.0000
  H   H19       1.0  0.99634  0.26249  0.17899  1.0000
  H   H20       1.0  0.03041  0.16293  0.01364  1.0000
  C   C10       1.0  0.01807  0.16233  0.01471  1.0000
  C   C11       1.0  0.98526  0.25677  0.12964  1.0000
  H   H21       1.0  0.99477  0.18349  0.04957  1.0000
  C   C12       1.0  0.16157  0.00191  0.08012  1.0000
  H   H22       1.0  0.99816  0.28313  0.01553  1.0000
  H   H23       1.0  0.17030  0.09665  0.24636  1.0000
  C   C13       1.0  0.10650  0.26213  0.45676  1.0000
  C   C14       1.0  0.00120  0.22783  0.04840  1.0000
  C   C15       1.0  0.16058  0.00817  0.05242  1.0000
  S   S31       1.0  0.99108  0.17970  0.19369  1.0000
  S   S32       1.0  0.17589  0.21031  0.11470  1.0000
  H   H24       1.0  0.16777  0.01958  0.04060  1.0000
  H   H25       1.0  0.04206  0.43471  0.20590  1.0000
  C   C16       1.0  0.08911  0.37432  0.21472  1.0000
  H   H26       1.0  0.98676  0.20648  0.02524  1.0000
  H   H27       1.0  0.14059  0.36806  0.17470  1.0000
  H   H28       1.0  0.02748  0.22954  0.09030  1.0000
  C   C17       1.0  0.07245  0.48637  0.23365  1.0000
  H   H29       1.0  0.11243  0.33296  0.43824  1.0000
  H   H30       1.0  0.04912  0.44459  0.15331  1.0000
  H   H31       1.0  0.02916  0.43751  0.15343  1.0000
  H   H32       1.0  0.16920  0.47614  0.11112  1.0000
  N   N2        1.0  0.09884  0.35177  0.24010  1.0000
  H   H33       1.0  0.03583  0.46980  0.26658  1.0000
  H   H34       1.0  0.10136  0.38036  0.20397  1.0000
  H   H35       1.0  0.00059  0.23101  0.09076  1.0000
  C   C18       1.0  0.04303  0.45084  0.28846  1.0000
  C   C19       1.0  0.05310  0.24099  0.25359  1.0000
  C   C20       1.0  0.06096  0.23350  0.23578  1.0000
  C   C21       1.0  0.05304  0.22452  0.22065  1.0000
  C   C22       1.0  0.03710  0.22271  0.22303  1.0000
  C   C23       1.0  0.02923  0.23013  0.24094  1.0000
  C   C24       1.0  0.03717  0.23923  0.25584  1.0000
  H   H36       1.0  0.07316  0.23464  0.23362  1.0000
  H   H37       1.0  0.05935  0.21887  0.20706  1.0000
  H   H38       1.0  0.01698  0.22872  0.24358  1.0000
  H   H39       1.0  0.03085  0.24481  0.26959  1.0000
  C   C25       1.0  0.10154  0.26312  0.40996  1.0000
  C   C26       1.0  0.10249  0.27899  0.40599  1.0000
  C   C27       1.0  0.10532  0.28631  0.42731  1.0000
  C   C28       1.0  0.10337  0.25473  0.43566  1.0000
  H   H40       1.0  0.10081  0.28555  0.38665  1.0000
  H   H41       1.0  0.10561  0.29848  0.42410  1.0000
  H   H42       1.0  0.10252  0.24242  0.43913  1.0000
  C   C29       1.0  0.15677  0.16718  0.06326  1.0000
  C   C30       1.0  0.14625  0.15530  0.08542  1.0000
  C   C31       1.0  0.13418  0.14500  0.07989  1.0000
  C   C32       1.0  0.13256  0.14628  0.05214  1.0000
  C   C33       1.0  0.14313  0.15809  0.03000  1.0000
  C   C34       1.0  0.15512  0.16845  0.03557  1.0000
  H   H43       1.0  0.14763  0.15386  0.10665  1.0000
  H   H44       1.0  0.12617  0.13582  0.09714  1.0000
  H   H45       1.0  0.14210  0.15924  0.00855  1.0000
  H   H46       1.0  0.16320  0.17751  0.01822  1.0000
  C   C35       1.0  0.14321  0.21395  0.20652  1.0000
  C   C36       1.0  0.15385  0.21630  0.22257  1.0000
  C   C37       1.0  0.15189  0.22530  0.24206  1.0000
  C   C38       1.0  0.13946  0.23222  0.24539  1.0000
  C   C39       1.0  0.12869  0.22971  0.22958  1.0000
  C   C40       1.0  0.13054  0.22054  0.21032  1.0000
  H   H47       1.0  0.16354  0.21115  0.22005  1.0000
  H   H48       1.0  0.16020  0.22711  0.25438  1.0000
  H   H49       1.0  0.11905  0.23494  0.23204  1.0000
  H   H50       1.0  0.12219  0.21868  0.19812  1.0000
  C   C41       1.0  0.00416  0.28323  0.08757  1.0000
  S   S33       1.0  0.17342  0.43584  0.22841  1.0000
  H   H51       1.0  0.18082  0.45571  0.08247  1.0000
  H   H52       1.0  0.16623  0.06798  0.16985  1.0000
  C   C42       1.0  0.00012  0.25672  0.11568  1.0000
  C   C43       1.0  0.00949  0.26987  0.09438  1.0000
  H   H53       1.0  0.14346  0.47471  0.36815  1.0000
  H   H54       1.0  0.17092  0.24300  0.09645  1.0000
  H   H55       1.0  0.00441  0.24660  0.12136  1.0000
  H   H56       1.0  0.02093  0.26976  0.08337  1.0000
  H   H57       1.0  0.08336  0.37474  0.17435  1.0000
  C   C44       1.0  0.13093  0.46679  0.05023  1.0000
  C   C45       1.0  0.12123  0.47640  0.05609  1.0000
  H   H58       1.0  0.07519  0.35176  0.24006  1.0000
  C   C46       1.0  0.14445  0.47272  0.02812  1.0000
  H   H59       1.0  0.11088  0.47197  0.07338  1.0000
  H   H60       1.0  0.08541  0.37917  0.23283  1.0000
  H   H61       1.0  0.15212  0.46540  0.02382  1.0000
  C   C47       1.0  0.03815  0.38255  0.07102  1.0000
  C   C48       1.0  0.03147  0.37381  0.09905  1.0000
  C   C49       1.0  0.03680  0.37850  0.12116  1.0000
  C   C50       1.0  0.04887  0.39190  0.11549  1.0000
  C   C51       1.0  0.05563  0.40060  0.08742  1.0000
  C   C52       1.0  0.05025  0.39595  0.06529  1.0000
  H   H62       1.0  0.02215  0.36350  0.10373  1.0000
  H   H63       1.0  0.03151  0.37172  0.14281  1.0000
  H   H64       1.0  0.06492  0.41094  0.08281  1.0000
  H   H65       1.0  0.05547  0.40277  0.04367  1.0000
  C   C53       1.0  0.09167  0.32371  0.23414  1.0000
  H   H66       1.0  0.05724  0.35976  0.01050  1.0000
  C   C54       1.0  0.16441  0.43767  0.07418  1.0000
  C   C55       1.0  0.08065  0.46988  0.20415  1.0000
  H   H67       1.0  0.14069  0.34894  0.38757  1.0000
  H   H68       1.0  0.00654  0.13595  0.14571  1.0000
  H   H69       1.0  0.08644  0.46092  0.20075  1.0000
  C   C56       1.0  0.15492  0.42930  0.22357  1.0000
  C   C57       1.0  0.14701  0.41359  0.23330  1.0000
  C   C58       1.0  0.13254  0.40855  0.22825  1.0000
  C   C59       1.0  0.12595  0.41912  0.21320  1.0000
  C   C60       1.0  0.13380  0.43485  0.20359  1.0000
  C   C61       1.0  0.14820  0.43993  0.20897  1.0000
  H   H70       1.0  0.15205  0.40532  0.24474  1.0000
  H   H71       1.0  0.12648  0.39639  0.23586  1.0000
  H   H72       1.0  0.12862  0.44310  0.19254  1.0000
  H   H73       1.0  0.15410  0.45215  0.20205  1.0000
  C   C62       1.0  0.14789  0.34912  0.30061  1.0000
  C   C63       1.0  0.15245  0.35101  0.27136  1.0000
  C   C64       1.0  0.14545  0.33976  0.25917  1.0000
  C   C65       1.0  0.13405  0.32636  0.27608  1.0000
  C   C66       1.0  0.12954  0.32445  0.30531  1.0000
  C   C67       1.0  0.13626  0.33588  0.31737  1.0000
  H   H74       1.0  0.16130  0.36117  0.25814  1.0000
  H   H75       1.0  0.14893  0.34142  0.23652  1.0000
  H   H76       1.0  0.12060  0.31436  0.31853  1.0000
  H   H77       1.0  0.13227  0.33451  0.33982  1.0000
  H   H78       1.0  0.99397  0.08793  0.05837  1.0000
  C   C68       1.0  0.14264  0.28182  0.37684  1.0000
  N   N3        1.0  0.11616  0.17864  0.13874  1.0000
  C   C69       1.0  0.12594  0.19408  0.11941  1.0000
  C   C70       1.0  0.10526  0.18151  0.16301  1.0000
  C   C71       1.0  0.12681  0.17014  0.15124  1.0000
  C   C72       1.0  0.10757  0.16860  0.12350  1.0000
  C   C73       1.0  0.10234  0.17697  0.09807  1.0000
  C   C74       1.0  0.13958  0.19321  0.09616  1.0000
  C   C75       1.0  0.11892  0.15445  0.17392  1.0000
  C   C76       1.0  0.09350  0.19072  0.15548  1.0000
  C   C77       1.0  0.08482  0.19459  0.18157  1.0000
  C   C78       1.0  0.09260  0.16523  0.08680  1.0000
  C   C79       1.0  0.14598  0.20842  0.07282  1.0000
  H   H79       1.0  0.16789  0.10793  0.21505  1.0000
  H   H80       1.0  0.13098  0.20154  0.13198  1.0000
  H   H81       1.0  0.11887  0.20071  0.10879  1.0000
  H   H82       1.0  0.09809  0.17035  0.17802  1.0000
  H   H83       1.0  0.11204  0.18768  0.17538  1.0000
  H   H84       1.0  0.13411  0.17763  0.16092  1.0000
  H   H85       1.0  0.13502  0.16753  0.13434  1.0000
  H   H86       1.0  0.11480  0.16132  0.11482  1.0000
  H   H87       1.0  0.09718  0.16013  0.13876  1.0000
  H   H88       1.0  0.11243  0.18375  0.08025  1.0000
  H   H89       1.0  0.09551  0.18509  0.10374  1.0000
  H   H90       1.0  0.14907  0.19088  0.10569  1.0000
  H   H91       1.0  0.13615  0.18372  0.08629  1.0000
  H   H92       1.0  0.11047  0.14686  0.16645  1.0000
  H   H93       1.0  0.11288  0.15646  0.19392  1.0000
  H   H94       1.0  0.09911  0.20187  0.13924  1.0000
  H   H95       1.0  0.08474  0.18356  0.14794  1.0000
  H   H96       1.0  0.07858  0.18382  0.19858  1.0000
  H   H97       1.0  0.09296  0.20213  0.18978  1.0000
  H   H98       1.0  0.07623  0.20090  0.17587  1.0000
  H   H99       1.0  0.08194  0.15836  0.10336  1.0000
  H   H100      1.0  0.08923  0.17144  0.06834  1.0000
  H   H101      1.0  0.09933  0.15721  0.07973  1.0000
  H   H102      1.0  0.15609  0.20747  0.05726  1.0000
  H   H103      1.0  0.13711  0.21084  0.06154  1.0000
  H   H104      1.0  0.14980  0.21820  0.08183  1.0000
  H   H105      1.0  0.15026  0.00449  0.01818  1.0000
  H   H106      1.0  0.16341  0.33649  0.41947  1.0000
  H   H107      1.0  0.13933  0.42147  0.11598  1.0000
  C   C80       1.0  0.15285  0.28174  0.20825  1.0000
  H   H108      1.0  0.15482  0.25460  0.19101  1.0000
  H   H109      1.0  0.04206  0.46198  0.18519  1.0000
  H   H110      1.0  0.13205  0.30080  0.37525  1.0000
  H   H111      1.0  0.00902  0.43281  0.24344  1.0000
  H   H112      1.0  0.15113  0.28980  0.18981  1.0000
  H   H113      1.0  0.14224  0.27207  0.21780  1.0000
  H   H114      1.0  0.99986  0.27376  0.20315  1.0000
  N   N4        1.0  0.16478  0.44316  0.12291  1.0000
  C   C81       1.0  0.15314  0.45278  0.12174  1.0000
  C   C82       1.0  0.15685  0.42660  0.14010  1.0000
  H   H115      1.0  0.13705  0.00089  0.18143  1.0000
  H   H116      1.0  0.15913  0.27172  0.16290  1.0000
  N   N5        1.0  0.17808  0.26079  0.16378  1.0000
  C   C83       1.0  0.15953  0.46999  0.10421  1.0000
  H   H117      1.0  0.11829  0.35316  0.41872  1.0000
  C   C84       1.0  0.14033  0.41952  0.13801  1.0000
  C   C85       1.0  0.13520  0.40202  0.15179  1.0000
  H   H118      1.0  0.10306  0.05367  0.05075  1.0000
  C   C86       1.0  0.14504  0.47703  0.38843  1.0000
  H   H119      1.0  0.00085  0.23947  0.21384  1.0000
  H   H120      1.0  0.14714  0.45254  0.14366  1.0000
  H   H121      1.0  0.14381  0.44780  0.11273  1.0000
  H   H122      1.0  0.16425  0.41871  0.13506  1.0000
  H   H123      1.0  0.15537  0.42567  0.16311  1.0000
  H   H124      1.0  0.08852  0.00199  0.07602  1.0000
  H   H125      1.0  0.15584  0.05484  0.98632  1.0000
  H   H126      1.0  0.18238  0.43665  0.09513  1.0000
  C   C87       1.0  0.09436  0.99982  0.05603  1.0000
  H   H127      1.0  0.01573  0.47366  0.24028  1.0000
  H   H128      1.0  0.10668  0.45121  0.00401  1.0000
  C   C88       1.0  0.02398  0.47267  0.22151  1.0000
  H   H129      1.0  0.03985  0.43794  0.29478  1.0000
  S   S34       1.0  0.17216  0.18070  0.06874  1.0000
  H   H130      1.0  0.08760  0.00199  0.04018  1.0000
  H   H131      1.0  0.13201  0.42490  0.14937  1.0000
  H   H132      1.0  0.08892  0.07084  0.98280  1.0000
  H   H133      1.0  0.12306  0.39744  0.15152  1.0000
  H   H134      1.0  0.13745  0.27838  0.36015  1.0000
  H   H135      1.0  0.13582  0.39947  0.17419  1.0000
  H   H136      1.0  0.01044  0.47513  0.18932  1.0000
  C   C89       1.0  0.16009  0.31935  0.47340  1.0000
  H   H137      1.0  0.03406  0.43932  0.24807  1.0000
  C   C90       1.0  0.16681  0.27539  0.19933  1.0000
  C   C91       1.0  0.98831  0.09479  0.04451  1.0000
  H   H138      1.0  0.13222  0.45428  0.99769  1.0000
  H   H139      1.0  0.10881  0.34526  0.18688  1.0000
  C   C92       1.0  0.04748  0.11867  0.05055  1.0000
  C   C93       1.0  0.17488  0.07007  0.18217  1.0000
  H   H140      1.0  0.13894  0.15245  0.19026  1.0000
  C   C94       1.0  0.14704  0.47886  0.10733  1.0000
  H   H141      1.0  0.12090  0.06058  0.05964  1.0000
  C   C95       1.0  0.16094  0.33137  0.37113  1.0000
  C   C96       1.0  0.11233  0.36673  0.30117  1.0000
  H   H142      1.0  0.01385  0.16886  0.02974  1.0000
  H   H143      1.0  0.16002  0.42484  0.08168  1.0000
  H   H144      1.0  0.02065  0.45244  0.28373  1.0000
  S   S35       1.0  0.11207  0.28823  0.47798  1.0000
  C   C97       1.0  0.08856  0.46292  0.00707  1.0000
  H   H145      1.0  0.07202  0.30573  0.26339  1.0000
  C   C98       1.0  0.11613  0.35593  0.18907  1.0000
  C   C99       1.0  0.10754  0.27802  0.45270  1.0000
  H   H146      1.0  0.16702  0.26559  0.11577  1.0000
  C   C100      1.0  0.11845  0.34120  0.41720  1.0000
  H   H147      1.0  0.08022  0.39073  0.18861  1.0000
  C   C101      1.0  0.11436  0.07764  0.03111  1.0000
  H   H148      1.0  0.16866  0.05594  0.06439  1.0000
  H   H149      1.0  0.13389  0.47192  0.40482  1.0000
  H   H150      1.0  0.02339  0.18315  0.98024  1.0000
  C   C102      1.0  0.17382  0.44367  0.09373  1.0000
  H   H151      1.0  0.15208  0.24624  0.09712  1.0000
  C   C103      1.0  0.07929  0.37806  0.19416  1.0000
  H   H152      1.0  0.08522  0.46955  0.24484  1.0000
  H   H153      1.0  0.14257  0.39594  0.14003  1.0000
  H   H154      1.0  0.12641  0.03047  0.98951  1.0000
  C   C104      1.0  0.98568  0.17340  0.06223  1.0000
  C   C105      1.0  0.13277  0.35734  0.17348  1.0000
  H   H155      1.0  0.12999  0.32176  0.38860  1.0000
  H   H156      1.0  0.00250  0.25155  0.23771  1.0000
  H   H157      1.0  0.05395  0.12813  0.05766  1.0000
  C   C106      1.0  0.17125  0.42990  0.44893  1.0000
  H   H158      1.0  0.06990  0.45508  0.04562  1.0000
  H   H159      1.0  0.11739  0.98989  0.19794  1.0000
  C   C107      1.0  0.11488  0.35596  0.22047  1.0000
  H   H160      1.0  0.11252  0.36593  0.17795  1.0000
  H   H161      1.0  0.12167  0.34806  0.22898  1.0000
  H   H162      1.0  0.11844  0.37864  0.28772  1.0000
  C   C108      1.0  0.15969  0.32378  0.42169  1.0000
  H   H163      1.0  0.15683  0.11268  0.27388  1.0000
  C   C109      1.0  0.15677  0.04837  0.06979  1.0000
  H   H164      1.0  0.12808  0.31511  0.42519  1.0000
  C   C110      1.0  0.13571  0.32366  0.40556  1.0000
  C   C111      1.0  0.02179  0.22509  0.07499  1.0000
  H   H165      1.0  0.08755  0.35795  0.27717  1.0000
  H   H166      1.0  0.11955  0.36297  0.31530  1.0000
  C   C112      1.0  0.03273  0.45695  0.27066  1.0000
  C   C113      1.0  0.99253  0.25161  0.03801  1.0000
  H   H167      1.0  0.10324  0.32388  0.22163  1.0000
  C   C114      1.0  0.13075  0.14562  0.18112  1.0000
  H   H168      1.0  0.16411  0.13352  0.26366  1.0000
  H   H169      1.0  0.98992  0.47273  0.35137  1.0000
  H   H170      1.0  0.12613  0.08560  0.02294  1.0000
  C   C115      1.0  0.10586  0.46334  0.99708  1.0000
  H   H171      1.0  0.00377  0.25624  0.02157  1.0000
  H   H172      1.0  0.17861  0.45434  0.03483  1.0000
  H   H173      1.0  0.08217  0.33183  0.27012  1.0000
  H   H174      1.0  0.02440  0.10785  0.05117  1.0000
  H   H175      1.0  0.09075  0.30289  0.26580  1.0000
  H   H176      1.0  0.08453  0.32701  0.21964  1.0000
  H   H177      1.0  0.10839  0.07859  0.01384  1.0000
  C   C116      1.0  0.09342  0.33452  0.25401  1.0000
  N   N6        1.0  0.02031  0.26889  0.17979  1.0000
  C   C117      1.0  0.02303  0.28254  0.15454  1.0000
  C   C118      1.0  0.02430  0.25512  0.17025  1.0000
  H   H178      1.0  0.16553  0.23778  0.16482  1.0000
  C   C119      1.0  0.02911  0.27294  0.20072  1.0000
  C   C120      1.0  0.04687  0.27855  0.18957  1.0000
  C   C121      1.0  0.01920  0.29751  0.16081  1.0000
  H   H179      1.0  0.17060  0.31495  0.46967  1.0000
  C   C122      1.0  0.03779  0.25865  0.14332  1.0000
  C   C123      1.0  0.04296  0.24406  0.14002  1.0000
  C   C124      1.0  0.05416  0.28424  0.21161  1.0000
  C   C125      1.0  0.02297  0.31043  0.13344  1.0000
  C   C126      1.0  0.17706  0.32883  0.35974  1.0000
  H   H180      1.0  0.01610  0.27906  0.14004  1.0000
  H   H181      1.0  0.03518  0.28612  0.14178  1.0000
  H   H182      1.0  0.02683  0.24704  0.18774  1.0000
  H   H183      1.0  0.01420  0.24808  0.16543  1.0000
  H   H184      1.0  0.16348  0.33206  0.47101  1.0000
  H   H185      1.0  0.01019  0.23121  0.02789  1.0000
  H   H186      1.0  0.02480  0.28171  0.21032  1.0000
  H   H187      1.0  0.02699  0.26262  0.21883  1.0000
  H   H188      1.0  0.05049  0.28824  0.17005  1.0000
  H   H189      1.0  0.05162  0.26872  0.18540  1.0000
  H   H190      1.0  0.99939  0.39757  0.98990  1.0000
  H   H191      1.0  0.02603  0.30186  0.17473  1.0000
  H   H192      1.0  0.16841  0.26829  0.21900  1.0000
  C   C127      1.0  0.07994  0.47477  0.22907  1.0000
  H   H193      1.0  0.03396  0.26321  0.12424  1.0000
  H   H194      1.0  0.04804  0.26738  0.14351  1.0000
  H   H195      1.0  0.03308  0.23476  0.13998  1.0000
  H   H196      1.0  0.05190  0.24675  0.11974  1.0000
  H   H197      1.0  0.04799  0.23976  0.15763  1.0000
  H   H198      1.0  0.05043  0.29459  0.21583  1.0000
  H   H199      1.0  0.05088  0.27494  0.23174  1.0000
  H   H200      1.0  0.06693  0.28746  0.20371  1.0000
  H   H201      1.0  0.03543  0.31339  0.12237  1.0000
  H   H202      1.0  0.01604  0.30680  0.11905  1.0000
  H   H203      1.0  0.08863  0.46242  0.05072  1.0000
  N   N7        1.0  0.02427  0.45586  0.22424  1.0000
  H   H204      1.0  0.06428  0.27499  0.44587  1.0000
  C   C128      1.0  0.00845  0.44514  0.23882  1.0000
  H   H205      1.0  0.10827  0.25557  0.47599  1.0000
  H   H206      1.0  0.10110  0.36697  0.31446  1.0000
  C   C129      1.0  0.00917  0.23332  0.07027  1.0000
  C   C130      1.0  0.16413  0.26523  0.17864  1.0000
  H   H207      1.0  0.13729  0.14319  0.16194  1.0000
  H   H208      1.0  0.98697  0.12139  0.06549  1.0000
  H   H209      1.0  0.17652  0.44143  0.40379  1.0000
  H   H210      1.0  0.17793  0.33737  0.31509  1.0000
  C   C131      1.0  0.03503  0.45204  0.24242  1.0000
  H   H211      1.0  0.06730  0.25901  0.41306  1.0000
  C   C132      1.0  0.99555  0.44677  0.22355  1.0000
  H   H212      1.0  0.17057  0.31994  0.41852  1.0000
  S   S36       1.0  0.09396  0.11379  0.99749  1.0000
  H   H213      1.0  0.99898  0.44626  0.20130  1.0000
  H   H214      1.0  0.04942  0.10751  0.06130  1.0000
  H   H215      1.0  0.02212  0.42797  0.20586  1.0000
  H   H216      1.0  0.17001  0.45307  0.15671  1.0000
  H   H217      1.0  0.99261  0.23601  0.99952  1.0000
  H   H218      1.0  0.00675  0.29548  0.17089  1.0000
  N   N8        1.0  0.01077  0.13487  0.04972  1.0000
  C   C133      1.0  0.99867  0.11965  0.05760  1.0000
  C   C134      1.0  0.00818  0.14256  0.07360  1.0000
  C   C135      1.0  0.00822  0.14524  0.02413  1.0000
  C   C136      1.0  0.02712  0.13314  0.04236  1.0000
  C   C137      1.0  0.03021  0.11784  0.05782  1.0000
  C   C138      1.0  0.99770  0.11170  0.03327  1.0000
  C   C139      1.0  0.06640  0.48821  0.18831  1.0000
  C   C140      1.0  0.00979  0.13386  0.10253  1.0000
  C   C141      1.0  0.00472  0.14195  0.12536  1.0000
  H   H219      1.0  0.15150  0.30571  0.35377  1.0000
  Fe  Fe14      1.0  0.18223  0.00771  0.13683  1.0000
  C   C142      1.0  0.00326  0.26433  0.19450  1.0000
  H   H220      1.0  0.03071  0.48404  0.17598  1.0000
  H   H221      1.0  0.00030  0.11118  0.07549  1.0000
  H   H222      1.0  0.01654  0.15409  0.06819  1.0000
  H   H223      1.0  0.99649  0.14480  0.07701  1.0000
  H   H224      1.0  0.99585  0.14537  0.02766  1.0000
  H   H225      1.0  0.01071  0.14047  0.00556  1.0000
  H   H226      1.0  0.03113  0.13399  0.01936  1.0000
  H   H227      1.0  0.03523  0.14301  0.04583  1.0000
  H   H228      1.0  0.15742  0.42861  0.41859  1.0000
  H   H229      1.0  0.02599  0.11523  0.08108  1.0000
  H   H230      1.0  0.99191  0.11779  0.01858  1.0000
  H   H231      1.0  0.00934  0.11202  0.02089  1.0000
  C   C143      1.0  0.99758  0.24960  0.21990  1.0000
  H   H232      1.0  0.12474  0.13437  0.19701  1.0000
  H   H233      1.0  0.16401  0.41862  0.46330  1.0000
  H   H234      1.0  0.02206  0.13395  0.10112  1.0000
  H   H235      1.0  0.01149  0.15427  0.11931  1.0000
  C   C144      1.0  0.06634  0.37039  0.99770  1.0000
  H   H236      1.0  0.15466  0.44301  0.07336  1.0000
  H   H237      1.0  0.13520  0.27445  0.39773  1.0000
  H   H238      1.0  0.11755  0.05564  0.00163  1.0000
  H   H239      1.0  0.11221  0.46967  0.00964  1.0000
  H   H240      1.0  0.00481  0.17009  0.98536  1.0000
  H   H241      1.0  0.01486  0.24594  0.06271  1.0000
  H   H242      1.0  0.15391  0.47131  0.39470  1.0000
  H   H243      1.0  0.03067  0.22727  0.05481  1.0000
  H   H244      1.0  0.05211  0.12076  0.02734  1.0000
  Fe  Fe15      1.0  0.17437  0.38609  0.29606  1.0000
  C   C145      1.0  0.03810  0.43583  0.16496  1.0000
  H   H245      1.0  0.03999  0.42411  0.16537  1.0000
  H   H246      1.0  0.10161  0.33062  0.26580  1.0000
  H   H247      1.0  0.10785  0.08149  0.04848  1.0000
  H   H248      1.0  0.13350  0.35786  0.15086  1.0000
  H   H249      1.0  0.13666  0.34708  0.18289  1.0000
  H   H250      1.0  0.15428  0.27960  0.37385  1.0000
  H   H251      1.0  0.10364  0.37275  0.25410  1.0000
  H   H252      1.0  0.10454  0.34369  0.29744  1.0000
  C   C146      1.0  0.14962  0.30382  0.39940  1.0000
  H   H253      1.0  0.08155  0.45598  0.99625  1.0000
  Fe  Fe16      1.0  0.99476  0.34120  0.01079  1.0000
  H   H254      1.0  0.08343  0.29925  0.23654  1.0000
  C   C147      1.0  0.09938  0.35995  0.26335  1.0000
  H   H255      1.0  0.15464  0.28814  0.22437  1.0000
  H   H256      1.0  0.12139  0.35561  0.27030  1.0000
  C   C148      1.0  0.15104  0.04913  0.04303  1.0000
  H   H257      1.0  0.14127  0.29619  0.41931  1.0000
  C   C149      1.0  0.13514  0.34020  0.40823  1.0000
  H   H258      1.0  0.08657  0.35160  0.20720  1.0000
  C   C150      1.0  0.08396  0.30690  0.25109  1.0000
  C   C151      1.0  0.01703  0.17074  0.98559  1.0000
  C   C152      1.0  0.08700  0.35658  0.22546  1.0000
  N   N9        1.0  0.12656  0.03914  0.02663  1.0000
  C   C153      1.0  0.12399  0.05516  0.01821  1.0000
  C   C154      1.0  0.13485  0.03508  0.00082  1.0000
  C   C155      1.0  0.11088  0.02768  0.03835  1.0000
  C   C156      1.0  0.13509  0.03757  0.04946  1.0000
  Fe  Fe17      1.0  0.98786  0.19004  0.15037  1.0000
  H   H259      1.0  0.00411  0.44697  0.25993  1.0000
  C   C157      1.0  0.11082  0.01017  0.04466  1.0000
  C   C158      1.0  0.14787  0.48795  0.01094  1.0000
  H   H260      1.0  0.12138  0.36784  0.21981  1.0000
  H   H261      1.0  0.15444  0.33070  0.35481  1.0000
  H   H262      1.0  0.13693  0.47319  0.10087  1.0000
  C   C159      1.0  0.05880  0.25371  0.43397  1.0000
  S   S37       1.0  0.99041  0.35686  0.03908  1.0000
  C   C160      1.0  0.98593  0.27776  0.02761  1.0000
  H   H263      1.0  0.14029  0.02553  0.00736  1.0000
  C   C161      1.0  0.02059  0.48165  0.19438  1.0000
  H   H264      1.0  0.10350  0.02967  0.02343  1.0000
  H   H265      1.0  0.10469  0.02941  0.05854  1.0000
  H   H266      1.0  0.12778  0.03823  0.06967  1.0000
  H   H267      1.0  0.13730  0.02586  0.05442  1.0000
  C   C162      1.0  0.15968  0.24264  0.11053  1.0000
  H   H268      1.0  0.15963  0.04596  0.02766  1.0000
  H   H269      1.0  0.99248  0.45790  0.22421  1.0000
  C   C163      1.0  0.15053  0.99971  0.03969  1.0000
  H   H270      1.0  0.11712  0.00706  0.06084  1.0000
  H   H271      1.0  0.11617  0.00710  0.02532  1.0000
  C   C164      1.0  0.07391  0.47665  0.18372  1.0000
  C   C165      1.0  0.14371  0.29900  0.37474  1.0000
  H   H272      1.0  0.08365  0.44342  0.04439  1.0000
  H   H273      1.0  0.15702  0.03631  0.07955  1.0000
  H   H274      1.0  0.16301  0.34370  0.37201  1.0000
  N   N10       1.0  0.15151  0.32067  0.39941  1.0000
  H   H275      1.0  0.14917  0.05241  0.08544  1.0000
  H   H276      1.0  0.05904  0.24136  0.44098  1.0000
  Fe  Fe18      1.0  0.17818  0.18725  0.10776  1.0000
  C   C166      1.0  0.17626  0.10704  0.22826  1.0000
  H   H277      1.0  0.15036  0.25292  0.14244  1.0000
  H   H278      1.0  0.07800  0.04222  0.99517  1.0000
  H   H279      1.0  0.04163  0.45503  0.30789  1.0000
  H   H280      1.0  0.18202  0.24554  0.13628  1.0000
  H   H281      1.0  0.13504  0.06412  0.00815  1.0000
  H   H282      1.0  0.98750  0.08965  0.02646  1.0000
  C   C167      1.0  0.08235  0.45548  0.03888  1.0000
  H   H283      1.0  0.07451  0.26116  0.45795  1.0000
  H   H284      1.0  0.15077  0.06131  0.03464  1.0000
  H   H285      1.0  0.01680  0.21239  0.08382  1.0000
  H   H286      1.0  0.14711  0.30292  0.45662  1.0000
  H   H287      1.0  0.99226  0.14162  0.12867  1.0000
  H   H288      1.0  0.03538  0.47966  0.22163  1.0000
  C   C168      1.0  0.98947  0.28343  0.10210  1.0000
  H   H289      1.0  0.17123  0.06070  0.20228  1.0000
  H   H290      1.0  0.17613  0.24386  0.20235  1.0000
  Fe  Fe19      1.0  0.18168  0.41876  0.25793  1.0000
  C   C169      1.0  0.17617  0.45016  0.13770  1.0000
  H   H291      1.0  0.16357  0.47066  0.08137  1.0000
  H   H292      1.0  0.01836  0.41056  0.98061  1.0000
  H   H293      1.0  0.99460  0.25514  0.05717  1.0000
  H   H294      1.0  0.08675  0.47478  0.00305  1.0000
  H   H295      1.0  0.17386  0.42062  0.41183  1.0000
  H   H296      1.0  0.15409  0.23057  0.12373  1.0000
  C   C170      1.0  0.17806  0.12165  0.23984  1.0000
  C   C171      1.0  0.98978  0.47701  0.27583  1.0000
  H   H297      1.0  0.06603  0.37964  0.00899  1.0000
  C   C172      1.0  0.16971  0.43017  0.41896  1.0000
  H   H298      1.0  0.17627  0.31676  0.35816  1.0000
  H   H299      1.0  0.14319  0.47930  0.12963  1.0000
  H   H300      1.0  0.01941  0.38297  0.98941  1.0000
  C   C173      1.0  0.17611  0.08601  0.18805  1.0000
  H   H301      1.0  0.01053  0.48806  0.28584  1.0000
  C   C174      1.0  0.06310  0.26247  0.45524  1.0000
  C   C175      1.0  0.17435  0.44155  0.04381  1.0000
  H   H302      1.0  0.17971  0.09480  0.16730  1.0000
  H   H303      1.0  0.16728  0.43687  0.03046  1.0000
  H   H304      1.0  0.98531  0.29373  0.09712  1.0000
  H   H305      1.0  0.13987  0.31974  0.45856  1.0000
  H   H306      1.0  0.17999  0.43017  0.16651  1.0000
  H   H307      1.0  0.15648  0.48948  0.42429  1.0000
  H   H308      1.0  0.98449  0.27889  0.04958  1.0000
  H   H309      1.0  0.18284  0.07980  0.22670  1.0000
  H   H310      1.0  0.03337  0.41771  0.74470  1.0000
  S   S38       1.0  0.16709  0.39531  0.63444  1.0000
  H   H311      1.0  0.17084  0.43709  0.49898  1.0000
  H   H312      1.0  0.98713  0.21550  0.97469  1.0000
  Fe  Fe20      1.0  0.17220  0.39656  0.67617  1.0000
  S   S39       1.0  0.15412  0.39300  0.71694  1.0000
  C   C176      1.0  0.15702  0.30029  0.67580  1.0000
  H   H313      1.0  0.05523  0.10868  0.96648  1.0000
  Fe  Fe21      1.0  0.10302  0.44408  0.77123  1.0000
  S   S40       1.0  0.10085  0.42716  0.81235  1.0000
  S   S41       1.0  0.12036  0.44638  0.73034  1.0000
  Fe  Fe22      1.0  0.07844  0.45832  0.79773  1.0000
  S   S42       1.0  0.07472  0.44259  0.84099  1.0000
  S   S43       1.0  0.06351  0.47517  0.79403  1.0000
  Fe  Fe23      1.0  0.10063  0.44765  0.83077  1.0000
  S   S44       1.0  0.11492  0.45106  0.86236  1.0000
  Fe  Fe24      1.0  0.07525  0.42380  0.81831  1.0000
  S   S45       1.0  0.05820  0.40015  0.83826  1.0000
  S   S46       1.0  0.10425  0.46480  0.78916  1.0000
  S   S47       1.0  0.07740  0.43926  0.77558  1.0000
  H   H314      1.0  0.11816  0.03763  0.93915  1.0000
  S   S48       1.0  0.99819  0.31952  0.81408  1.0000
  C   C177      1.0  0.06407  0.48469  0.75937  1.0000
  C   C178      1.0  0.15380  0.22263  0.54808  1.0000
  H   H315      1.0  0.07479  0.22874  0.55125  1.0000
  H   H316      1.0  0.01929  0.33630  0.95146  1.0000
  Fe  Fe25      1.0  0.99596  0.34303  0.79285  1.0000
  S   S49       1.0  0.01536  0.36527  0.77348  1.0000
  C   C179      1.0  0.14688  0.98982  0.86233  1.0000
  H   H317      1.0  0.02301  0.36296  0.96040  1.0000
  H   H318      1.0  0.01579  0.48957  0.72979  1.0000
  H   H319      1.0  0.01983  0.23514  0.70661  1.0000
  Fe  Fe26      1.0  0.12609  0.14568  0.93814  1.0000
  H   H320      1.0  0.03945  0.40531  0.94807  1.0000
  S   S50       1.0  0.14770  0.16191  0.90620  1.0000
  S   S51       1.0  0.00163  0.10595  0.96131  1.0000
  H   H321      1.0  0.15839  0.08423  0.84000  1.0000
  Fe  Fe27      1.0  0.10191  0.99914  0.96910  1.0000
  C   C180      1.0  0.14683  0.08353  0.85331  1.0000
  S   S52       1.0  0.10728  0.12950  0.92836  1.0000
  H   H322      1.0  0.12093  0.48253  0.82593  1.0000
  C   C181      1.0  0.15421  0.12389  0.90181  1.0000
  C   C182      1.0  0.14729  0.09756  0.86560  1.0000
  H   H323      1.0  0.07781  0.21828  0.52466  1.0000
  S   S53       1.0  0.18196  0.20256  0.70308  1.0000
  H   H324      1.0  0.01777  0.28649  0.79449  1.0000
  H   H325      1.0  0.05924  0.41495  0.90537  1.0000
  H   H326      1.0  0.00832  0.40823  0.95344  1.0000
  H   H327      1.0  0.01569  0.13830  0.95687  1.0000
  C   C183      1.0  0.04813  0.38000  0.97027  1.0000
  N   N11       1.0  0.04266  0.38295  0.94352  1.0000
  C   C184      1.0  0.02562  0.24552  0.71235  1.0000
  C   C185      1.0  0.99990  0.09933  0.88825  1.0000
  C   C186      1.0  0.14853  0.18774  0.68077  1.0000
  C   C187      1.0  0.17806  0.47228  0.81473  1.0000
  S   S54       1.0  0.13107  0.12686  0.96927  1.0000
  C   C188      1.0  0.02760  0.42122  0.72794  1.0000
  S   S55       1.0  0.99155  0.34913  0.96681  1.0000
  H   H328      1.0  0.07287  0.99017  0.90155  1.0000
  S   S56       1.0  0.11854  0.09074  0.94523  1.0000
  H   H329      1.0  0.04141  0.44337  0.81538  1.0000
  H   H330      1.0  0.15400  0.45644  0.94056  1.0000
  S   S57       1.0  0.00421  0.20886  0.64768  1.0000
  H   H331      1.0  0.02818  0.23241  0.75133  1.0000
  Fe  Fe28      1.0  0.08731  0.27161  0.58291  1.0000
  S   S58       1.0  0.09862  0.25782  0.55668  1.0000
  S   S59       1.0  0.06160  0.26847  0.60229  1.0000
  Fe  Fe29      1.0  0.11834  0.29621  0.57324  1.0000
  S   S60       1.0  0.13179  0.28423  0.54548  1.0000
  S   S61       1.0  0.12451  0.31882  0.58647  1.0000
  Fe  Fe30      1.0  0.11163  0.28071  0.52535  1.0000
  H   H332      1.0  0.05116  0.39009  0.89802  1.0000
  Fe  Fe31      1.0  0.11772  0.26221  0.57881  1.0000
  S   S62       1.0  0.12558  0.24170  0.60067  1.0000
  S   S63       1.0  0.09944  0.29436  0.55082  1.0000
  S   S64       1.0  0.10531  0.27436  0.60725  1.0000
  H   H333      1.0  0.02972  0.39786  0.92457  1.0000
  H   H334      1.0  0.18184  0.30890  0.63361  1.0000
  C   C189      1.0  0.13020  0.47000  0.95940  1.0000
  C   C190      1.0  0.04665  0.11517  0.96440  1.0000
  H   H335      1.0  0.09233  0.44443  0.91689  1.0000
  S   S65       1.0  0.12705  0.00126  0.96597  1.0000
  N   N12       1.0  0.17537  0.20649  0.60337  1.0000
  C   C191      1.0  0.06556  0.28677  0.52260  1.0000
  C   C192      1.0  0.02051  0.22507  0.63766  1.0000
  C   C193      1.0  0.01952  0.23907  0.64420  1.0000
  C   C194      1.0  0.03232  0.25213  0.63361  1.0000
  C   C195      1.0  0.04634  0.25129  0.61686  1.0000
  C   C196      1.0  0.04747  0.23718  0.61089  1.0000
  C   C197      1.0  0.03456  0.22418  0.62103  1.0000
  H   H336      1.0  0.00877  0.23998  0.65672  1.0000
  H   H337      1.0  0.03132  0.26302  0.63821  1.0000
  H   H338      1.0  0.05816  0.23637  0.59797  1.0000
  H   H339      1.0  0.03543  0.21342  0.61577  1.0000
  H   H340      1.0  0.16347  0.14420  0.86767  1.0000
  H   H341      1.0  0.03511  0.33230  0.92874  1.0000
  H   H342      1.0  0.17314  0.48643  0.77912  1.0000
  C   C198      1.0  0.13429  0.45527  0.97469  1.0000
  C   C199      1.0  0.17847  0.23769  0.81297  1.0000
  H   H343      1.0  0.15876  0.46654  0.96638  1.0000
  S   S66       1.0  0.99326  0.29397  0.75990  1.0000
  C   C200      1.0  0.14548  0.30953  0.66687  1.0000
  C   C201      1.0  0.15915  0.99792  0.83840  1.0000
  H   H344      1.0  0.01832  0.42615  0.78854  1.0000
  H   H345      1.0  0.11098  0.46807  0.92480  1.0000
  H   H346      1.0  0.02967  0.25271  0.74884  1.0000
  H   H347      1.0  0.03815  0.24847  0.70178  1.0000
  H   H348      1.0  0.99151  0.10166  0.87579  1.0000
  C   C202      1.0  0.01928  0.27466  0.80230  1.0000
  C   C203      1.0  0.01057  0.24637  0.80222  1.0000
  H   H349      1.0  0.17858  0.13695  0.80610  1.0000
  H   H350      1.0  0.17784  0.46649  0.51357  1.0000
  H   H351      1.0  0.00221  0.21053  0.78981  1.0000
  C   C204      1.0  0.01472  0.40715  0.72984  1.0000
  Fe  Fe32      1.0  0.98473  0.30986  0.78588  1.0000
  C   C205      1.0  0.15192  0.18503  0.81314  1.0000
  C   C206      1.0  0.13730  0.17734  0.83158  1.0000
  C   C207      1.0  0.13577  0.17013  0.86020  1.0000
  C   C208      1.0  0.14889  0.17051  0.87048  1.0000
  C   C209      1.0  0.16351  0.17797  0.85194  1.0000
  C   C210      1.0  0.16504  0.18530  0.82343  1.0000
  H   H352      1.0  0.12711  0.17707  0.82373  1.0000
  H   H353      1.0  0.12445  0.16441  0.87434  1.0000
  H   H354      1.0  0.00125  0.24828  0.75121  1.0000
  H   H355      1.0  0.18148  0.48047  0.48004  1.0000
  C   C211      1.0  0.14179  0.24378  0.61493  1.0000
  C   C212      1.0  0.14084  0.23404  0.64147  1.0000
  C   C213      1.0  0.15401  0.23429  0.65203  1.0000
  C   C214      1.0  0.16832  0.24394  0.63567  1.0000
  C   C215      1.0  0.16926  0.25362  0.60915  1.0000
  C   C216      1.0  0.15605  0.25370  0.59895  1.0000
  H   H356      1.0  0.12988  0.22618  0.65380  1.0000
  H   H357      1.0  0.15313  0.22678  0.67250  1.0000
  Fe  Fe33      1.0  0.17634  0.20703  0.74618  1.0000
  H   H358      1.0  0.15699  0.26100  0.57825  1.0000
  H   H359      1.0  0.15434  0.48413  0.89253  1.0000
  H   H360      1.0  0.16465  0.05167  0.93862  1.0000
  H   H361      1.0  0.17105  0.28548  0.60074  1.0000
  H   H362      1.0  0.17639  0.12231  0.91033  1.0000
  C   C217      1.0  0.02032  0.11583  0.96179  1.0000
  C   C218      1.0  0.02316  0.24223  0.74445  1.0000
  H   H363      1.0  0.16534  0.46355  0.49043  1.0000
  H   H364      1.0  0.02854  0.15940  0.77921  1.0000
  H   H365      1.0  0.99698  0.26381  0.79918  1.0000
  H   H366      1.0  0.02307  0.24668  0.79713  1.0000
  C   C219      1.0  0.14381  0.32174  0.68322  1.0000
  H   H367      1.0  0.99824  0.17353  0.91562  1.0000
  H   H368      1.0  0.07867  0.43895  0.95127  1.0000
  H   H369      1.0  0.08975  0.42582  0.94110  1.0000
  C   C220      1.0  0.12066  0.26324  0.66961  1.0000
  C   C221      1.0  0.11305  0.48737  0.95947  1.0000
  H   H370      1.0  0.15971  0.22117  0.59980  1.0000
  H   H371      1.0  0.14252  0.28816  0.63816  1.0000
  H   H372      1.0  0.05622  0.02659  0.92660  1.0000
  H   H373      1.0  0.15237  0.20241  0.59636  1.0000
  H   H374      1.0  0.03724  0.99798  0.94881  1.0000
  C   C222      1.0  0.14771  0.46800  0.77129  1.0000
  H   H375      1.0  0.15514  0.17911  0.68661  1.0000
  C   C223      1.0  0.06537  0.40636  0.91378  1.0000
  H   H376      1.0  0.01844  0.22086  0.79782  1.0000
  H   H377      1.0  0.99835  0.27668  0.71863  1.0000
  H   H378      1.0  0.00602  0.48698  0.70272  1.0000
  H   H379      1.0  0.17636  0.19377  0.64465  1.0000
  C   C224      1.0  0.13697  0.46967  0.87900  1.0000
  H   H380      1.0  0.03588  0.42401  0.70688  1.0000
  H   H381      1.0  0.13668  0.45910  0.89408  1.0000
  H   H382      1.0  0.18035  0.26093  0.59616  1.0000
  C   C225      1.0  0.04602  0.39074  0.82034  1.0000
  C   C226      1.0  0.04717  0.39694  0.79172  1.0000
  C   C227      1.0  0.03780  0.38886  0.77775  1.0000
  C   C228      1.0  0.02687  0.37475  0.79235  1.0000
  C   C229      1.0  0.02560  0.36859  0.82106  1.0000
  C   C230      1.0  0.03523  0.37651  0.83493  1.0000
  H   H383      1.0  0.05541  0.40787  0.78029  1.0000
  H   H384      1.0  0.03909  0.39346  0.75542  1.0000
  H   H385      1.0  0.01727  0.35768  0.83253  1.0000
  H   H386      1.0  0.03425  0.37160  0.85710  1.0000
  C   C231      1.0  0.00898  0.48078  0.72173  1.0000
  S   S67       1.0  0.15336  0.19377  0.77732  1.0000
  H   H387      1.0  0.99067  0.32238  0.70414  1.0000
  H   H388      1.0  0.13065  0.48442  0.74171  1.0000
  H   H389      1.0  0.07621  0.30934  0.52704  1.0000
  C   C232      1.0  0.14548  0.40832  0.72065  1.0000
  C   C233      1.0  0.14784  0.42121  0.69784  1.0000
  C   C234      1.0  0.14022  0.43292  0.70115  1.0000
  C   C235      1.0  0.13023  0.43182  0.72723  1.0000
  C   C236      1.0  0.12813  0.41908  0.75014  1.0000
  C   C237      1.0  0.13571  0.40737  0.74687  1.0000
  H   H390      1.0  0.15535  0.42203  0.67753  1.0000
  H   H391      1.0  0.14194  0.44276  0.68331  1.0000
  H   H392      1.0  0.12058  0.41817  0.77032  1.0000
  H   H393      1.0  0.13391  0.39746  0.76461  1.0000
  C   C238      1.0  0.16649  0.34885  0.60464  1.0000
  C   C239      1.0  0.16853  0.33765  0.58967  1.0000
  C   C240      1.0  0.15588  0.32838  0.58373  1.0000
  C   C241      1.0  0.14102  0.33027  0.59270  1.0000
  C   C242      1.0  0.13906  0.34172  0.60711  1.0000
  C   C243      1.0  0.15168  0.35094  0.61311  1.0000
  C   C244      1.0  0.12815  0.48278  0.84052  1.0000
  H   H394      1.0  0.15761  0.31978  0.57231  1.0000
  H   H395      1.0  0.12764  0.34337  0.61395  1.0000
  H   H396      1.0  0.17220  0.12885  0.86278  1.0000
  H   H397      1.0  0.00892  0.38036  0.96331  1.0000
  H   H398      1.0  0.99807  0.47447  0.73811  1.0000
  H   H399      1.0  0.17997  0.33606  0.58281  1.0000
  H   H400      1.0  0.00681  0.24342  0.82573  1.0000
  C   C245      1.0  0.04046  0.35502  0.93684  1.0000
  H   H401      1.0  0.14545  0.20266  0.64434  1.0000
  C   C246      1.0  0.01053  0.40217  0.97337  1.0000
  H   H402      1.0  0.14247  0.45932  0.76120  1.0000
  H   H403      1.0  0.14284  0.47743  0.71664  1.0000
  H   H404      1.0  0.17132  0.21118  0.85636  1.0000
  N   N13       1.0  0.08525  0.38223  0.75582  1.0000
  C   C247      1.0  0.08168  0.39511  0.73575  1.0000
  C   C248      1.0  0.07149  0.36821  0.76672  1.0000
  C   C249      1.0  0.08815  0.38808  0.78086  1.0000
  C   C250      1.0  0.09966  0.37804  0.74238  1.0000
  C   C251      1.0  0.10012  0.37332  0.71435  1.0000
  C   C252      1.0  0.09438  0.41062  0.72426  1.0000
  C   C253      1.0  0.08907  0.37574  0.80682  1.0000
  C   C254      1.0  0.06167  0.36456  0.74592  1.0000
  C   C255      1.0  0.04980  0.34886  0.75850  1.0000
  C   C256      1.0  0.11635  0.37239  0.70067  1.0000
  C   C257      1.0  0.08976  0.42239  0.70309  1.0000
  C   C258      1.0  0.09459  0.38341  0.82857  1.0000
  H   H405      1.0  0.07096  0.39774  0.74635  1.0000
  H   H406      1.0  0.07904  0.39150  0.71712  1.0000
  H   H407      1.0  0.07517  0.35761  0.77525  1.0000
  H   H408      1.0  0.06303  0.36967  0.78490  1.0000
  H   H409      1.0  0.07898  0.39371  0.78870  1.0000
  H   H410      1.0  0.09915  0.39726  0.77444  1.0000
  H   H411      1.0  0.11002  0.38775  0.73865  1.0000
  H   H412      1.0  0.10171  0.36813  0.75705  1.0000
  H   H413      1.0  0.09692  0.38175  0.69859  1.0000
  H   H414      1.0  0.09228  0.36162  0.71865  1.0000
  H   H415      1.0  0.09617  0.41594  0.74168  1.0000
  H   H416      1.0  0.10547  0.40887  0.71331  1.0000
  H   H417      1.0  0.09720  0.36881  0.80064  1.0000
  H   H418      1.0  0.07753  0.36767  0.81756  1.0000
  H   H419      1.0  0.05516  0.37349  0.74174  1.0000
  H   H420      1.0  0.06878  0.36438  0.72535  1.0000
  H   H421      1.0  0.04220  0.34859  0.77911  1.0000
  H   H422      1.0  0.04239  0.34691  0.74391  1.0000
  H   H423      1.0  0.05563  0.33928  0.76162  1.0000
  H   H424      1.0  0.12465  0.38401  0.69460  1.0000
  H   H425      1.0  0.12037  0.36411  0.71541  1.0000
  H   H426      1.0  0.11632  0.36836  0.68123  1.0000
  H   H427      1.0  0.07894  0.42492  0.71340  1.0000
  H   H428      1.0  0.09903  0.43341  0.69538  1.0000
  H   H429      1.0  0.08815  0.41796  0.68459  1.0000
  H   H430      1.0  0.10639  0.39119  0.81918  1.0000
  H   H431      1.0  0.08664  0.39024  0.83617  1.0000
  H   H432      1.0  0.09489  0.37434  0.84705  1.0000
  H   H433      1.0  0.10102  0.48843  0.96130  1.0000
  H   H434      1.0  0.13556  0.09599  0.87904  1.0000
  C   C259      1.0  0.06212  0.27888  0.49924  1.0000
  S   S68       1.0  0.08934  0.01750  0.97835  1.0000
  H   H435      1.0  0.13986  0.31624  0.70637  1.0000
  C   C260      1.0  0.10494  0.46289  0.94756  1.0000
  H   H436      1.0  0.00148  0.16379  0.55300  1.0000
  H   H437      1.0  0.15738  0.47930  0.80985  1.0000
  C   C261      1.0  0.99879  0.21074  0.83395  1.0000
  H   H438      1.0  0.05406  0.28460  0.48955  1.0000
  H   H439      1.0  0.01974  0.39739  0.72616  1.0000
  H   H440      1.0  0.16859  0.23263  0.83197  1.0000
  S   S69       1.0  0.98445  0.33364  0.76222  1.0000
  H   H441      1.0  0.15756  0.44400  0.74624  1.0000
  C   C262      1.0  0.16964  0.27911  0.67264  1.0000
  H   H442      1.0  0.17124  0.25923  0.80320  1.0000
  H   H443      1.0  0.16466  0.15644  0.58660  1.0000
  C   C263      1.0  0.17378  0.25001  0.79297  1.0000
  H   H444      1.0  0.13977  0.25931  0.68624  1.0000
  H   H445      1.0  0.99989  0.22866  0.75218  1.0000
  H   H446      1.0  0.98599  0.20746  0.83952  1.0000
  H   H447      1.0  0.07349  0.38600  0.95617  1.0000
  N   N14       1.0  0.16178  0.29001  0.65737  1.0000
  C   C264      1.0  0.16085  0.13148  0.86953  1.0000
  C   C265      1.0  0.16612  0.20644  0.90154  1.0000
  H   H448      1.0  0.17171  0.16812  0.78209  1.0000
  H   H449      1.0  0.16327  0.24451  0.78736  1.0000
  C   C266      1.0  0.14800  0.28050  0.65117  1.0000
  H   H450      1.0  0.99993  0.18762  0.82981  1.0000
  H   H451      1.0  0.04808  0.99701  0.91621  1.0000
  H   H452      1.0  0.07200  0.99999  0.94014  1.0000
  H   H453      1.0  0.17070  0.20934  0.54745  1.0000
  H   H454      1.0  0.01650  0.19822  0.83860  1.0000
  H   H455      1.0  0.13729  0.47979  0.96502  1.0000
  C   C267      1.0  0.09739  0.03790  0.96818  1.0000
  H   H456      1.0  0.07235  0.28063  0.53493  1.0000
  H   H457      1.0  0.06376  0.38210  0.91529  1.0000
  N   N15       1.0  0.00166  0.23409  0.79148  1.0000
  H   H458      1.0  0.15030  0.23177  0.55764  1.0000
  H   H459      1.0  0.11366  0.44295  0.94123  1.0000
  H   H460      1.0  0.02099  0.25547  0.70420  1.0000
  H   H461      1.0  0.06698  0.40803  0.93440  1.0000
  H   H462      1.0  0.02486  0.42729  0.83344  1.0000
  H   H463      1.0  0.01863  0.18111  0.89928  1.0000
  H   H464      1.0  0.00260  0.08821  0.88613  1.0000
  H   H465      1.0  0.12295  0.25745  0.65234  1.0000
  H   H466      1.0  0.11227  0.25462  0.68830  1.0000
  H   H467      1.0  0.09341  0.46541  0.94964  1.0000
  H   H468      1.0  0.01108  0.46114  0.70557  1.0000
  S   S70       1.0  0.06910  0.14151  0.96183  1.0000
  C   C268      1.0  0.15220  0.19396  0.64865  1.0000
  H   H469      1.0  0.15132  0.19741  0.69066  1.0000
  C   C269      1.0  0.03283  0.39441  0.94501  1.0000
  H   H470      1.0  0.17172  0.15234  0.76551  1.0000
  H   H471      1.0  0.13477  0.47188  0.93630  1.0000
  H   H472      1.0  0.16513  0.48594  0.73593  1.0000
  C   C270      1.0  0.15135  0.45606  0.96342  1.0000
  C   C271      1.0  0.03264  0.36823  0.94099  1.0000
  H   H473      1.0  0.01048  0.43131  0.74886  1.0000
  H   H474      1.0  0.08427  0.47837  0.73972  1.0000
  H   H475      1.0  0.14786  0.18426  0.63999  1.0000
  C   C272      1.0  0.17998  0.29201  0.60879  1.0000
  C   C273      1.0  0.17250  0.30033  0.62979  1.0000
  H   H476      1.0  0.13257  0.27525  0.69437  1.0000
  C   C274      1.0  0.06606  0.02117  0.92342  1.0000
  H   H477      1.0  0.98801  0.19887  0.60097  1.0000
  C   C275      1.0  0.14690  0.48383  0.87832  1.0000
  N   N16       1.0  0.05571  0.26143  0.50851  1.0000
  H   H478      1.0  0.06942  0.02071  0.90104  1.0000
  C   C276      1.0  0.05051  0.13115  0.96180  1.0000
  S   S71       1.0  0.10988  0.15166  0.97202  1.0000
  H   H479      1.0  0.15554  0.09718  0.87899  1.0000
  H   H480      1.0  0.06472  0.36638  0.95758  1.0000
  H   H481      1.0  0.07129  0.23795  0.49055  1.0000
  C   C277      1.0  0.01757  0.38874  0.96896  1.0000
  C   C278      1.0  0.17667  0.15810  0.78026  1.0000
  H   H482      1.0  0.15313  0.31359  0.49551  1.0000
  C   C279      1.0  0.04171  0.25775  0.53322  1.0000
  H   H483      1.0  0.14174  0.05676  0.96677  1.0000
  C   C280      1.0  0.06799  0.25399  0.51720  1.0000
  C   C281      1.0  0.06751  0.23742  0.51336  1.0000
  H   H484      1.0  0.16728  0.00808  0.83930  1.0000
  H   H485      1.0  0.17162  0.46413  0.83563  1.0000
  C   C282      1.0  0.03271  0.24047  0.54553  1.0000
  C   C283      1.0  0.01754  0.23881  0.56696  1.0000
  C   C284      1.0  0.07830  0.23000  0.52809  1.0000
  H   H486      1.0  0.17710  0.22883  0.55071  1.0000
  C   C285      1.0  0.00576  0.23833  0.75959  1.0000
  H   H487      1.0  0.13602  0.18199  0.68938  1.0000
  C   C286      1.0  0.08127  0.41001  0.89319  1.0000
  H   H488      1.0  0.04504  0.26132  0.55154  1.0000
  H   H489      1.0  0.03348  0.26459  0.52731  1.0000
  C   C287      1.0  0.16744  0.21819  0.55799  1.0000
  H   H490      1.0  0.00833  0.40998  0.71362  1.0000
  H   H491      1.0  0.15166  0.27289  0.63787  1.0000
  H   H492      1.0  0.06766  0.25360  0.53975  1.0000
  H   H493      1.0  0.13831  0.08286  0.84039  1.0000
  H   H494      1.0  0.05582  0.22951  0.52189  1.0000
  H   H495      1.0  0.08012  0.40821  0.87240  1.0000
  C   C288      1.0  0.17384  0.16731  0.58216  1.0000
  C   C289      1.0  0.00034  0.17592  0.54790  1.0000
  H   H496      1.0  0.15411  0.44563  0.97517  1.0000
  H   H497      1.0  0.02976  0.23492  0.52903  1.0000
  H   H498      1.0  0.03965  0.23399  0.55690  1.0000
  H   H499      1.0  0.01963  0.24482  0.58346  1.0000
  H   H500      1.0  0.00947  0.24382  0.55626  1.0000
  H   H501      1.0  0.01202  0.22633  0.57757  1.0000
  H   H502      1.0  0.09040  0.23714  0.51929  1.0000
  C   C290      1.0  0.14728  0.04834  0.97762  1.0000
  H   H503      1.0  0.16204  0.27258  0.69399  1.0000
  H   H504      1.0  0.15945  0.21529  0.90301  1.0000
  H   H505      1.0  0.08830  0.40247  0.90175  1.0000
  H   H506      1.0  0.16152  0.12150  0.94076  1.0000
  C   C291      1.0  0.13553  0.26944  0.67744  1.0000
  H   H507      1.0  0.16520  0.11407  0.83229  1.0000
  N   N17       1.0  0.02389  0.14275  0.86628  1.0000
  C   C292      1.0  0.04006  0.14053  0.86010  1.0000
  C   C293      1.0  0.02045  0.14967  0.83875  1.0000
  C   C294      1.0  0.02365  0.15454  0.88345  1.0000
  C   C295      1.0  0.01173  0.12794  0.88277  1.0000
  C   C296      1.0  0.01467  0.11249  0.87726  1.0000
  C   C297      1.0  0.04643  0.13608  0.88638  1.0000
  C   C298      1.0  0.00827  0.15930  0.89109  1.0000
  C   C299      1.0  0.02048  0.13984  0.81706  1.0000
  C   C300      1.0  0.01862  0.14905  0.78914  1.0000
  H   H508      1.0  0.00341  0.18049  0.52450  1.0000
  C   C301      1.0  0.06057  0.12970  0.87954  1.0000
  C   C302      1.0  0.00934  0.17032  0.91017  1.0000
  H   H509      1.0  0.04834  0.15140  0.84578  1.0000
  H   H510      1.0  0.04103  0.13164  0.84825  1.0000
  H   H511      1.0  0.00876  0.15180  0.84268  1.0000
  H   H512      1.0  0.02873  0.16124  0.82807  1.0000
  H   H513      1.0  0.03300  0.16534  0.87232  1.0000
  H   H514      1.0  0.02609  0.15001  0.90406  1.0000
  H   H515      1.0  0.01015  0.12639  0.90594  1.0000
  H   H516      1.0  0.00026  0.12881  0.87929  1.0000
  H   H517      1.0  0.02323  0.10894  0.88840  1.0000
  H   H518      1.0  0.01922  0.11341  0.85458  1.0000
  H   H519      1.0  0.05003  0.14650  0.89400  1.0000
  H   H520      1.0  0.03756  0.12724  0.90396  1.0000
  H   H521      1.0  0.99851  0.14898  0.90238  1.0000
  H   H522      1.0  0.00555  0.16554  0.87197  1.0000
  H   H523      1.0  0.03137  0.13625  0.81211  1.0000
  H   H524      1.0  0.01056  0.12940  0.82531  1.0000
  H   H525      1.0  0.01815  0.14162  0.77422  1.0000
  S   S72       1.0  0.14573  0.99595  0.89389  1.0000
  H   H526      1.0  0.02856  0.47638  0.69629  1.0000
  C   C303      1.0  0.98465  0.23267  0.80216  1.0000
  C   C304      1.0  0.03380  0.43282  0.81312  1.0000
  H   H527      1.0  0.12893  0.06623  0.92641  1.0000
  H   H528      1.0  0.06505  0.12724  0.89862  1.0000
  H   H529      1.0  0.05747  0.11871  0.87336  1.0000
  H   H530      1.0  0.06986  0.13832  0.86218  1.0000
  H   H531      1.0  0.07604  0.02855  0.92782  1.0000
  C   C305      1.0  0.16311  0.21184  0.59064  1.0000
  H   H532      1.0  0.17828  0.45162  0.77486  1.0000
  N   N18       1.0  0.15077  0.12752  0.85028  1.0000
  C   C306      1.0  0.13411  0.12628  0.86416  1.0000
  C   C307      1.0  0.16975  0.20165  0.63541  1.0000
  C   C308      1.0  0.15573  0.14077  0.82356  1.0000
  C   C309      1.0  0.15283  0.11296  0.84182  1.0000
  H   H533      1.0  0.05930  0.00606  0.96546  1.0000
  C   C310      1.0  0.12247  0.12287  0.84629  1.0000
  H   H534      1.0  0.17940  0.15275  0.82245  1.0000
  H   H535      1.0  0.17531  0.03951  0.57007  1.0000
  C   C311      1.0  0.04747  0.99421  0.93912  1.0000
  H   H536      1.0  0.07978  0.26125  0.50512  1.0000
  C   C312      1.0  0.10600  0.12155  0.86261  1.0000
  C   C313      1.0  0.05574  0.38969  0.91705  1.0000
  H   H537      1.0  0.13315  0.13725  0.87006  1.0000
  H   H538      1.0  0.12979  0.11713  0.88452  1.0000
  H   H539      1.0  0.18307  0.43773  0.73774  1.0000
  H   H540      1.0  0.00861  0.18319  0.55627  1.0000
  H   H541      1.0  0.15180  0.15104  0.82789  1.0000
  H   H542      1.0  0.15012  0.13752  0.80719  1.0000
  H   H543      1.0  0.14709  0.11143  0.82467  1.0000
  C   C314      1.0  0.07457  0.30376  0.50980  1.0000
  H   H544      1.0  0.17074  0.13981  0.91487  1.0000
  H   H545      1.0  0.13386  0.30162  0.67098  1.0000
  H   H546      1.0  0.12517  0.13234  0.82660  1.0000
  H   H547      1.0  0.12256  0.11174  0.84070  1.0000
  H   H548      1.0  0.05466  0.28670  0.53735  1.0000
  H   H549      1.0  0.02233  0.16549  0.96927  1.0000
  H   H550      1.0  0.14468  0.12886  0.91015  1.0000
  H   H551      1.0  0.04667  0.24382  0.48859  1.0000
  C   C315      1.0  0.16674  0.47583  0.79649  1.0000
  C   C316      1.0  0.98656  0.33679  0.94552  1.0000
  H   H552      1.0  0.17369  0.17801  0.85970  1.0000
  C   C317      1.0  0.12744  0.46910  0.86030  1.0000
  H   H553      1.0  0.99456  0.09802  0.91094  1.0000
  C   C318      1.0  0.03163  0.10757  0.96427  1.0000
  H   H554      1.0  0.10511  0.13268  0.86775  1.0000
  H   H555      1.0  0.09791  0.11893  0.84949  1.0000
  H   H556      1.0  0.10247  0.11204  0.88250  1.0000
  H   H557      1.0  0.00260  0.21834  0.84714  1.0000
  H   H558      1.0  0.14928  0.31568  0.64412  1.0000
  H   H559      1.0  0.04407  0.35036  0.95606  1.0000
  N   N19       1.0  0.03209  0.44906  0.73491  1.0000
  C   C319      1.0  0.03827  0.44469  0.76047  1.0000
  C   C320      1.0  0.04527  0.45649  0.70854  1.0000
  C   C321      1.0  0.02314  0.46097  0.73973  1.0000
  C   C322      1.0  0.02114  0.43536  0.73111  1.0000
  S   S73       1.0  0.18136  0.23284  0.72863  1.0000
  C   C323      1.0  0.02607  0.43703  0.78922  1.0000
  C   C324      1.0  0.01832  0.46947  0.71378  1.0000
  C   C325      1.0  0.06006  0.45045  0.70653  1.0000
  C   C326      1.0  0.07096  0.45687  0.67682  1.0000
  H   H560      1.0  0.98861  0.17453  0.60156  1.0000
  C   C327      1.0  0.09009  0.43822  0.93955  1.0000
  H   H561      1.0  0.02473  0.34538  0.91377  1.0000
  H   H562      1.0  0.04604  0.45519  0.76276  1.0000
  H   H563      1.0  0.04567  0.43658  0.75787  1.0000
  H   H564      1.0  0.04118  0.45584  0.68923  1.0000
  H   H565      1.0  0.04949  0.46912  0.70650  1.0000
  H   H566      1.0  0.02997  0.47011  0.74712  1.0000
  H   H567      1.0  0.01233  0.45555  0.75692  1.0000
  H   H568      1.0  0.00655  0.40318  0.75124  1.0000
  H   H569      1.0  0.01707  0.43885  0.71184  1.0000
  H   H570      1.0  0.04217  0.15177  0.95688  1.0000
  H   H571      1.0  0.17572  0.04650  0.60107  1.0000
  H   H572      1.0  0.01904  0.44504  0.79495  1.0000
  H   H573      1.0  0.14781  0.03604  0.94463  1.0000
  C   C328      1.0  0.06181  0.00487  0.94343  1.0000
  H   H574      1.0  0.14376  0.21236  0.55405  1.0000
  H   H575      1.0  0.06639  0.45437  0.72152  1.0000
  H   H576      1.0  0.05746  0.43764  0.71177  1.0000
  H   H577      1.0  0.07376  0.46977  0.67044  1.0000
  H   H578      1.0  0.08189  0.45330  0.67648  1.0000
  H   H579      1.0  0.06561  0.45232  0.66123  1.0000
  H   H580      1.0  0.14328  0.07270  0.87084  1.0000
  H   H581      1.0  0.17005  0.39108  0.54615  1.0000
  C   C329      1.0  0.02918  0.34147  0.93240  1.0000
  H   H582      1.0  0.17634  0.19101  0.80936  1.0000
  H   H583      1.0  0.08612  0.30458  0.49628  1.0000
  C   C330      1.0  0.11174  0.04479  0.94869  1.0000
  C   C331      1.0  0.11779  0.06103  0.94143  1.0000
  H   H584      1.0  0.08744  0.42231  0.88988  1.0000
  H   H585      1.0  0.01602  0.27152  0.82581  1.0000
  N   N20       1.0  0.15991  0.46292  0.78453  1.0000
  C   C332      1.0  0.15234  0.44871  0.80907  1.0000
  H   H586      1.0  0.06817  0.31021  0.49695  1.0000
  C   C333      1.0  0.98718  0.27085  0.73321  1.0000
  C   C334      1.0  0.14405  0.43403  0.80210  1.0000
  C   C335      1.0  0.13579  0.42106  0.82911  1.0000
  C   C336      1.0  0.17826  0.05009  0.57760  1.0000
  H   H587      1.0  0.13788  0.46860  0.78801  1.0000
  H   H588      1.0  0.16100  0.44496  0.81973  1.0000
  H   H589      1.0  0.14388  0.45156  0.82533  1.0000
  C   C337      1.0  0.00902  0.26313  0.79147  1.0000
  H   H590      1.0  0.00776  0.15291  0.79258  1.0000
  C   C338      1.0  0.00569  0.21897  0.80195  1.0000
  H   H591      1.0  0.13530  0.43645  0.79068  1.0000
  H   H592      1.0  0.15256  0.42946  0.78926  1.0000
  H   H593      1.0  0.14418  0.41775  0.84093  1.0000
  H   H594      1.0  0.12696  0.42481  0.84300  1.0000
  H   H595      1.0  0.12993  0.41069  0.82349  1.0000
  C   C339      1.0  0.17337  0.14662  0.80928  1.0000
  H   H596      1.0  0.11538  0.27288  0.66265  1.0000
  H   H597      1.0  0.15499  0.33056  0.67823  1.0000
  C   C340      1.0  0.00377  0.19575  0.84218  1.0000
  H   H598      1.0  0.05052  0.35897  0.91810  1.0000
  C   C341      1.0  0.15594  0.04197  0.95505  1.0000
  H   H599      1.0  0.01171  0.16460  0.93011  1.0000
  C   C342      1.0  0.15326  0.48410  0.74916  1.0000
  H   H600      1.0  0.99828  0.19004  0.86498  1.0000
  H   H601      1.0  0.13519  0.32781  0.67682  1.0000
  H   H602      1.0  0.14991  0.35951  0.62460  1.0000
  H   H603      1.0  0.07319  0.28212  0.48245  1.0000
  H   H604      1.0  0.16365  0.17244  0.62023  1.0000
  H   H605      1.0  0.03162  0.27495  0.79442  1.0000
  C   C343      1.0  0.10280  0.44517  0.95220  1.0000
  H   H606      1.0  0.04075  0.42448  0.80899  1.0000
  H   H607      1.0  0.18033  0.22869  0.80178  1.0000
  H   H608      1.0  0.01242  0.26716  0.76803  1.0000
  C   C344      1.0  0.09529  0.06367  0.97316  1.0000
  C   C345      1.0  0.16653  0.12711  0.91779  1.0000
  H   H609      1.0  0.14950  0.11121  0.90707  1.0000
  H   H610      1.0  0.17209  0.21195  0.64399  1.0000
  H   H611      1.0  0.15189  0.29349  0.69826  1.0000
  H   H612      1.0  0.17095  0.05794  0.57157  1.0000
  H   H613      1.0  0.02714  0.37099  0.92323  1.0000
  C   C346      1.0  0.06384  0.37573  0.96826  1.0000
  H   H614      1.0  0.15714  0.22726  0.52469  1.0000
  C   C347      1.0  0.17745  0.46789  0.49115  1.0000
  S   S74       1.0  0.18266  0.35941  0.61320  1.0000
  N   N21       1.0  0.11344  0.47047  0.96594  1.0000
  H   H615      1.0  0.02876  0.09521  0.96623  1.0000
  C   C348      1.0  0.05070  0.25661  0.48403  1.0000
  H   H616      1.0  0.15759  0.18092  0.58946  1.0000
  H   H617      1.0  0.17765  0.17254  0.55890  1.0000
  C   C349      1.0  0.14267  0.48601  0.72943  1.0000
  C   C350      1.0  0.16814  0.45362  0.73893  1.0000
  C   C351      1.0  0.17781  0.21089  0.87270  1.0000
  C   C352      1.0  0.16756  0.17854  0.59735  1.0000
  H   H618      1.0  0.16736  0.30897  0.67629  1.0000
  C   C353      1.0  0.98381  0.17647  0.56043  1.0000
  C   C354      1.0  0.17267  0.45987  0.76355  1.0000
  H   H619      1.0  0.17141  0.26997  0.66156  1.0000
  C   C355      1.0  0.10972  0.07054  0.95386  1.0000
  C   C356      1.0  0.03922  0.13940  0.95907  1.0000
  H   H620      1.0  0.16619  0.30745  0.61811  1.0000
  H   H621      1.0  0.15786  0.19514  0.90443  1.0000
  H   H622      1.0  0.17024  0.99946  0.79491  1.0000
  H   H623      1.0  0.17754  0.44375  0.70548  1.0000
  H   H624      1.0  0.09964  0.43878  0.97484  1.0000
  H   H625      1.0  0.16198  0.03363  0.96460  1.0000
  H   H626      1.0  0.17257  0.41142  0.50145  1.0000
  H   H627      1.0  0.98425  0.22363  0.61051  1.0000
  C   C357      1.0  0.07544  0.48434  0.73632  1.0000
  H   H628      1.0  0.04049  0.26095  0.48065  1.0000
  C   C358      1.0  0.02421  0.13180  0.95913  1.0000
  H   H629      1.0  0.16597  0.46298  0.72323  1.0000
  H   H630      1.0  0.99117  0.35603  0.90877  1.0000
  Fe  Fe34      1.0  0.09114  0.13368  0.96492  1.0000
  Fe  Fe35      1.0  0.11140  0.11072  0.96115  1.0000
  H   H631      1.0  0.17203  0.20520  0.91888  1.0000
  C   C359      1.0  0.18100  0.44774  0.72330  1.0000
  H   H632      1.0  0.12741  0.44448  0.97217  1.0000
  C   C360      1.0  0.98720  0.34355  0.91723  1.0000
  H   H633      1.0  0.18211  0.47066  0.75317  1.0000
  C   C361      1.0  0.16093  0.99300  0.81329  1.0000
  H   H634      1.0  0.98338  0.18875  0.55422  1.0000
  H   H635      1.0  0.04918  0.39034  0.97900  1.0000
  C   C362      1.0  0.18284  0.39438  0.54188  1.0000
  C   C363      1.0  0.18027  0.19356  0.59237  1.0000
  H   H636      1.0  0.16119  0.49926  0.36772  1.0000
  H   H637      1.0  0.01849  0.85853  0.17090  1.0000
  S   S75       1.0  0.16933  0.81307  0.21975  1.0000
  H   H638      1.0  0.07340  0.80902  0.39235  1.0000
  H   H639      1.0  0.14132  0.49978  0.37686  1.0000
  N   N22       1.0  0.99802  0.77854  0.05132  1.0000
  H   H640      1.0  0.11686  0.49889  0.04289  1.0000
  C   C364      1.0  0.05184  0.84643  0.17310  1.0000
  H   H641      1.0  0.08771  0.60064  0.43592  1.0000
  H   H642      1.0  0.02342  0.85106  0.20351  1.0000
  S   S76       1.0  0.17093  0.76990  0.25372  1.0000
  Fe  Fe36      1.0  0.03443  0.52514  0.28347  1.0000
  S   S77       1.0  0.05028  0.52553  0.24254  1.0000
  S   S78       1.0  0.00850  0.52000  0.28512  1.0000
  Fe  Fe37      1.0  0.06228  0.53486  0.30940  1.0000
  S   S79       1.0  0.07926  0.53503  0.26999  1.0000
  S   S80       1.0  0.07276  0.53803  0.34670  1.0000
  Fe  Fe38      1.0  0.06497  0.54750  0.24668  1.0000
  S   S81       1.0  0.07796  0.56765  0.20839  1.0000
  Fe  Fe39      1.0  0.06294  0.51317  0.27000  1.0000
  C   C365      1.0  0.01554  0.81318  0.98292  1.0000
  S   S82       1.0  0.04838  0.54832  0.28592  1.0000
  S   S83       1.0  0.04658  0.51175  0.31110  1.0000
  Fe  Fe40      1.0  0.15499  0.61332  0.43361  1.0000
  H   H643      1.0  0.16033  0.94481  0.11999  1.0000
  S   S84       1.0  0.16181  0.63808  0.43975  1.0000
  Fe  Fe41      1.0  0.13425  0.59232  0.40568  1.0000
  S   S85       1.0  0.13955  0.57068  0.42792  1.0000
  S   S86       1.0  0.11759  0.59250  0.37671  1.0000
  H   H644      1.0  0.06863  0.59038  0.43623  1.0000
  H   H645      1.0  0.04781  0.83913  0.19542  1.0000
  Fe  Fe42      1.0  0.16404  0.58511  0.41743  1.0000
  S   S87       1.0  0.12948  0.60112  0.44476  1.0000
  S   S88       1.0  0.15912  0.60647  0.39236  1.0000
  H   H646      1.0  0.16061  0.49455  0.46243  1.0000
  Fe  Fe43      1.0  0.11989  0.66984  0.12735  1.0000
  S   S89       1.0  0.11730  0.66967  0.17319  1.0000
  S   S90       1.0  0.13961  0.66204  0.10427  1.0000
  Fe  Fe44      1.0  0.08945  0.67810  0.12594  1.0000
  S   S91       1.0  0.08439  0.67857  0.17142  1.0000
  S   S92       1.0  0.07412  0.68349  0.09685  1.0000
  Fe  Fe45      1.0  0.10942  0.69148  0.16185  1.0000
  S   S93       1.0  0.11433  0.71289  0.17862  1.0000
  Fe  Fe46      1.0  0.09276  0.65684  0.17888  1.0000
  S   S94       1.0  0.07958  0.63654  0.21650  1.0000
  S   S95       1.0  0.11391  0.69268  0.11538  1.0000
  S   S96       1.0  0.09587  0.65538  0.13407  1.0000
  C   C366      1.0  0.98438  0.82679  0.04477  1.0000
  C   C367      1.0  0.06175  0.53455  0.16447  1.0000
  Fe  Fe47      1.0  0.11156  0.84478  0.31276  1.0000
  S   S97       1.0  0.08690  0.83964  0.33774  1.0000
  S   S98       1.0  0.12494  0.82667  0.32141  1.0000
  Fe  Fe48      1.0  0.11306  0.87876  0.28690  1.0000
  S   S99       1.0  0.08846  0.87596  0.31082  1.0000
  S   S100      1.0  0.13033  0.89888  0.25179  1.0000
  Fe  Fe49      1.0  0.09460  0.86227  0.34872  1.0000
  S   S101      1.0  0.08679  0.86113  0.39624  1.0000
  Fe  Fe50      1.0  0.08273  0.85335  0.29813  1.0000
  S   S102      1.0  0.06142  0.84816  0.27995  1.0000
  S   S103      1.0  0.11940  0.86661  0.32537  1.0000
  S   S104      1.0  0.10709  0.85694  0.27242  1.0000
  H   H647      1.0  0.17738  0.88526  0.22094  1.0000
  H   H648      1.0  0.09834  0.93544  0.10696  1.0000
  H   H649      1.0  0.14462  0.97772  0.17251  1.0000
  H   H650      1.0  0.10443  0.95566  0.10565  1.0000
  H   H651      1.0  0.14479  0.88281  0.20894  1.0000
  C   C368      1.0  0.13813  0.91874  0.24952  1.0000
  C   C369      1.0  0.13120  0.92651  0.26776  1.0000
  C   C370      1.0  0.13706  0.94265  0.26325  1.0000
  C   C371      1.0  0.14995  0.95115  0.24068  1.0000
  C   C372      1.0  0.15719  0.94326  0.22306  1.0000
  C   C373      1.0  0.15127  0.92718  0.22742  1.0000
  H   H652      1.0  0.12109  0.92021  0.28485  1.0000
  H   H653      1.0  0.13142  0.94864  0.27711  1.0000
  H   H654      1.0  0.15676  0.92130  0.21321  1.0000
  H   H655      1.0  0.14358  0.85767  0.40222  1.0000
  C   C374      1.0  0.02854  0.82260  0.25138  1.0000
  C   C375      1.0  0.03740  0.83445  0.26008  1.0000
  C   C376      1.0  0.05057  0.83255  0.26959  1.0000
  C   C377      1.0  0.05467  0.81849  0.27028  1.0000
  C   C378      1.0  0.04584  0.80666  0.26148  1.0000
  H   H656      1.0  0.03392  0.84514  0.25974  1.0000
  H   H657      1.0  0.06456  0.81668  0.27789  1.0000
  H   H658      1.0  0.04915  0.79586  0.26232  1.0000
  H   H659      1.0  0.14232  0.89561  0.33157  1.0000
  H   H660      1.0  0.02536  0.86287  0.07414  1.0000
  C   C379      1.0  0.08884  0.86060  0.45076  1.0000
  C   C380      1.0  0.09665  0.86613  0.42177  1.0000
  C   C381      1.0  0.11186  0.87528  0.41423  1.0000
  C   C382      1.0  0.11903  0.87892  0.43536  1.0000
  H   H661      1.0  0.05333  0.81745  0.18111  1.0000
  C   C383      1.0  0.99418  0.60538  0.16587  1.0000
  H   H662      1.0  0.11806  0.87972  0.39212  1.0000
  H   H663      1.0  0.13074  0.88610  0.42921  1.0000
  C   C384      1.0  0.98860  0.71456  0.15936  1.0000
  C   C385      1.0  0.14729  0.68908  0.02454  1.0000
  C   C386      1.0  0.14146  0.68260  0.05386  1.0000
  C   C387      1.0  0.14599  0.66984  0.06733  1.0000
  C   C388      1.0  0.15617  0.66343  0.05124  1.0000
  C   C389      1.0  0.16197  0.66988  0.02188  1.0000
  H   H664      1.0  0.14391  0.69910  0.01431  1.0000
  H   H665      1.0  0.13364  0.68763  0.06606  1.0000
  H   H666      1.0  0.15953  0.65343  0.06158  1.0000
  Fe  Fe51      1.0  0.18226  0.79456  0.22829  1.0000
  C   C390      1.0  0.05453  0.67312  0.10661  1.0000
  C   C391      1.0  0.04546  0.67565  0.08745  1.0000
  C   C392      1.0  0.02960  0.66818  0.09519  1.0000
  C   C393      1.0  0.03179  0.65564  0.14134  1.0000
  C   C394      1.0  0.04769  0.66291  0.13348  1.0000
  H   H667      1.0  0.05068  0.68352  0.06661  1.0000
  Fe  Fe52      1.0  0.00262  0.78735  0.21865  1.0000
  H   H668      1.0  0.02825  0.62756  0.26976  1.0000
  H   H669      1.0  0.05460  0.66091  0.14837  1.0000
  N   N23       1.0  0.16129  0.51461  0.40961  1.0000
  H   H670      1.0  0.14933  0.83347  0.22106  1.0000
  S   S105      1.0  0.02197  0.79302  0.24126  1.0000
  C   C395      1.0  0.03271  0.80858  0.25187  1.0000
  C   C396      1.0  0.08643  0.55362  0.35161  1.0000
  C   C397      1.0  0.08502  0.56892  0.34538  1.0000
  C   C398      1.0  0.09464  0.58056  0.35320  1.0000
  C   C399      1.0  0.10586  0.57718  0.36737  1.0000
  C   C400      1.0  0.10732  0.56190  0.37358  1.0000
  C   C401      1.0  0.09768  0.55024  0.36574  1.0000
  H   H671      1.0  0.07611  0.57165  0.33542  1.0000
  H   H672      1.0  0.09312  0.59221  0.34886  1.0000
  H   H673      1.0  0.11584  0.55905  0.38450  1.0000
  H   H674      1.0  0.09877  0.53844  0.37106  1.0000
  H   H675      1.0  0.13097  0.62538  0.00300  1.0000
  H   H676      1.0  0.13160  0.65288  0.00349  1.0000
  H   H677      1.0  0.16987  0.66490  0.00964  1.0000
  C   C402      1.0  0.07862  0.58675  0.21119  1.0000
  C   C403      1.0  0.06970  0.58957  0.23490  1.0000
  C   C404      1.0  0.07016  0.60489  0.23629  1.0000
  C   C405      1.0  0.07958  0.61751  0.21407  1.0000
  C   C406      1.0  0.08868  0.61472  0.19053  1.0000
  C   C407      1.0  0.08812  0.59938  0.18905  1.0000
  H   H678      1.0  0.06235  0.57996  0.25207  1.0000
  H   H679      1.0  0.06315  0.60697  0.25463  1.0000
  H   H680      1.0  0.09607  0.62438  0.17338  1.0000
  H   H681      1.0  0.09507  0.59732  0.17064  1.0000
  C   C408      1.0  0.99663  0.50406  0.27750  1.0000
  S   S106      1.0  0.00289  0.64847  0.13287  1.0000
  C   C409      1.0  0.00032  0.84140  0.20267  1.0000
  S   S107      1.0  0.12787  0.97368  0.04001  1.0000
  H   H682      1.0  0.05882  0.95870  0.02188  1.0000
  H   H683      1.0  0.17822  0.56022  0.45569  1.0000
  H   H684      1.0  0.06578  0.61622  0.10792  1.0000
  C   C410      1.0  0.99752  0.73688  0.04071  1.0000
  H   H685      1.0  0.03331  0.64181  0.23611  1.0000
  S   S108      1.0  0.16116  0.59263  0.45779  1.0000
  C   C411      1.0  0.16071  0.73425  0.19504  1.0000
  C   C412      1.0  0.15913  0.72128  0.18380  1.0000
  C   C413      1.0  0.14503  0.71458  0.17869  1.0000
  C   C414      1.0  0.13235  0.72084  0.18469  1.0000
  C   C415      1.0  0.13394  0.73384  0.19584  1.0000
  C   C416      1.0  0.14801  0.74046  0.20114  1.0000
  H   H686      1.0  0.16887  0.71638  0.17904  1.0000
  H   H687      1.0  0.14398  0.70461  0.17007  1.0000
  H   H688      1.0  0.12423  0.73879  0.20035  1.0000
  H   H689      1.0  0.14911  0.75032  0.20993  1.0000
  C   C417      1.0  0.15797  0.81758  0.24833  1.0000
  C   C418      1.0  0.15724  0.81046  0.27641  1.0000
  C   C419      1.0  0.14716  0.81344  0.29872  1.0000
  C   C420      1.0  0.13791  0.82368  0.29307  1.0000
  C   C421      1.0  0.13882  0.83098  0.26505  1.0000
  C   C422      1.0  0.14885  0.82797  0.24273  1.0000
  H   H690      1.0  0.16425  0.80245  0.28091  1.0000
  H   H691      1.0  0.14648  0.80773  0.32039  1.0000
  H   H692      1.0  0.13158  0.83871  0.26058  1.0000
  H   H693      1.0  0.11739  0.84656  0.44363  1.0000
  C   C423      1.0  0.04557  0.81411  0.16786  1.0000
  C   C424      1.0  0.05152  0.80234  0.15382  1.0000
  C   C425      1.0  0.98622  0.72913  0.16106  1.0000
  H   H694      1.0  0.05990  0.50201  0.21663  1.0000
  H   H695      1.0  0.07612  0.86238  0.18973  1.0000
  H   H696      1.0  0.01470  0.59789  0.15326  1.0000
  Fe  Fe53      1.0  0.17539  0.98895  0.19844  1.0000
  H   H697      1.0  0.10713  0.49932  0.23239  1.0000
  C   C426      1.0  0.16513  0.50704  0.46047  1.0000
  H   H698      1.0  0.06872  0.63618  0.11013  1.0000
  N   N24       1.0  0.12120  0.77974  0.25287  1.0000
  C   C427      1.0  0.13260  0.77501  0.26873  1.0000
  C   C428      1.0  0.12970  0.78798  0.22240  1.0000
  C   C429      1.0  0.11458  0.79134  0.26579  1.0000
  C   C430      1.0  0.10807  0.76620  0.25460  1.0000
  C   C431      1.0  0.11167  0.75007  0.25690  1.0000
  C   C432      1.0  0.12661  0.76979  0.30148  1.0000
  C   C433      1.0  0.10475  0.79995  0.24946  1.0000
  C   C434      1.0  0.10844  0.52836  0.47734  1.0000
  H   H699      1.0  0.04481  0.91971  0.99986  1.0000
  H   H700      1.0  0.99838  0.76579  0.10904  1.0000
  C   C435      1.0  0.13768  0.76222  0.31515  1.0000
  C   C436      1.0  0.09654  0.80921  0.26692  1.0000
  H   H701      1.0  0.14305  0.78481  0.26344  1.0000
  H   H702      1.0  0.13706  0.76561  0.26183  1.0000
  H   H703      1.0  0.12152  0.79113  0.20990  1.0000
  H   H704      1.0  0.13774  0.79915  0.22138  1.0000
  H   H705      1.0  0.12403  0.80037  0.26812  1.0000
  H   H706      1.0  0.10715  0.78560  0.28763  1.0000
  H   H707      1.0  0.09829  0.76442  0.27336  1.0000
  H   H708      1.0  0.10314  0.76885  0.23608  1.0000
  H   H709      1.0  0.11295  0.74528  0.27838  1.0000
  H   H710      1.0  0.16604  0.66369  0.35856  1.0000
  H   H711      1.0  0.12565  0.78003  0.30986  1.0000
  H   H712      1.0  0.11507  0.76146  0.30826  1.0000
  H   H713      1.0  0.09591  0.79165  0.24405  1.0000
  H   H714      1.0  0.11228  0.80841  0.22963  1.0000
  H   H715      1.0  0.13825  0.79211  0.37932  1.0000
  H   H716      1.0  0.06260  0.53777  0.14142  1.0000
  H   H717      1.0  0.06268  0.56151  0.44399  1.0000
  H   H718      1.0  0.02411  0.80589  0.01882  1.0000
  H   H719      1.0  0.12373  0.78510  0.41259  1.0000
  H   H720      1.0  0.07717  0.85338  0.45685  1.0000
  H   H721      1.0  0.05026  0.51625  0.42337  1.0000
  H   H722      1.0  0.15867  0.90398  0.26878  1.0000
  H   H723      1.0  0.13901  0.75173  0.30792  1.0000
  H   H724      1.0  0.14920  0.77055  0.30977  1.0000
  H   H725      1.0  0.13311  0.75868  0.33853  1.0000
  H   H726      1.0  0.09047  0.81608  0.25399  1.0000
  H   H727      1.0  0.08789  0.80129  0.28612  1.0000
  H   H728      1.0  0.10495  0.81740  0.27347  1.0000
  H   H729      1.0  0.04517  0.86986  0.07447  1.0000
  C   C437      1.0  0.04037  0.95749  0.00035  1.0000
  N   N25       1.0  0.07354  0.54549  0.46603  1.0000
  H   H730      1.0  0.02070  0.79151  0.99932  1.0000
  H   H731      1.0  0.15472  0.78235  0.16464  1.0000
  H   H732      1.0  0.12346  0.51125  0.23915  1.0000
  H   H733      1.0  0.18219  0.70589  0.00764  1.0000
  H   H734      1.0  0.01698  0.61849  0.14193  1.0000
  H   H735      1.0  0.99288  0.61415  0.99756  1.0000
  H   H736      1.0  0.02188  0.78489  0.05299  1.0000
  C   C438      1.0  0.13213  0.97735  0.17704  1.0000
  H   H737      1.0  0.05405  0.85848  0.11762  1.0000
  C   C439      1.0  0.00524  0.61441  0.99557  1.0000
  H   H738      1.0  0.14859  0.63543  0.00901  1.0000
  H   H739      1.0  0.99511  0.70914  0.17248  1.0000
  H   H740      1.0  0.15663  0.90852  0.34150  1.0000
  H   H741      1.0  0.02774  0.50433  0.20237  1.0000
  C   C440      1.0  0.11276  0.51139  0.23203  1.0000
  C   C441      1.0  0.07449  0.56060  0.44530  1.0000
  C   C442      1.0  0.15240  0.98701  0.09476  1.0000
  H   H742      1.0  0.02844  0.85754  0.46739  1.0000
  C   C443      1.0  0.14170  0.63486  0.99320  1.0000
  H   H743      1.0  0.01293  0.76627  0.03082  1.0000
  H   H744      1.0  0.13990  0.49659  0.42602  1.0000
  H   H745      1.0  0.17945  0.87519  0.29899  1.0000
  H   H746      1.0  0.05585  0.83255  0.12901  1.0000
  C   C444      1.0  0.14851  0.87208  0.21606  1.0000
  H   H747      1.0  0.14706  0.64017  0.31158  1.0000
  H   H748      1.0  0.15016  0.63677  0.19531  1.0000
  C   C445      1.0  0.00974  0.76941  0.09331  1.0000
  C   C446      1.0  0.14113  0.98489  0.05458  1.0000
  H   H749      1.0  0.03813  0.98104  0.99283  1.0000
  H   H750      1.0  0.12935  0.98132  0.15664  1.0000
  H   H751      1.0  0.16333  0.86496  0.29035  1.0000
  C   C447      1.0  0.99985  0.83372  0.04235  1.0000
  H   H752      1.0  0.99666  0.76724  0.01742  1.0000
  H   H753      1.0  0.12469  0.51759  0.18818  1.0000
  H   H754      1.0  0.99334  0.74613  0.07655  1.0000
  C   C448      1.0  0.02270  0.65820  0.12224  1.0000
  C   C449      1.0  0.13786  0.65044  0.98413  1.0000
  C   C450      1.0  0.99183  0.74871  0.05489  1.0000
  H   H755      1.0  0.01615  0.50383  0.17730  1.0000
  H   H756      1.0  0.14015  0.79304  0.16381  1.0000
  H   H757      1.0  0.06275  0.50558  0.43823  1.0000
  H   H758      1.0  0.09657  0.66670  0.98530  1.0000
  C   C451      1.0  0.17817  0.51723  0.39502  1.0000
  C   C452      1.0  0.11672  0.52212  0.20218  1.0000
  H   H759      1.0  0.08269  0.62543  0.11705  1.0000
  C   C453      1.0  0.01169  0.60796  0.15999  1.0000
  C   C454      1.0  0.10689  0.66665  0.99370  1.0000
  Fe  Fe54      1.0  0.99069  0.76157  0.19038  1.0000
  H   H760      1.0  0.09539  0.57650  0.44789  1.0000
  H   H761      1.0  0.15911  0.55176  0.34606  1.0000
  H   H762      1.0  0.12248  0.75062  0.24163  1.0000
  S   S109      1.0  0.17874  0.74226  0.20101  1.0000
  C   C455      1.0  0.05581  0.86374  0.17367  1.0000
  H   H763      1.0  0.03087  0.67723  0.21487  1.0000
  C   C456      1.0  0.07136  0.53086  0.42707  1.0000
  H   H764      1.0  0.05124  0.79195  0.17044  1.0000
  H   H765      1.0  0.15121  0.91512  0.30925  1.0000
  H   H766      1.0  0.08525  0.51865  0.47706  1.0000
  H   H767      1.0  0.16055  0.56611  0.36581  1.0000
  C   C457      1.0  0.13407  0.79456  0.39998  1.0000
  H   H768      1.0  0.17905  0.72003  0.02716  1.0000
  S   S110      1.0  0.99386  0.73820  0.18487  1.0000
  C   C458      1.0  0.01745  0.84792  0.18756  1.0000
  H   H769      1.0  0.10037  0.82388  0.38181  1.0000
  H   H770      1.0  0.10488  0.51545  0.24719  1.0000
  H   H771      1.0  0.08086  0.56104  0.42355  1.0000
  H   H772      1.0  0.17794  0.51001  0.45444  1.0000
  H   H773      1.0  0.16781  0.66833  0.45031  1.0000
  C   C459      1.0  0.06539  0.86631  0.19475  1.0000
  H   H774      1.0  0.01992  0.78571  0.11469  1.0000
  H   H775      1.0  0.07055  0.54070  0.41056  1.0000
  H   H776      1.0  0.08357  0.53038  0.42411  1.0000
  H   H777      1.0  0.04413  0.79858  0.14021  1.0000
  S   S111      1.0  0.09428  0.97669  0.00331  1.0000
  S   S112      1.0  0.15605  0.97164  0.23456  1.0000
  H   H778      1.0  0.03397  0.80811  0.18203  1.0000
  C   C460      1.0  0.13004  0.81023  0.39491  1.0000
  C   C461      1.0  0.00040  0.76565  0.03746  1.0000
  C   C462      1.0  0.03308  0.86572  0.08781  1.0000
  H   H779      1.0  0.03365  0.77798  0.09410  1.0000
  C   C463      1.0  0.17954  0.69642  0.07577  1.0000
  C   C464      1.0  0.06244  0.51597  0.42229  1.0000
  H   H780      1.0  0.01843  0.83497  0.06292  1.0000
  H   H781      1.0  0.02756  0.95354  0.00681  1.0000
  H   H782      1.0  0.13536  0.96706  0.09366  1.0000
  N   N26       1.0  0.04756  0.71883  0.14816  1.0000
  C   C465      1.0  0.06273  0.71981  0.12806  1.0000
  C   C466      1.0  0.03458  0.71703  0.13358  1.0000
  C   C467      1.0  0.04907  0.73401  0.15638  1.0000
  C   C468      1.0  0.04390  0.70590  0.17489  1.0000
  C   C469      1.0  0.04334  0.68942  0.17109  1.0000
  C   C470      1.0  0.07711  0.72170  0.14018  1.0000
  C   C471      1.0  0.03403  0.73648  0.17377  1.0000
  C   C472      1.0  0.03559  0.70770  0.11098  1.0000
  C   C473      1.0  0.02041  0.70414  0.10252  1.0000
  C   C474      1.0  0.04166  0.67782  0.19923  1.0000
  C   C475      1.0  0.09161  0.72252  0.11781  1.0000
  C   C476      1.0  0.03696  0.75241  0.17987  1.0000
  H   H783      1.0  0.06515  0.72967  0.10890  1.0000
  H   H784      1.0  0.06226  0.70936  0.11989  1.0000
  H   H785      1.0  0.02324  0.71179  0.14956  1.0000
  H   H786      1.0  0.03379  0.72862  0.12198  1.0000
  H   H787      1.0  0.05368  0.74398  0.13705  1.0000
  H   H788      1.0  0.05750  0.73523  0.16940  1.0000
  H   H789      1.0  0.05226  0.70852  0.18763  1.0000
  H   H790      1.0  0.03243  0.70506  0.18876  1.0000
  H   H791      1.0  0.05399  0.68912  0.15625  1.0000
  H   H792      1.0  0.03316  0.68526  0.16337  1.0000
  H   H793      1.0  0.07933  0.73254  0.14704  1.0000
  H   H794      1.0  0.07569  0.71169  0.15841  1.0000
  H   H795      1.0  0.02945  0.72761  0.19443  1.0000
  H   H796      1.0  0.02493  0.73589  0.16217  1.0000
  H   H797      1.0  0.04478  0.71457  0.09159  1.0000
  H   H798      1.0  0.03837  0.69656  0.11851  1.0000
  H   H799      1.0  0.01130  0.69569  0.12043  1.0000
  H   H800      1.0  0.01657  0.71488  0.09610  1.0000
  H   H801      1.0  0.02198  0.69888  0.08439  1.0000
  H   H802      1.0  0.10647  0.65444  0.00362  1.0000
  H   H803      1.0  0.05172  0.68116  0.20787  1.0000
  C   C477      1.0  0.01008  0.78221  0.06715  1.0000
  H   H804      1.0  0.09026  0.71181  0.11036  1.0000
  H   H805      1.0  0.09399  0.73274  0.09944  1.0000
  H   H806      1.0  0.10169  0.72359  0.12707  1.0000
  H   H807      1.0  0.04579  0.75362  0.19208  1.0000
  H   H808      1.0  0.04084  0.76184  0.15984  1.0000
  H   H809      1.0  0.02609  0.75375  0.19266  1.0000
  N   N27       1.0  0.10430  0.53224  0.16198  1.0000
  C   C478      1.0  0.11167  0.54898  0.15954  1.0000
  C   C479      1.0  0.10190  0.52292  0.19205  1.0000
  C   C480      1.0  0.11467  0.52645  0.14130  1.0000
  C   C481      1.0  0.08882  0.53046  0.15519  1.0000
  C   C482      1.0  0.11413  0.56055  0.13037  1.0000
  C   C483      1.0  0.10976  0.50876  0.14369  1.0000
  H   H810      1.0  0.05863  0.85986  0.21666  1.0000
  H   H811      1.0  0.00590  0.60338  0.00930  1.0000
  C   C484      1.0  0.11919  0.57732  0.13189  1.0000
  H   H812      1.0  0.09676  0.54668  0.44303  1.0000
  H   H813      1.0  0.12330  0.55021  0.16351  1.0000
  H   H814      1.0  0.10491  0.55310  0.17636  1.0000
  C   C485      1.0  0.16158  0.89404  0.28172  1.0000
  C   C486      1.0  0.99977  0.79311  0.02849  1.0000
  H   H815      1.0  0.12678  0.52943  0.14301  1.0000
  H   H816      1.0  0.11525  0.53256  0.11918  1.0000
  H   H817      1.0  0.09021  0.53444  0.13197  1.0000
  H   H818      1.0  0.12329  0.55855  0.11424  1.0000
  H   H819      1.0  0.10349  0.55939  0.12286  1.0000
  H   H820      1.0  0.02352  0.82624  0.19376  1.0000
  H   H821      1.0  0.06279  0.52108  0.47186  1.0000
  C   C487      1.0  0.10563  0.67514  0.01701  1.0000
  H   H822      1.0  0.04749  0.63236  0.24717  1.0000
  H   H823      1.0  0.16691  0.94234  0.15203  1.0000
  H   H824      1.0  0.17437  0.54643  0.38127  1.0000
  H   H825      1.0  0.15854  0.69145  0.10929  1.0000
  H   H826      1.0  0.11009  0.58002  0.14713  1.0000
  H   H827      1.0  0.13010  0.57929  0.13858  1.0000
  H   H828      1.0  0.12113  0.58540  0.11073  1.0000
  C   C488      1.0  0.08282  0.57561  0.45156  1.0000
  H   H829      1.0  0.09453  0.66964  0.03339  1.0000
  H   H830      1.0  0.01890  0.84745  0.12357  1.0000
  H   H831      1.0  0.01830  0.82420  0.24487  1.0000
  H   H832      1.0  0.12289  0.53376  0.20290  1.0000
  H   H833      1.0  0.02645  0.64815  0.16238  1.0000
  H   H834      1.0  0.05417  0.54093  0.17492  1.0000
  C   C489      1.0  0.07770  0.53885  0.16988  1.0000
  H   H835      1.0  0.08528  0.59035  0.40952  1.0000
  H   H836      1.0  0.11333  0.52907  0.45473  1.0000
  C   C490      1.0  0.06448  0.53252  0.45690  1.0000
  C   C491      1.0  0.04193  0.85471  0.13103  1.0000
  C   C492      1.0  0.16607  0.89917  0.30721  1.0000
  H   H837      1.0  0.14334  0.79469  0.41125  1.0000
  H   H838      1.0  0.01621  0.83038  0.16396  1.0000
  S   S113      1.0  0.99196  0.67894  0.07501  1.0000
  H   H839      1.0  0.15648  0.79948  0.17744  1.0000
  H   H840      1.0  0.14707  0.51696  0.44790  1.0000
  H   H841      1.0  0.02273  0.67014  0.08024  1.0000
  H   H842      1.0  0.07621  0.53575  0.19303  1.0000
  C   C493      1.0  0.13778  0.49732  0.01585  1.0000
  H   H843      1.0  0.03590  0.82354  0.13476  1.0000
  H   H844      1.0  0.09470  0.98743  0.06037  1.0000
  H   H845      1.0  0.05638  0.52190  0.17339  1.0000
  C   C494      1.0  0.14813  0.78915  0.17610  1.0000
  S   S114      1.0  0.14091  0.51585  0.99292  1.0000
  C   C495      1.0  0.15457  0.52595  0.39227  1.0000
  C   C496      1.0  0.09601  0.86425  0.47185  1.0000
  H   H846      1.0  0.13092  0.62443  0.33313  1.0000
  H   H847      1.0  0.03404  0.84217  0.10126  1.0000
  H   H848      1.0  0.99654  0.80229  0.03822  1.0000
  H   H849      1.0  0.99093  0.72493  0.05334  1.0000
  C   C497      1.0  0.15182  0.49845  0.41268  1.0000
  H   H850      1.0  0.06322  0.84428  0.16444  1.0000
  C   C498      1.0  0.02183  0.77518  0.10824  1.0000
  H   H851      1.0  0.02875  0.56292  0.22014  1.0000
  H   H852      1.0  0.08216  0.55164  0.16178  1.0000
  C   C499      1.0  0.11115  0.87350  0.46434  1.0000
  H   H853      1.0  0.02988  0.87517  0.09667  1.0000
  H   H854      1.0  0.02903  0.83990  0.45684  1.0000
  H   H855      1.0  0.15820  0.49235  0.99368  1.0000
  N   N28       1.0  0.12181  0.94828  0.17827  1.0000
  C   C500      1.0  0.11450  0.93278  0.19975  1.0000
  C   C501      1.0  0.13830  0.94903  0.16388  1.0000
  C   C502      1.0  0.12212  0.96076  0.19403  1.0000
  C   C503      1.0  0.11260  0.95153  0.15689  1.0000
  C   C504      1.0  0.11029  0.93986  0.13883  1.0000
  C   C505      1.0  0.09790  0.93049  0.21786  1.0000
  H   H856      1.0  0.08759  0.73692  0.26752  1.0000
  C   C506      1.0  0.14205  0.93377  0.15891  1.0000
  C   C507      1.0  0.15865  0.93694  0.14126  1.0000
  C   C508      1.0  0.09195  0.91422  0.23829  1.0000
  N   N29       1.0  0.04048  0.84156  0.15642  1.0000
  H   H857      1.0  0.12180  0.93084  0.21472  1.0000
  H   H858      1.0  0.11412  0.92305  0.18965  1.0000
  H   H859      1.0  0.14220  0.95790  0.14318  1.0000
  H   H860      1.0  0.14621  0.95294  0.17663  1.0000
  H   H861      1.0  0.12645  0.95746  0.21315  1.0000
  H   H862      1.0  0.11024  0.96190  0.20202  1.0000
  H   H863      1.0  0.10106  0.95260  0.16740  1.0000
  H   H864      1.0  0.11820  0.96300  0.14143  1.0000
  H   H865      1.0  0.10517  0.92779  0.15217  1.0000
  H   H866      1.0  0.12148  0.94058  0.12430  1.0000
  H   H867      1.0  0.09757  0.93890  0.23094  1.0000
  H   H868      1.0  0.08983  0.93183  0.20427  1.0000
  C   C509      1.0  0.03122  0.85126  0.11154  1.0000
  Fe  Fe55      1.0  0.98663  0.65594  0.10703  1.0000
  H   H869      1.0  0.14089  0.92545  0.17941  1.0000
  H   H870      1.0  0.13429  0.92787  0.14806  1.0000
  N   N30       1.0  0.17334  0.88838  0.26350  1.0000
  S   S115      1.0  0.00651  0.81377  0.11833  1.0000
  H   H871      1.0  0.01262  0.75923  0.08679  1.0000
  H   H872      1.0  0.09155  0.90517  0.22649  1.0000
  H   H873      1.0  0.09952  0.91240  0.25279  1.0000
  H   H874      1.0  0.08011  0.91281  0.25129  1.0000
  C   C510      1.0  0.04459  0.82830  0.14539  1.0000
  H   H875      1.0  0.15723  0.86106  0.24931  1.0000
  H   H876      1.0  0.16434  0.89668  0.22803  1.0000
  H   H877      1.0  0.14774  0.77525  0.21639  1.0000
  H   H878      1.0  0.04538  0.86795  0.17946  1.0000
  H   H879      1.0  0.00682  0.84194  0.02273  1.0000
  H   H880      1.0  0.16716  0.94962  0.20574  1.0000
  H   H881      1.0  0.18272  0.72768  0.42047  1.0000
  C   C511      1.0  0.11275  0.82522  0.47627  1.0000
  C   C512      1.0  0.99754  0.81892  0.09072  1.0000
  H   H882      1.0  0.00922  0.79290  0.07427  1.0000
  C   C513      1.0  0.15018  0.49455  0.38452  1.0000
  H   H883      1.0  0.11518  0.67447  0.02743  1.0000
  Fe  Fe56      1.0  0.11963  0.97837  0.99884  1.0000
  H   H884      1.0  0.16118  0.92585  0.13853  1.0000
  C   C514      1.0  0.12057  0.50430  0.12094  1.0000
  C   C515      1.0  0.15396  0.87209  0.24296  1.0000
  H   H885      1.0  0.17596  0.69796  0.11952  1.0000
  H   H886      1.0  0.05263  0.53403  0.45746  1.0000
  H   H887      1.0  0.15052  0.88493  0.29036  1.0000
  C   C516      1.0  0.08981  0.54427  0.46527  1.0000
  C   C517      1.0  0.08094  0.59009  0.43207  1.0000
  H   H888      1.0  0.06777  0.51494  0.40097  1.0000
  H   H889      1.0  0.04171  0.94339  0.04012  1.0000
  H   H890      1.0  0.15834  0.54652  0.40909  1.0000
  H   H891      1.0  0.06279  0.87113  0.15243  1.0000
  H   H892      1.0  0.09795  0.50534  0.14096  1.0000
  C   C518      1.0  0.16784  0.88622  0.23778  1.0000
  H   H893      1.0  0.15318  0.98211  0.11584  1.0000
  H   H894      1.0  0.14406  0.87216  0.25987  1.0000
  H   H895      1.0  0.13850  0.86197  0.22033  1.0000
  H   H896      1.0  0.14283  0.55126  0.37421  1.0000
  C   C519      1.0  0.06569  0.49309  0.21322  1.0000
  H   H897      1.0  0.99853  0.83097  0.22035  1.0000
  H   H898      1.0  0.03970  0.86513  0.13746  1.0000
  H   H899      1.0  0.17326  0.68866  0.36994  1.0000
  H   H900      1.0  0.98821  0.59451  0.18278  1.0000
  N   N31       1.0  0.11327  0.61364  0.26681  1.0000
  C   C520      1.0  0.10203  0.62360  0.27027  1.0000
  C   C521      1.0  0.12345  0.61863  0.23672  1.0000
  C   C522      1.0  0.10395  0.59716  0.27197  1.0000
  C   C523      1.0  0.12287  0.61379  0.28796  1.0000
  C   C524      1.0  0.13232  0.62990  0.28790  1.0000
  C   C525      1.0  0.09064  0.61978  0.29991  1.0000
  C   C526      1.0  0.11338  0.58497  0.26860  1.0000
  C   C527      1.0  0.12738  0.63606  0.22053  1.0000
  C   C528      1.0  0.13926  0.63954  0.19213  1.0000
  C   C529      1.0  0.08056  0.63127  0.30056  1.0000
  C   C530      1.0  0.10301  0.56965  0.26843  1.0000
  H   H901      1.0  0.09501  0.62282  0.25475  1.0000
  H   H902      1.0  0.10808  0.63607  0.26508  1.0000
  H   H903      1.0  0.13453  0.61526  0.23617  1.0000
  H   H904      1.0  0.11789  0.61239  0.22299  1.0000
  H   H905      1.0  0.09611  0.59678  0.25761  1.0000
  H   H906      1.0  0.09634  0.59274  0.29377  1.0000
  H   H907      1.0  0.11553  0.60792  0.30980  1.0000
  H   H908      1.0  0.13139  0.60680  0.28434  1.0000
  H   H909      1.0  0.12503  0.63814  0.29000  1.0000
  H   H910      1.0  0.14172  0.63477  0.26809  1.0000
  H   H911      1.0  0.08269  0.60805  0.30543  1.0000
  H   H912      1.0  0.09693  0.62048  0.31652  1.0000
  H   H913      1.0  0.11864  0.58254  0.28667  1.0000
  H   H914      1.0  0.12270  0.58891  0.24866  1.0000
  H   H915      1.0  0.11682  0.63912  0.21594  1.0000
  H   H916      1.0  0.13204  0.64377  0.23280  1.0000
  H   H917      1.0  0.14195  0.65208  0.18106  1.0000
  H   H918      1.0  0.99060  0.61533  0.17235  1.0000
  H   H919      1.0  0.13465  0.63275  0.17833  1.0000
  H   H920      1.0  0.07381  0.63084  0.28450  1.0000
  H   H921      1.0  0.07237  0.62824  0.32179  1.0000
  H   H922      1.0  0.08779  0.64330  0.29621  1.0000
  H   H923      1.0  0.10981  0.56087  0.26739  1.0000
  H   H924      1.0  0.09338  0.56513  0.28797  1.0000
  H   H925      1.0  0.09815  0.57124  0.24973  1.0000
  N   N32       1.0  0.03417  0.61083  0.18530  1.0000
  C   C531      1.0  0.04412  0.61732  0.15526  1.0000
  C   C532      1.0  0.01740  0.61038  0.18629  1.0000
  C   C533      1.0  0.03954  0.62171  0.20232  1.0000
  C   C534      1.0  0.03586  0.59499  0.19869  1.0000
  C   C535      1.0  0.03216  0.58229  0.18317  1.0000
  C   C536      1.0  0.06169  0.61889  0.15098  1.0000
  C   C537      1.0  0.03002  0.61779  0.23362  1.0000
  H   H926      1.0  0.06359  0.80746  0.14079  1.0000
  H   H927      1.0  0.16504  0.71257  0.43549  1.0000
  C   C538      1.0  0.03556  0.56725  0.19764  1.0000
  C   C539      1.0  0.07017  0.62452  0.11955  1.0000
  C   C540      1.0  0.03512  0.63071  0.24739  1.0000
  H   H928      1.0  0.04265  0.62903  0.14623  1.0000
  H   H929      1.0  0.04040  0.61020  0.14129  1.0000
  H   H930      1.0  0.00963  0.60131  0.20523  1.0000
  H   H931      1.0  0.01485  0.62153  0.18894  1.0000
  H   H932      1.0  0.03982  0.63386  0.19167  1.0000
  H   H933      1.0  0.05155  0.62190  0.20338  1.0000
  H   H934      1.0  0.04768  0.59579  0.20167  1.0000
  H   H935      1.0  0.02807  0.59030  0.22043  1.0000
  H   H936      1.0  0.03917  0.58590  0.16090  1.0000
  H   H937      1.0  0.01972  0.57952  0.18378  1.0000
  H   H938      1.0  0.06679  0.62752  0.16131  1.0000
  H   H939      1.0  0.06402  0.60759  0.15957  1.0000
  H   H940      1.0  0.03175  0.60698  0.24619  1.0000
  H   H941      1.0  0.01750  0.61624  0.23543  1.0000
  H   H942      1.0  0.13257  0.50700  0.12316  1.0000
  Fe  Fe57      1.0  0.99498  0.79574  0.16061  1.0000
  H   H943      1.0  0.04666  0.85472  0.44982  1.0000
  C   C541      1.0  0.02422  0.83580  0.17520  1.0000
  C   C542      1.0  0.15759  0.68278  0.00854  1.0000
  H   H944      1.0  0.03246  0.55816  0.18665  1.0000
  H   H945      1.0  0.04803  0.56918  0.19679  1.0000
  H   H946      1.0  0.09475  0.52763  0.20725  1.0000
  H   H947      1.0  0.04117  0.66611  0.19582  1.0000
  H   H948      1.0  0.08261  0.51800  0.16109  1.0000
  H   H949      1.0  0.14738  0.62043  0.31176  1.0000
  C   C543      1.0  0.13987  0.62860  0.31259  1.0000
  C   C544      1.0  0.09868  0.73840  0.25190  1.0000
  H   H950      1.0  0.09516  0.51084  0.19533  1.0000
  S   S116      1.0  0.98330  0.76511  0.23384  1.0000
  H   H951      1.0  0.13479  0.81587  0.43224  1.0000
  H   H952      1.0  0.07111  0.80678  0.42977  1.0000
  H   H953      1.0  0.11000  0.50172  0.16454  1.0000
  C   C545      1.0  0.17857  0.66495  0.44800  1.0000
  C   C546      1.0  0.15942  0.51762  0.43851  1.0000
  H   H954      1.0  0.13134  0.76886  0.20272  1.0000
  C   C547      1.0  0.13915  0.77901  0.20568  1.0000
  H   H955      1.0  0.14188  0.52352  0.40152  1.0000
  H   H956      1.0  0.01065  0.62421  0.00325  1.0000
  C   C548      1.0  0.14229  0.97859  0.08213  1.0000
  C   C549      1.0  0.07738  0.81443  0.40836  1.0000
  H   H957      1.0  0.09594  0.83409  0.42693  1.0000
  S   S117      1.0  0.07198  0.49235  0.26486  1.0000
  C   C550      1.0  0.15325  0.90493  0.32331  1.0000
  H   H958      1.0  0.14499  0.86688  0.35171  1.0000
  C   C551      1.0  0.03529  0.84887  0.46529  1.0000
  C   C552      1.0  0.09958  0.94377  0.12014  1.0000
  C   C553      1.0  0.09481  0.81655  0.40365  1.0000
  H   H959      1.0  0.11890  0.85020  0.39311  1.0000
  H   H960      1.0  0.16275  0.86236  0.35624  1.0000
  S   S118      1.0  0.01091  0.78236  0.17679  1.0000
  C   C554      1.0  0.18116  0.70806  0.40173  1.0000
  S   S119      1.0  0.98749  0.80179  0.20181  1.0000
  C   C555      1.0  0.04557  0.97459  0.98208  1.0000
  C   C556      1.0  0.01603  0.80040  0.00785  1.0000
  C   C557      1.0  0.04600  0.95567  0.02729  1.0000
  H   H961      1.0  0.18044  0.49447  0.38883  1.0000
  H   H962      1.0  0.07451  0.82585  0.40601  1.0000
  H   H963      1.0  0.17549  0.69542  0.40920  1.0000
  H   H964      1.0  0.08795  0.94300  0.13329  1.0000
  H   H965      1.0  0.15604  0.52453  0.37041  1.0000
  C   C558      1.0  0.10069  0.82382  0.42595  1.0000
  C   C559      1.0  0.16159  0.54344  0.38876  1.0000
  H   H966      1.0  0.15789  0.87122  0.19889  1.0000
  H   H967      1.0  0.14923  0.84914  0.34522  1.0000
  C   C560      1.0  0.12519  0.84089  0.39447  1.0000
  C   C561      1.0  0.12090  0.83545  0.44571  1.0000
  C   C562      1.0  0.15030  0.85731  0.35876  1.0000
  H   H968      1.0  0.13265  0.98612  0.21426  1.0000
  H   H969      1.0  0.12395  0.83638  0.37595  1.0000
  H   H970      1.0  0.09494  0.81502  0.44647  1.0000
  H   H971      1.0  0.06862  0.87885  0.19388  1.0000
  H   H972      1.0  0.09693  0.80485  0.40562  1.0000
  N   N33       1.0  0.11795  0.82840  0.42191  1.0000
  H   H973      1.0  0.09738  0.74230  0.23012  1.0000
  H   H974      1.0  0.16597  0.52959  0.43685  1.0000
  C   C563      1.0  0.14251  0.84890  0.38982  1.0000
  H   H975      1.0  0.13346  0.83852  0.44441  1.0000
  H   H976      1.0  0.10148  0.72695  0.25423  1.0000
  C   C564      1.0  0.00640  0.82973  0.06519  1.0000
  C   C565      1.0  0.12457  0.81438  0.42329  1.0000
  H   H977      1.0  0.17302  0.69761  0.05951  1.0000
  H   H978      1.0  0.99584  0.85027  0.21160  1.0000
  H   H979      1.0  0.11605  0.80392  0.43836  1.0000
  H   H980      1.0  0.14057  0.81906  0.38114  1.0000
  H   H981      1.0  0.12124  0.80969  0.38275  1.0000
  H   H982      1.0  0.14897  0.84040  0.39695  1.0000
  H   H983      1.0  0.16877  0.71164  0.09706  1.0000
  H   H984      1.0  0.02094  0.76599  0.12752  1.0000
  H   H985      1.0  0.18032  0.52162  0.37164  1.0000
  H   H986      1.0  0.00718  0.49547  0.21453  1.0000
  H   H987      1.0  0.06108  0.49337  0.17257  1.0000
  C   C566      1.0  0.17771  0.71490  0.42701  1.0000
  C   C567      1.0  0.15560  0.55368  0.36737  1.0000
  H   H988      1.0  0.10605  0.68753  0.00825  1.0000
  H   H989      1.0  0.99168  0.79090  0.01509  1.0000
  H   H990      1.0  0.15164  0.49092  0.09356  1.0000
  H   H991      1.0  0.00995  0.73790  0.03951  1.0000
  H   H992      1.0  0.12037  0.51057  0.09944  1.0000
  H   H993      1.0  0.99362  0.83827  0.18762  1.0000
  C   C568      1.0  0.17021  0.69962  0.10200  1.0000
  C   C569      1.0  0.17489  0.87331  0.28072  1.0000
  H   H994      1.0  0.99053  0.60444  0.14632  1.0000
  C   C570      1.0  0.01777  0.49727  0.19741  1.0000
  H   H995      1.0  0.02798  0.90203  0.98037  1.0000
  H   H996      1.0  0.04172  0.96323  0.04012  1.0000
  H   H997      1.0  0.98386  0.69535  0.14066  1.0000
  H   H998      1.0  0.09588  0.55347  0.47358  1.0000
  H   H999      1.0  0.01089  0.82233  0.99060  1.0000
  Fe  Fe58      1.0  0.13610  0.58017  0.46613  1.0000
  H   H1000     1.0  0.05746  0.97952  0.98356  1.0000
  H   H1001     1.0  0.17223  0.84155  0.28668  1.0000
  C   C571      1.0  0.17723  0.66707  0.36383  1.0000
  C   C572      1.0  0.12463  0.49163  0.03883  1.0000
  C   C573      1.0  0.17905  0.65039  0.44285  1.0000
  H   H1002     1.0  0.11670  0.49162  0.12321  1.0000
  S   S120      1.0  0.98805  0.67225  0.00263  1.0000
  H   H1003     1.0  0.18002  0.68410  0.08159  1.0000
  H   H1004     1.0  0.99575  0.73857  0.01907  1.0000
  H   H1005     1.0  0.16800  0.88941  0.32232  1.0000
  H   H1006     1.0  0.18277  0.49689  0.42235  1.0000
  H   H1007     1.0  0.17560  0.66160  0.38659  1.0000
  H   H1008     1.0  0.18138  0.92185  0.25170  1.0000
  H   H1009     1.0  0.17582  0.71367  0.38578  1.0000
  H   H1010     1.0  0.07818  0.57588  0.47365  1.0000
  H   H1011     1.0  0.04476  0.94969  0.98840  1.0000
  H   H1012     1.0  0.17670  0.90882  0.30022  1.0000
  C   C574      1.0  0.12960  0.98924  0.19379  1.0000
  H   H1013     1.0  0.18256  0.70960  0.44417  1.0000
  H   H1014     1.0  0.17459  0.72732  0.98001  1.0000
  C   C575      1.0  0.18248  0.68472  0.35765  1.0000
  C   C576      1.0  0.00011  0.48963  0.27994  1.0000
  H   H1015     1.0  0.11425  0.81326  0.47897  1.0000
  H   H1016     1.0  0.16374  0.52196  0.48934  1.0000
  Fe  Fe59      1.0  0.16098  0.52336  0.95395  1.0000
  H   H1017     1.0  0.12407  0.59539  0.56190  1.0000
  H   H1018     1.0  0.12981  0.96185  0.83484  1.0000
  C   C577      1.0  0.06594  0.54042  0.74397  1.0000
  S   S121      1.0  0.15368  0.75155  0.71204  1.0000
  S   S122      1.0  0.10094  0.98683  0.93458  1.0000
  Fe  Fe60      1.0  0.01618  0.52722  0.65798  1.0000
  S   S123      1.0  0.03639  0.52421  0.62725  1.0000
  C   C578      1.0  0.99649  0.59065  0.72779  1.0000
  Fe  Fe61      1.0  0.03779  0.55118  0.67885  1.0000
  S   S124      1.0  0.05918  0.54941  0.64993  1.0000
  S   S125      1.0  0.03778  0.56684  0.70923  1.0000
  Fe  Fe62      1.0  0.04565  0.55013  0.61731  1.0000
  S   S126      1.0  0.05666  0.56654  0.57364  1.0000
  Fe  Fe63      1.0  0.04820  0.52377  0.66254  1.0000
  Fe  Fe64      1.0  0.17243  0.97708  0.74288  1.0000
  S   S127      1.0  0.02458  0.55346  0.64542  1.0000
  S   S128      1.0  0.02766  0.52525  0.69417  1.0000
  C   C579      1.0  0.06387  0.49934  0.70412  1.0000
  H   H1019     1.0  0.02620  0.60588  0.81659  1.0000
  C   C580      1.0  0.11276  0.66289  0.93419  1.0000
  H   H1020     1.0  0.11752  0.61040  0.50352  1.0000
  Fe  Fe65      1.0  0.16947  0.52238  0.89228  1.0000
  S   S129      1.0  0.16012  0.51553  0.85648  1.0000
  C   C581      1.0  0.05261  0.49981  0.72723  1.0000
  S   S130      1.0  0.15807  0.53789  0.91404  1.0000
  Fe  Fe66      1.0  0.09868  0.62990  0.75315  1.0000
  S   S131      1.0  0.08880  0.62872  0.79905  1.0000
  S   S132      1.0  0.09601  0.61061  0.73005  1.0000
  Fe  Fe67      1.0  0.11873  0.66311  0.74151  1.0000
  S   S133      1.0  0.11013  0.66470  0.78576  1.0000
  S   S134      1.0  0.13854  0.68103  0.70852  1.0000
  Fe  Fe68      1.0  0.11287  0.64063  0.79950  1.0000
  S   S135      1.0  0.12260  0.63402  0.83754  1.0000
  Fe  Fe69      1.0  0.08680  0.65299  0.78210  1.0000
  S   S136      1.0  0.06728  0.66199  0.80275  1.0000
  S   S137      1.0  0.12302  0.63960  0.75537  1.0000
  S   S138      1.0  0.09514  0.65357  0.73615  1.0000
  H   H1021     1.0  0.06497  0.62851  0.88891  1.0000
  C   C582      1.0  0.11336  0.96997  0.74653  1.0000
  H   H1022     1.0  0.10831  0.62122  0.54337  1.0000
  H   H1023     1.0  0.02477  0.68257  0.71109  1.0000
  H   H1024     1.0  0.13497  0.62887  0.61370  1.0000
  S   S139      1.0  0.17463  0.66112  0.93041  1.0000
  H   H1025     1.0  0.07782  0.88878  0.54123  1.0000
  Fe  Fe70      1.0  0.11493  0.87389  0.53892  1.0000
  S   S140      1.0  0.09881  0.85245  0.57051  1.0000
  Fe  Fe71      1.0  0.12433  0.88820  0.58682  1.0000
  S   S141      1.0  0.10852  0.86778  0.62123  1.0000
  S   S142      1.0  0.14015  0.91000  0.59249  1.0000
  Fe  Fe72      1.0  0.11738  0.85312  0.59391  1.0000
  S   S143      1.0  0.12114  0.83044  0.61640  1.0000
  Fe  Fe73      1.0  0.09109  0.86855  0.59549  1.0000
  S   S144      1.0  0.06594  0.86701  0.61607  1.0000
  S   S145      1.0  0.13427  0.87331  0.56079  1.0000
  S   S146      1.0  0.10615  0.89025  0.56257  1.0000
  S   S147      1.0  0.00968  0.80702  0.65134  1.0000
  H   H1026     1.0  0.02714  0.95582  0.96056  1.0000
  H   H1027     1.0  0.00131  0.83260  0.57331  1.0000
  H   H1028     1.0  0.09748  0.54708  0.61640  1.0000
  H   H1029     1.0  0.00490  0.64849  0.90268  1.0000
  H   H1030     1.0  0.15337  0.49345  0.76030  1.0000
  H   H1031     1.0  0.05304  0.95798  0.93879  1.0000
  C   C583      1.0  0.14035  0.70142  0.79733  1.0000
  H   H1032     1.0  0.15753  0.62853  0.82320  1.0000
  H   H1033     1.0  0.08730  0.55113  0.69042  1.0000
  H   H1034     1.0  0.06807  0.61637  0.61590  1.0000
  H   H1035     1.0  0.12742  0.52133  0.90379  1.0000
  H   H1036     1.0  0.10918  0.67378  0.92739  1.0000
  Fe  Fe74      1.0  0.00868  0.87740  0.93181  1.0000
  S   S148      1.0  0.03122  0.89722  0.92257  1.0000
  S   S149      1.0  0.00818  0.85171  0.94115  1.0000
  C   C584      1.0  0.06243  0.93017  0.96065  1.0000
  C   C585      1.0  0.06670  0.93001  0.93218  1.0000
  C   C586      1.0  0.05704  0.91996  0.92111  1.0000
  C   C587      1.0  0.04293  0.90969  0.93819  1.0000
  H   H1037     1.0  0.04279  0.64299  0.91973  1.0000
  H   H1038     1.0  0.15741  0.87598  0.59752  1.0000
  H   H1039     1.0  0.07757  0.93749  0.91868  1.0000
  H   H1040     1.0  0.06062  0.92004  0.89909  1.0000
  C   C588      1.0  0.05756  0.52229  0.79108  1.0000
  C   C589      1.0  0.04640  0.85346  0.50613  1.0000
  H   H1041     1.0  0.10909  0.59699  0.63215  1.0000
  H   H1042     1.0  0.03606  0.83614  0.57846  1.0000
  C   C590      1.0  0.04850  0.53187  0.54545  1.0000
  H   H1043     1.0  0.99107  0.69133  0.86737  1.0000
  H   H1044     1.0  0.07111  0.86153  0.53557  1.0000
  H   H1045     1.0  0.06929  0.80935  0.54608  1.0000
  H   H1046     1.0  0.09068  0.57253  0.59597  1.0000
  H   H1047     1.0  0.12112  0.85979  0.67560  1.0000
  H   H1048     1.0  0.00763  0.60609  0.95838  1.0000
  C   C591      1.0  0.05072  0.84979  0.62860  1.0000
  C   C592      1.0  0.03567  0.85079  0.63975  1.0000
  C   C593      1.0  0.02312  0.83752  0.64871  1.0000
  C   C594      1.0  0.02546  0.82310  0.64630  1.0000
  C   C595      1.0  0.04056  0.82205  0.63558  1.0000
  C   C596      1.0  0.05316  0.83528  0.62715  1.0000
  H   H1049     1.0  0.03366  0.86197  0.64091  1.0000
  H   H1050     1.0  0.01152  0.83860  0.65603  1.0000
  H   H1051     1.0  0.04248  0.81099  0.63334  1.0000
  H   H1052     1.0  0.06473  0.83429  0.61916  1.0000
  C   C597      1.0  0.14672  0.91732  0.61969  1.0000
  C   C598      1.0  0.14300  0.90847  0.64784  1.0000
  C   C599      1.0  0.14908  0.91460  0.66817  1.0000
  C   C600      1.0  0.15863  0.92982  0.66098  1.0000
  C   C601      1.0  0.16206  0.93881  0.63299  1.0000
  C   C602      1.0  0.15625  0.93255  0.61254  1.0000
  H   H1053     1.0  0.13549  0.89688  0.65391  1.0000
  H   H1054     1.0  0.14627  0.90750  0.68971  1.0000
  H   H1055     1.0  0.15047  0.74624  0.63160  1.0000
  H   H1056     1.0  0.15921  0.93957  0.59091  1.0000
  C   C603      1.0  0.13918  0.64668  0.84080  1.0000
  C   C604      1.0  0.14413  0.64330  0.86568  1.0000
  C   C605      1.0  0.15767  0.65273  0.86844  1.0000
  C   C606      1.0  0.16644  0.66562  0.84625  1.0000
  C   C607      1.0  0.16152  0.66893  0.82133  1.0000
  C   C608      1.0  0.14794  0.65955  0.81863  1.0000
  H   H1057     1.0  0.13754  0.63328  0.88281  1.0000
  H   H1058     1.0  0.16143  0.64985  0.88754  1.0000
  H   H1059     1.0  0.16833  0.67871  0.80387  1.0000
  H   H1060     1.0  0.14439  0.66214  0.79917  1.0000
  C   C609      1.0  0.04856  0.65622  0.79861  1.0000
  C   C610      1.0  0.04536  0.64769  0.77942  1.0000
  C   C611      1.0  0.03023  0.64372  0.77639  1.0000
  C   C612      1.0  0.01824  0.64789  0.79306  1.0000
  C   C613      1.0  0.02152  0.65641  0.81219  1.0000
  C   C614      1.0  0.03663  0.66063  0.81479  1.0000
  H   H1061     1.0  0.05457  0.64442  0.76660  1.0000
  H   H1062     1.0  0.02787  0.63747  0.76101  1.0000
  H   H1063     1.0  0.01251  0.66004  0.82456  1.0000
  H   H1064     1.0  0.03917  0.66751  0.82917  1.0000
  H   H1065     1.0  0.12922  0.84790  0.65529  1.0000
  C   C615      1.0  0.00871  0.59540  0.76510  1.0000
  C   C616      1.0  0.06508  0.97863  0.90431  1.0000
  H   H1066     1.0  0.02590  0.83525  0.50840  1.0000
  C   C617      1.0  0.04724  0.50109  0.83717  1.0000
  C   C618      1.0  0.14602  0.86745  0.65901  1.0000
  C   C619      1.0  0.01355  0.61610  0.96485  1.0000
  Fe  Fe75      1.0  0.12574  0.98714  0.93393  1.0000
  H   H1067     1.0  0.17027  0.94983  0.83619  1.0000
  H   H1068     1.0  0.13866  0.50742  0.82427  1.0000
  H   H1069     1.0  0.08088  0.97558  0.86834  1.0000
  C   C620      1.0  0.07478  0.56528  0.55518  1.0000
  C   C621      1.0  0.08152  0.55362  0.56596  1.0000
  C   C622      1.0  0.09616  0.55313  0.55125  1.0000
  H   H1070     1.0  0.16940  0.95050  0.62694  1.0000
  H   H1071     1.0  0.06226  0.69402  0.80678  1.0000
  S   S150      1.0  0.16610  0.93673  0.68773  1.0000
  H   H1072     1.0  0.07552  0.54508  0.58583  1.0000
  H   H1073     1.0  0.10140  0.54420  0.55992  1.0000
  H   H1074     1.0  0.02018  0.75708  0.72168  1.0000
  H   H1075     1.0  0.00667  0.77714  0.80464  1.0000
  H   H1076     1.0  0.10333  0.58428  0.49482  1.0000
  H   H1077     1.0  0.12258  0.57693  0.60912  1.0000
  H   H1078     1.0  0.99142  0.80428  0.86252  1.0000
  C   C623      1.0  0.14744  0.49755  0.85882  1.0000
  C   C624      1.0  0.08381  0.53837  0.69985  1.0000
  C   C625      1.0  0.05409  0.57981  0.71313  1.0000
  C   C626      1.0  0.05183  0.58878  0.73258  1.0000
  C   C627      1.0  0.06446  0.59866  0.73740  1.0000
  C   C628      1.0  0.07956  0.59956  0.72296  1.0000
  C   C629      1.0  0.08180  0.59066  0.70336  1.0000
  C   C630      1.0  0.06916  0.58093  0.69832  1.0000
  H   H1079     1.0  0.04026  0.58795  0.74426  1.0000
  H   H1080     1.0  0.06255  0.60534  0.75266  1.0000
  H   H1081     1.0  0.09343  0.59119  0.69221  1.0000
  H   H1082     1.0  0.07111  0.57405  0.68342  1.0000
  H   H1083     1.0  0.04066  0.75849  0.71493  1.0000
  H   H1084     1.0  0.00293  0.85739  0.69603  1.0000
  C   C631      1.0  0.15579  0.74817  0.60866  1.0000
  C   C632      1.0  0.18039  0.69973  0.56728  1.0000
  H   H1085     1.0  0.06599  0.71487  0.79594  1.0000
  C   C633      1.0  0.14946  0.73198  0.71089  1.0000
  C   C634      1.0  0.13490  0.72204  0.72579  1.0000
  C   C635      1.0  0.13143  0.70628  0.72572  1.0000
  C   C636      1.0  0.14257  0.70039  0.71092  1.0000
  C   C637      1.0  0.15720  0.71023  0.69670  1.0000
  C   C638      1.0  0.16060  0.72603  0.69626  1.0000
  H   H1086     1.0  0.12627  0.72657  0.73727  1.0000
  H   H1087     1.0  0.12010  0.69876  0.73681  1.0000
  H   H1088     1.0  0.16593  0.70550  0.68627  1.0000
  H   H1089     1.0  0.17189  0.73356  0.68494  1.0000
  C   C639      1.0  0.13986  0.82770  0.61383  1.0000
  C   C640      1.0  0.15269  0.83787  0.59334  1.0000
  C   C641      1.0  0.16738  0.83504  0.59139  1.0000
  C   C642      1.0  0.16937  0.82223  0.61021  1.0000
  C   C643      1.0  0.15657  0.81216  0.63088  1.0000
  C   C644      1.0  0.14185  0.81485  0.63255  1.0000
  H   H1090     1.0  0.15125  0.84771  0.57866  1.0000
  H   H1091     1.0  0.08329  0.59569  0.57625  1.0000
  H   H1092     1.0  0.15799  0.80224  0.64544  1.0000
  H   H1093     1.0  0.13196  0.80692  0.64839  1.0000
  H   H1094     1.0  0.09067  0.54026  0.73747  1.0000
  H   H1095     1.0  0.03841  0.69123  0.79058  1.0000
  H   H1096     1.0  0.05792  0.53401  0.55602  1.0000
  H   H1097     1.0  0.02049  0.63005  0.85836  1.0000
  H   H1098     1.0  0.02716  0.68914  0.89554  1.0000
  H   H1099     1.0  0.02776  0.85984  0.57183  1.0000
  H   H1100     1.0  0.10703  0.98849  0.76373  1.0000
  H   H1101     1.0  0.04274  0.54155  0.54449  1.0000
  H   H1102     1.0  0.11717  0.54804  0.61769  1.0000
  H   H1103     1.0  0.16558  0.69903  0.89381  1.0000
  H   H1104     1.0  0.06003  0.88639  0.56746  1.0000
  H   H1105     1.0  0.00782  0.96214  0.90219  1.0000
  C   C645      1.0  0.02152  0.54805  0.78668  1.0000
  H   H1106     1.0  0.04396  0.83243  0.49036  1.0000
  H   H1107     1.0  0.02757  0.58978  0.80133  1.0000
  H   H1108     1.0  0.16975  0.69040  0.57106  1.0000
  C   C646      1.0  0.14070  0.67494  0.92671  1.0000
  C   C647      1.0  0.14046  0.69088  0.90835  1.0000
  C   C648      1.0  0.03703  0.63478  0.90920  1.0000
  H   H1109     1.0  0.14051  0.66752  0.65548  1.0000
  H   H1110     1.0  0.03427  0.53863  0.75665  1.0000
  H   H1111     1.0  0.09425  0.57131  0.79849  1.0000
  H   H1112     1.0  0.10021  0.82465  0.48123  1.0000
  H   H1113     1.0  0.04253  0.62976  0.86785  1.0000
  H   H1114     1.0  0.12577  0.58760  0.79343  1.0000
  H   H1115     1.0  0.15649  0.69056  0.86981  1.0000
  C   C649      1.0  0.02564  0.60162  0.79753  1.0000
  H   H1116     1.0  0.13133  0.84656  0.69079  1.0000
  H   H1117     1.0  0.07266  0.54767  0.80599  1.0000
  C   C650      1.0  0.13104  0.85460  0.67094  1.0000
  C   C651      1.0  0.16111  0.72149  0.61653  1.0000
  H   H1118     1.0  0.10114  0.96321  0.75224  1.0000
  H   H1119     1.0  0.13559  0.70291  0.81857  1.0000
  H   H1120     1.0  0.03761  0.74700  0.76591  1.0000
  H   H1121     1.0  0.13164  0.67793  0.97880  1.0000
  H   H1122     1.0  0.05604  0.53351  0.73852  1.0000
  C   C652      1.0  0.99641  0.61445  0.74258  1.0000
  H   H1123     1.0  0.11688  0.56991  0.58068  1.0000
  H   H1124     1.0  0.08413  0.49136  0.69088  1.0000
  H   H1125     1.0  0.04607  0.65029  0.86598  1.0000
  H   H1126     1.0  0.02533  0.56018  0.77314  1.0000
  H   H1127     1.0  0.16149  0.71969  0.81582  1.0000
  H   H1128     1.0  0.13944  0.69919  0.92153  1.0000
  H   H1129     1.0  0.02900  0.52707  0.79271  1.0000
  H   H1130     1.0  0.10797  0.51379  0.92591  1.0000
  H   H1131     1.0  0.00160  0.63230  0.87213  1.0000
  H   H1132     1.0  0.02866  0.98168  0.90859  1.0000
  S   S151      1.0  0.12002  0.96407  0.96665  1.0000
  H   H1133     1.0  0.15655  0.71918  0.63987  1.0000
  S   S152      1.0  0.15215  0.97298  0.78118  1.0000
  H   H1134     1.0  0.14485  0.66799  0.91235  1.0000
  C   C653      1.0  0.16665  0.62213  0.82304  1.0000
  H   H1135     1.0  0.14825  0.72561  0.77632  1.0000
  C   C654      1.0  0.16658  0.71835  0.79452  1.0000
  Fe  Fe76      1.0  0.18215  0.68124  0.94790  1.0000
  H   H1136     1.0  0.00952  0.60147  0.86841  1.0000
  S   S153      1.0  0.06328  0.50725  0.66929  1.0000
  H   H1137     1.0  0.11305  0.82461  0.51983  1.0000
  C   C655      1.0  0.01869  0.68331  0.73219  1.0000
  H   H1138     1.0  0.12093  0.95953  0.64853  1.0000
  H   H1139     1.0  0.02034  0.97256  0.96354  1.0000
  C   C656      1.0  0.02275  0.85081  0.56214  1.0000
  H   H1140     1.0  0.03843  0.62324  0.91945  1.0000
  H   H1141     1.0  0.08993  0.85999  0.49395  1.0000
  H   H1142     1.0  0.98731  0.56588  0.75145  1.0000
  C   C657      1.0  0.05856  0.86076  0.54310  1.0000
  H   H1143     1.0  0.12513  0.60413  0.60227  1.0000
  S   S154      1.0  0.98695  0.74547  0.74820  1.0000
  C   C658      1.0  0.03869  0.90979  0.96673  1.0000
  H   H1144     1.0  0.00860  0.58295  0.77187  1.0000
  C   C659      1.0  0.05703  0.87746  0.53135  1.0000
  C   C660      1.0  0.02234  0.67878  0.88873  1.0000
  H   H1145     1.0  0.13837  0.60388  0.76510  1.0000
  H   H1146     1.0  0.08137  0.59736  0.63786  1.0000
  H   H1147     1.0  0.02552  0.61532  0.96445  1.0000
  H   H1148     1.0  0.98911  0.61797  0.70311  1.0000
  H   H1149     1.0  0.99620  0.69318  0.81687  1.0000
  C   C661      1.0  0.01145  0.62102  0.90507  1.0000
  C   C662      1.0  0.17153  0.59591  0.83664  1.0000
  S   S155      1.0  0.99627  0.83225  0.88135  1.0000
  H   H1150     1.0  0.01633  0.78194  0.76763  1.0000
  H   H1151     1.0  0.12158  0.63958  0.62581  1.0000
  H   H1152     1.0  0.06609  0.70374  0.76990  1.0000
  N   N34       1.0  0.02932  0.83012  0.75438  1.0000
  C   C663      1.0  0.04477  0.83956  0.73485  1.0000
  C   C664      1.0  0.02682  0.83535  0.78131  1.0000
  C   C665      1.0  0.03007  0.81335  0.76226  1.0000
  C   C666      1.0  0.01607  0.83100  0.74091  1.0000
  C   C667      1.0  0.01710  0.84661  0.71988  1.0000
  C   C668      1.0  0.05066  0.83370  0.70869  1.0000
  C   C669      1.0  0.01606  0.80187  0.78529  1.0000
  C   C670      1.0  0.02621  0.85246  0.77850  1.0000
  C   C671      1.0  0.02737  0.85709  0.80577  1.0000
  H   H1153     1.0  0.03503  0.60959  0.77947  1.0000
  C   C672      1.0  0.06490  0.84555  0.68813  1.0000
  C   C673      1.0  0.01676  0.78501  0.78782  1.0000
  H   H1154     1.0  0.05383  0.83995  0.74674  1.0000
  H   H1155     1.0  0.04473  0.85185  0.72681  1.0000
  H   H1156     1.0  0.01562  0.82847  0.79636  1.0000
  H   H1157     1.0  0.03591  0.83312  0.79231  1.0000
  H   H1158     1.0  0.04063  0.81247  0.76968  1.0000
  H   H1159     1.0  0.03104  0.80867  0.74331  1.0000
  H   H1160     1.0  0.01452  0.82212  0.72878  1.0000
  H   H1161     1.0  0.00507  0.82799  0.75763  1.0000
  H   H1162     1.0  0.02588  0.84833  0.69983  1.0000
  H   H1163     1.0  0.02037  0.85675  0.72815  1.0000
  H   H1164     1.0  0.05417  0.82279  0.71531  1.0000
  H   H1165     1.0  0.04161  0.83140  0.69728  1.0000
  H   H1166     1.0  0.00505  0.80309  0.78027  1.0000
  H   H1167     1.0  0.01596  0.80396  0.80639  1.0000
  H   H1168     1.0  0.03573  0.86075  0.76130  1.0000
  H   H1169     1.0  0.01498  0.85387  0.77466  1.0000
  H   H1170     1.0  0.03885  0.85692  0.80971  1.0000
  H   H1171     1.0  0.02582  0.86901  0.80400  1.0000
  H   H1172     1.0  0.01831  0.84905  0.82418  1.0000
  C   C674      1.0  0.11155  0.62054  0.61012  1.0000
  H   H1173     1.0  0.02522  0.70812  0.71909  1.0000
  H   H1174     1.0  0.11675  0.64165  0.97322  1.0000
  H   H1175     1.0  0.06196  0.85655  0.67950  1.0000
  H   H1176     1.0  0.07427  0.84804  0.69878  1.0000
  H   H1177     1.0  0.06929  0.84088  0.67016  1.0000
  H   H1178     1.0  0.00565  0.57423  0.68890  1.0000
  C   C675      1.0  0.12025  0.51412  0.92501  1.0000
  H   H1179     1.0  0.17360  0.88484  0.67021  1.0000
  H   H1180     1.0  0.09085  0.61335  0.58348  1.0000
  H   H1181     1.0  0.04355  0.49217  0.77257  1.0000
  C   C676      1.0  0.18269  0.64620  0.78473  1.0000
  H   H1182     1.0  0.16977  0.93298  0.80414  1.0000
  C   C677      1.0  0.00940  0.62446  0.87444  1.0000
  H   H1183     1.0  0.15764  0.85197  0.64070  1.0000
  H   H1184     1.0  0.16671  0.74674  0.76137  1.0000
  H   H1185     1.0  0.14886  0.65949  0.97539  1.0000
  H   H1186     1.0  0.10674  0.59167  0.55092  1.0000
  C   C678      1.0  0.17630  0.71354  0.57812  1.0000
  H   H1187     1.0  0.11166  0.97382  0.78860  1.0000
  C   C679      1.0  0.03349  0.53909  0.77885  1.0000
  C   C680      1.0  0.04941  0.54703  0.78229  1.0000
  C   C681      1.0  0.12288  0.62780  0.62515  1.0000
  C   C682      1.0  0.09794  0.57095  0.77611  1.0000
  C   C683      1.0  0.10415  0.56423  0.52564  1.0000
  H   H1188     1.0  0.13080  0.68991  0.89812  1.0000
  H   H1189     1.0  0.03807  0.69940  0.73639  1.0000
  H   H1190     1.0  0.98659  0.59153  0.71837  1.0000
  Fe  Fe77      1.0  0.99405  0.84959  0.90905  1.0000
  Fe  Fe78      1.0  0.17857  0.95944  0.69621  1.0000
  H   H1191     1.0  0.04776  0.54833  0.80425  1.0000
  H   H1192     1.0  0.16160  0.69320  0.64916  1.0000
  C   C684      1.0  0.16818  0.73924  0.60447  1.0000
  C   C685      1.0  0.13625  0.97687  0.86079  1.0000
  C   C686      1.0  0.06363  0.63964  0.87669  1.0000
  C   C687      1.0  0.98483  0.83868  0.83338  1.0000
  Fe  Fe79      1.0  0.98943  0.79695  0.69069  1.0000
  C   C688      1.0  0.17440  0.74654  0.77593  1.0000
  H   H1193     1.0  0.08494  0.82665  0.53810  1.0000
  C   C689      1.0  0.00165  0.84669  0.71277  1.0000
  H   H1194     1.0  0.01037  0.54240  0.78328  1.0000
  N   N35       1.0  0.10356  0.59587  0.59225  1.0000
  H   H1195     1.0  0.11533  0.53817  0.48300  1.0000
  H   H1196     1.0  0.03721  0.66578  0.90502  1.0000
  H   H1197     1.0  0.10230  0.65472  0.94974  1.0000
  H   H1198     1.0  0.10656  0.56397  0.77408  1.0000
  H   H1199     1.0  0.10357  0.58301  0.76292  1.0000
  H   H1200     1.0  0.05455  0.59921  0.64022  1.0000
  N   N36       1.0  0.04520  0.97703  0.95137  1.0000
  H   H1201     1.0  0.17723  0.84275  0.57516  1.0000
  H   H1202     1.0  0.06724  0.95791  0.89043  1.0000
  C   C690      1.0  0.17531  0.88592  0.55927  1.0000
  H   H1203     1.0  0.11721  0.49291  0.97533  1.0000
  H   H1204     1.0  0.98808  0.67735  0.94437  1.0000
  H   H1205     1.0  0.00825  0.62062  0.72899  1.0000
  C   C691      1.0  0.17844  0.62843  0.79376  1.0000
  C   C692      1.0  0.17960  0.59100  0.81070  1.0000
  H   H1206     1.0  0.00626  0.68198  0.73307  1.0000
  C   C693      1.0  0.12797  0.95116  0.65317  1.0000
  H   H1207     1.0  0.06735  0.97121  0.94645  1.0000
  H   H1208     1.0  0.99277  0.84644  0.73184  1.0000
  H   H1209     1.0  0.05726  0.55368  0.49392  1.0000
  C   C694      1.0  0.17656  0.88711  0.64671  1.0000
  N   N37       1.0  0.12579  0.66571  0.94819  1.0000
  H   H1210     1.0  0.00708  0.59753  0.71081  1.0000
  H   H1211     1.0  0.16811  0.89236  0.54850  1.0000
  H   H1212     1.0  0.13523  0.49890  0.92737  1.0000
  H   H1213     1.0  0.08711  0.52761  0.50562  1.0000
  H   H1214     1.0  0.99501  0.61994  0.76028  1.0000
  H   H1215     1.0  0.03808  0.49513  0.82876  1.0000
  S   S156      1.0  0.99083  0.51286  0.66935  1.0000
  C   C695      1.0  0.12270  0.49776  0.92971  1.0000
  H   H1216     1.0  0.00803  0.57190  0.73795  1.0000
  S   S157      1.0  0.18074  0.77368  0.63494  1.0000
  H   H1217     1.0  0.00149  0.63294  0.94951  1.0000
  H   H1218     1.0  0.04474  0.52605  0.50791  1.0000
  C   C696      1.0  0.09149  0.52880  0.48268  1.0000
  C   C697      1.0  0.16003  0.50950  0.48990  1.0000
  H   H1219     1.0  0.03372  0.96337  0.90938  1.0000
  C   C698      1.0  0.15339  0.71556  0.77961  1.0000
  C   C699      1.0  0.12804  0.65020  0.96224  1.0000
  C   C700      1.0  0.17789  0.95992  0.88461  1.0000
  H   H1220     1.0  0.12688  0.98797  0.76070  1.0000
  H   H1221     1.0  0.99473  0.64366  0.71480  1.0000
  H   H1222     1.0  0.17246  0.65045  0.78148  1.0000
  C   C701      1.0  0.11915  0.83204  0.49817  1.0000
  C   C702      1.0  0.99697  0.57333  0.73338  1.0000
  S   S158      1.0  0.12088  0.87829  0.49015  1.0000
  C   C703      1.0  0.14798  0.60147  0.86113  1.0000
  C   C704      1.0  0.11310  0.59893  0.56222  1.0000
  C   C705      1.0  0.13741  0.60673  0.80759  1.0000
  C   C706      1.0  0.15484  0.60403  0.88625  1.0000
  H   H1223     1.0  0.07080  0.58272  0.62513  1.0000
  H   H1224     1.0  0.00817  0.80833  0.97018  1.0000
  C   C707      1.0  0.14221  0.59949  0.91392  1.0000
  H   H1225     1.0  0.14578  0.58646  0.82065  1.0000
  H   H1226     1.0  0.03211  0.76961  0.73650  1.0000
  H   H1227     1.0  0.99969  0.84931  0.58649  1.0000
  C   C708      1.0  0.99593  0.56728  0.70739  1.0000
  H   H1228     1.0  0.14091  0.58920  0.86736  1.0000
  H   H1229     1.0  0.13972  0.60890  0.85989  1.0000
  C   C709      1.0  0.08871  0.60060  0.59156  1.0000
  H   H1230     1.0  0.12816  0.60400  0.82742  1.0000
  H   H1231     1.0  0.14669  0.49785  0.71472  1.0000
  H   H1232     1.0  0.16091  0.61638  0.88264  1.0000
  H   H1233     1.0  0.12004  0.68604  0.95890  1.0000
  C   C710      1.0  0.03749  0.84121  0.49398  1.0000
  H   H1234     1.0  0.99670  0.55502  0.71176  1.0000
  C   C711      1.0  0.13806  0.97194  0.83573  1.0000
  H   H1235     1.0  0.00985  0.67781  0.89071  1.0000
  H   H1236     1.0  0.99760  0.83645  0.70501  1.0000
  H   H1237     1.0  0.01966  0.60113  0.74824  1.0000
  H   H1238     1.0  0.13629  0.58694  0.91945  1.0000
  H   H1239     1.0  0.14747  0.60171  0.93128  1.0000
  H   H1240     1.0  0.98591  0.85030  0.83594  1.0000
  H   H1241     1.0  0.17311  0.77605  0.78363  1.0000
  C   C712      1.0  0.11599  0.65599  0.90842  1.0000
  C   C713      1.0  0.10180  0.65296  0.89679  1.0000
  N   N38       1.0  0.17584  0.87196  0.63864  1.0000
  H   H1242     1.0  0.14668  0.74451  0.59806  1.0000
  H   H1243     1.0  0.13364  0.64500  0.94595  1.0000
  N   N39       1.0  0.17167  0.71120  0.60985  1.0000
  C   C714      1.0  0.08406  0.56422  0.76599  1.0000
  S   S159      1.0  0.16946  0.98053  0.69841  1.0000
  H   H1244     1.0  0.12556  0.66406  0.89086  1.0000
  H   H1245     1.0  0.11908  0.64480  0.91448  1.0000
  H   H1246     1.0  0.09847  0.66393  0.88972  1.0000
  H   H1247     1.0  0.09194  0.64440  0.91308  1.0000
  C   C715      1.0  0.16309  0.69468  0.62599  1.0000
  H   H1248     1.0  0.98507  0.71336  0.75377  1.0000
  H   H1249     1.0  0.15535  0.70966  0.87288  1.0000
  C   C716      1.0  0.10762  0.55381  0.62144  1.0000
  H   H1250     1.0  0.10449  0.64816  0.87824  1.0000
  H   H1251     1.0  0.14499  0.87531  0.63973  1.0000
  H   H1252     1.0  0.16976  0.68633  0.62081  1.0000
  H   H1253     1.0  0.03808  0.70163  0.81774  1.0000
  H   H1254     1.0  0.04362  0.50549  0.72384  1.0000
  C   C717      1.0  0.06341  0.60367  0.61958  1.0000
  C   C718      1.0  0.07605  0.54723  0.78358  1.0000
  N   N40       1.0  0.04885  0.84764  0.53508  1.0000
  H   H1255     1.0  0.18198  0.71609  0.64318  1.0000
  H   H1256     1.0  0.16724  0.74669  0.79674  1.0000
  C   C719      1.0  0.05761  0.83532  0.53334  1.0000
  C   C720      1.0  0.03382  0.84027  0.55746  1.0000
  H   H1257     1.0  0.16109  0.76080  0.59922  1.0000
  C   C721      1.0  0.06261  0.82868  0.56026  1.0000
  H   H1258     1.0  0.01733  0.74598  0.77353  1.0000
  H   H1259     1.0  0.05644  0.98044  0.89226  1.0000
  C   C722      1.0  0.02639  0.96949  0.92111  1.0000
  C   C723      1.0  0.07428  0.81919  0.55402  1.0000
  C   C724      1.0  0.00722  0.84143  0.58247  1.0000
  C   C725      1.0  0.00200  0.60964  0.86751  1.0000
  H   H1260     1.0  0.13360  0.60644  0.91218  1.0000
  H   H1261     1.0  0.02749  0.78313  0.79344  1.0000
  H   H1262     1.0  0.06809  0.83988  0.51519  1.0000
  H   H1263     1.0  0.05056  0.82504  0.52916  1.0000
  H   H1264     1.0  0.02748  0.82961  0.55323  1.0000
  H   H1265     1.0  0.17818  0.49255  0.83149  1.0000
  H   H1266     1.0  0.00684  0.94901  0.93532  1.0000
  H   H1267     1.0  0.12373  0.51962  0.94132  1.0000
  H   H1268     1.0  0.05244  0.82089  0.57696  1.0000
  H   H1269     1.0  0.06798  0.83797  0.56887  1.0000
  H   H1270     1.0  0.04015  0.86270  0.50572  1.0000
  H   H1271     1.0  0.12655  0.94286  0.63996  1.0000
  H   H1272     1.0  0.18063  0.60257  0.84436  1.0000
  H   H1273     1.0  0.13090  0.69993  0.78654  1.0000
  H   H1274     1.0  0.07351  0.55093  0.50635  1.0000
  N   N41       1.0  0.18023  0.73202  0.77896  1.0000
  H   H1275     1.0  0.99052  0.60390  0.88261  1.0000
  S   S160      1.0  0.99623  0.87540  0.89712  1.0000
  H   H1276     1.0  0.07747  0.81445  0.57376  1.0000
  C   C726      1.0  0.04661  0.63884  0.87814  1.0000
  C   C727      1.0  0.99759  0.70266  0.85215  1.0000
  H   H1277     1.0  0.06869  0.64928  0.88502  1.0000
  C   C728      1.0  0.05758  0.97062  0.93631  1.0000
  H   H1278     1.0  0.14691  0.87410  0.67508  1.0000
  C   C729      1.0  0.02939  0.96849  0.95069  1.0000
  C   C730      1.0  0.12998  0.60046  0.78621  1.0000
  H   H1279     1.0  0.01335  0.69271  0.82830  1.0000
  N   N42       1.0  0.12226  0.94610  0.73479  1.0000
  C   C731      1.0  0.13472  0.93784  0.73857  1.0000
  C   C732      1.0  0.12479  0.95343  0.70359  1.0000
  C   C733      1.0  0.12440  0.95914  0.74903  1.0000
  C   C734      1.0  0.10616  0.93561  0.74765  1.0000
  C   C735      1.0  0.10384  0.91828  0.74722  1.0000
  C   C736      1.0  0.13535  0.93157  0.76960  1.0000
  H   H1280     1.0  0.13166  0.83265  0.49486  1.0000
  C   C737      1.0  0.12281  0.94226  0.68447  1.0000
  H   H1281     1.0  0.12051  0.62066  0.64730  1.0000
  C   C738      1.0  0.08671  0.90984  0.75587  1.0000
  C   C739      1.0  0.14418  0.91898  0.77211  1.0000
  C   C740      1.0  0.18077  0.95202  0.81875  1.0000
  H   H1282     1.0  0.14626  0.94589  0.72734  1.0000
  H   H1283     1.0  0.13398  0.92809  0.72848  1.0000
  H   H1284     1.0  0.11654  0.96061  0.70009  1.0000
  H   H1285     1.0  0.13657  0.96151  0.69490  1.0000
  C   C741      1.0  0.05174  0.51861  0.82374  1.0000
  H   H1286     1.0  0.12295  0.95442  0.77210  1.0000
  H   H1287     1.0  0.10211  0.93544  0.77033  1.0000
  H   H1288     1.0  0.09788  0.94040  0.73713  1.0000
  H   H1289     1.0  0.10933  0.91216  0.76239  1.0000
  H   H1290     1.0  0.10894  0.91688  0.72620  1.0000
  H   H1291     1.0  0.14148  0.94117  0.77685  1.0000
  H   H1292     1.0  0.12367  0.92677  0.78429  1.0000
  H   H1293     1.0  0.06743  0.51694  0.78679  1.0000
  H   H1294     1.0  0.05624  0.85841  0.56656  1.0000
  H   H1295     1.0  0.12970  0.93366  0.68737  1.0000
  H   H1296     1.0  0.11046  0.93608  0.68904  1.0000
  H   H1297     1.0  0.17795  0.86299  0.60183  1.0000
  H   H1298     1.0  0.09337  0.53333  0.69178  1.0000
  H   H1299     1.0  0.13641  0.96668  0.74046  1.0000
  H   H1300     1.0  0.08539  0.89742  0.75613  1.0000
  H   H1301     1.0  0.08115  0.91046  0.77740  1.0000
  H   H1302     1.0  0.08073  0.91503  0.74053  1.0000
  H   H1303     1.0  0.15601  0.92347  0.75773  1.0000
  H   H1304     1.0  0.14511  0.91532  0.79419  1.0000
  H   H1305     1.0  0.13806  0.90869  0.76658  1.0000
  H   H1306     1.0  0.07020  0.64181  0.85435  1.0000
  H   H1307     1.0  0.05261  0.55910  0.76849  1.0000
  H   H1308     1.0  0.12879  0.66781  0.63065  1.0000
  H   H1309     1.0  0.18058  0.57510  0.95156  1.0000
  Fe  Fe80      1.0  0.18185  0.55224  0.90926  1.0000
  N   N43       1.0  0.02365  0.71509  0.77388  1.0000
  C   C742      1.0  0.01699  0.70066  0.76567  1.0000
  C   C743      1.0  0.01348  0.71568  0.80144  1.0000
  C   C744      1.0  0.02379  0.72898  0.75091  1.0000
  C   C745      1.0  0.04011  0.71626  0.77569  1.0000
  C   C746      1.0  0.04313  0.70225  0.79530  1.0000
  C   C747      1.0  0.02579  0.69889  0.73701  1.0000
  C   C748      1.0  0.02728  0.74505  0.75759  1.0000
  C   C749      1.0  0.00536  0.70000  0.82411  1.0000
  H   H1310     1.0  0.05742  0.49623  0.83278  1.0000
  C   C750      1.0  0.06043  0.70391  0.79168  1.0000
  H   H1311     1.0  0.00846  0.61333  0.78891  1.0000
  C   C751      1.0  0.03023  0.75832  0.73102  1.0000
  H   H1312     1.0  0.00486  0.70023  0.76472  1.0000
  H   H1313     1.0  0.01611  0.68993  0.78199  1.0000
  H   H1314     1.0  0.02008  0.72361  0.81144  1.0000
  H   H1315     1.0  0.00380  0.72080  0.79733  1.0000
  H   H1316     1.0  0.01244  0.72747  0.74555  1.0000
  H   H1317     1.0  0.03246  0.72999  0.73099  1.0000
  H   H1318     1.0  0.04794  0.71851  0.75424  1.0000
  H   H1319     1.0  0.04442  0.72646  0.78335  1.0000
  H   H1320     1.0  0.08833  0.56497  0.74322  1.0000
  H   H1321     1.0  0.03992  0.52097  0.55855  1.0000
  C   C752      1.0  0.15540  0.69792  0.88481  1.0000
  C   C753      1.0  0.01754  0.64951  0.89900  1.0000
  S   S161      1.0  0.99421  0.79091  0.73326  1.0000
  H   H1322     1.0  0.02834  0.68047  0.86622  1.0000
  H   H1323     1.0  0.99477  0.51058  0.61015  1.0000
  H   H1324     1.0  0.00881  0.83545  0.60304  1.0000
  H   H1325     1.0  0.07599  0.57175  0.76811  1.0000
  H   H1326     1.0  0.05779  0.60147  0.60263  1.0000
  H   H1327     1.0  0.02001  0.64098  0.95334  1.0000
  Fe  Fe81      1.0  0.17586  0.76766  0.68236  1.0000
  H   H1328     1.0  0.16628  0.58477  0.85348  1.0000
  H   H1329     1.0  0.17332  0.97285  0.84675  1.0000
  N   N44       1.0  0.15947  0.60484  0.83275  1.0000
  N   N45       1.0  0.06225  0.53924  0.77525  1.0000
  H   H1330     1.0  0.15857  0.60113  0.79152  1.0000
  H   H1331     1.0  0.16024  0.85356  0.67414  1.0000
  H   H1332     1.0  0.13598  0.61169  0.51183  1.0000
  C   C754      1.0  0.16950  0.88308  0.59129  1.0000
  C   C755      1.0  0.01356  0.63186  0.94539  1.0000
  C   C756      1.0  0.12585  0.61676  0.51304  1.0000
  H   H1333     1.0  0.17686  0.74344  0.61553  1.0000
  H   H1334     1.0  0.14812  0.66555  0.62036  1.0000
  H   H1335     1.0  0.06128  0.52110  0.51802  1.0000
  H   H1336     1.0  0.16694  0.71642  0.56847  1.0000
  C   C757      1.0  0.15076  0.59927  0.81270  1.0000
  C   C758      1.0  0.07627  0.59532  0.62029  1.0000
  H   H1337     1.0  0.15329  0.95868  0.89176  1.0000
  C   C759      1.0  0.02464  0.66424  0.90740  1.0000
  H   H1338     1.0  0.06225  0.88144  0.50811  1.0000
  S   S162      1.0  0.99939  0.64288  0.78888  1.0000
  S   S163      1.0  0.12282  0.56359  0.50873  1.0000
  H   H1339     1.0  0.14456  0.69074  0.79975  1.0000
  H   H1340     1.0  0.17989  0.96069  0.80031  1.0000
  C   C760      1.0  0.08266  0.57626  0.52937  1.0000
  H   H1341     1.0  0.02201  0.65198  0.87577  1.0000
  H   H1342     1.0  0.16772  0.89270  0.64001  1.0000
  C   C761      1.0  0.16021  0.86060  0.65301  1.0000
  C   C762      1.0  0.09728  0.57569  0.51454  1.0000
  H   H1343     1.0  0.07750  0.58530  0.52092  1.0000
  H   H1344     1.0  0.13849  0.69413  0.63406  1.0000
  H   H1345     1.0  0.02040  0.85644  0.54214  1.0000
  N   N46       1.0  0.02012  0.63439  0.91400  1.0000
  H   H1346     1.0  0.12994  0.62906  0.50025  1.0000
  H   H1347     1.0  0.01967  0.54818  0.80926  1.0000
  H   H1348     1.0  0.04484  0.87805  0.53543  1.0000
  H   H1349     1.0  0.08488  0.54041  0.78294  1.0000
  C   C763      1.0  0.00989  0.60141  0.79147  1.0000
  H   H1350     1.0  0.17376  0.74220  0.58148  1.0000
  C   C764      1.0  0.08016  0.53468  0.73206  1.0000
  C   C765      1.0  0.05486  0.53019  0.51587  1.0000
  S   S164      1.0  0.16509  0.69157  0.97206  1.0000
  C   C766      1.0  0.14074  0.67138  0.63274  1.0000
  C   C767      1.0  0.14676  0.68902  0.62183  1.0000
  H   H1351     1.0  0.14676  0.69253  0.59920  1.0000
  H   H1352     1.0  0.15083  0.71879  0.60811  1.0000
  H   H1353     1.0  0.10460  0.55370  0.64409  1.0000
  H   H1354     1.0  0.11392  0.62831  0.58866  1.0000
  C   C768      1.0  0.13817  0.49690  0.83969  1.0000
  H   H1355     1.0  0.07787  0.52191  0.74039  1.0000
  H   H1356     1.0  0.02737  0.81864  0.96898  1.0000
  H   H1357     1.0  0.06750  0.55254  0.73161  1.0000
  H   H1358     1.0  0.99942  0.61643  0.91887  1.0000
  H   H1359     1.0  0.11997  0.60535  0.78404  1.0000
  H   H1360     1.0  0.12687  0.62297  0.55155  1.0000
  H   H1361     1.0  0.01892  0.66362  0.92959  1.0000
  Fe  Fe82      1.0  0.98561  0.84816  0.97298  1.0000
  H   H1362     1.0  0.01685  0.61108  0.90818  1.0000
  C   C769      1.0  0.09930  0.57852  0.60540  1.0000
  H   H1363     1.0  0.07358  0.53328  0.69311  1.0000
  H   H1364     1.0  0.16304  0.59684  0.88959  1.0000
  C   C770      1.0  0.11817  0.61592  0.54372  1.0000
  H   H1365     1.0  0.12675  0.97055  0.87903  1.0000
  C   C771      1.0  0.00962  0.96147  0.92365  1.0000
  H   H1366     1.0  0.00634  0.70854  0.86145  1.0000
  C   C772      1.0  0.16254  0.96047  0.90293  1.0000
  H   H1367     1.0  0.17447  0.87471  0.55351  1.0000
  C   C773      1.0  0.11269  0.60382  0.60952  1.0000
  S   S165      1.0  0.17077  0.50686  0.93260  1.0000
  H   H1368     1.0  0.04146  0.52301  0.83003  1.0000
  H   H1369     1.0  0.04848  0.51580  0.78322  1.0000
  H   H1370     1.0  0.16979  0.89458  0.59549  1.0000
  H   H1371     1.0  0.15773  0.71335  0.75884  1.0000
  H   H1372     1.0  0.17013  0.70732  0.79872  1.0000
  H   H1373     1.0  0.06088  0.52387  0.83289  1.0000
  H   H1374     1.0  0.06507  0.90099  0.53432  1.0000
  H   H1375     1.0  0.15913  0.95115  0.92303  1.0000
  C   C774      1.0  0.07477  0.96907  0.89056  1.0000
  H   H1376     1.0  0.16354  0.97183  0.90816  1.0000
  H   H1377     1.0  0.16534  0.50279  0.50472  1.0000
  H   H1378     1.0  0.09982  0.62039  0.62188  1.0000
  H   H1379     1.0  0.09345  0.57572  0.62837  1.0000
  H   H1380     1.0  0.01994  0.67361  0.74847  1.0000
  C   C775      1.0  0.11278  0.57050  0.60283  1.0000
  C   C776      1.0  0.06517  0.54586  0.49536  1.0000
  C   C777      1.0  0.06552  0.88907  0.54446  1.0000
  C   C778      1.0  0.98896  0.82772  0.85262  1.0000
  H   H1381     1.0  0.00095  0.59358  0.81034  1.0000
  H   H1382     1.0  0.15000  0.67745  0.93742  1.0000
  H   H1383     1.0  0.14167  0.61952  0.79905  1.0000
  H   H1384     1.0  0.14035  0.95754  0.64722  1.0000
  H   H1385     1.0  0.17931  0.73253  0.73588  1.0000
  H   H1386     1.0  0.14728  0.50546  0.49808  1.0000
  H   H1387     1.0  0.17630  0.94829  0.88058  1.0000
  H   H1388     1.0  0.98480  0.56775  0.70209  1.0000
  H   H1389     1.0  0.11943  0.49303  0.91252  1.0000
  C   C779      1.0  0.05266  0.49240  0.75480  1.0000
  H   H1390     1.0  0.00162  0.96722  0.93482  1.0000
  S   S166      1.0  0.98644  0.87372  0.96511  1.0000
  H   H1391     1.0  0.11745  0.84388  0.49681  1.0000
  C   C780      1.0  0.07535  0.49170  0.70872  1.0000
  C   C781      1.0  0.17949  0.77595  0.76228  1.0000
  C   C782      1.0  0.15049  0.97985  0.81199  1.0000
  H   H1392     1.0  0.10942  0.51734  0.49058  1.0000
  C   C783      1.0  0.11484  0.98069  0.76612  1.0000
  N   N47       1.0  0.99512  0.59733  0.75316  1.0000
  H   H1393     1.0  0.08353  0.96667  0.90216  1.0000
  H   H1394     1.0  0.11630  0.97758  0.72467  1.0000
  H   H1395     1.0  0.00036  0.61263  0.84581  1.0000
  S   S167      1.0  0.07396  0.94307  0.97584  1.0000
  H   H1396     1.0  0.17704  0.84029  0.65279  1.0000
  H   H1397     1.0  0.17388  0.62435  0.77705  1.0000
  H   H1398     1.0  0.17127  0.58182  0.80604  1.0000
  H   H1399     1.0  0.17141  0.77526  0.74850  1.0000
  S   S168      1.0  0.18013  0.95538  0.74141  1.0000
  H   H1400     1.0  0.17291  0.62592  0.83821  1.0000
  C   C784      1.0  0.98813  0.81286  0.84803  1.0000
  C   C785      1.0  0.04833  0.91989  0.97777  1.0000
  H   H1401     1.0  0.04281  0.49865  0.86047  1.0000
  H   H1402     1.0  0.98927  0.70983  0.84898  1.0000
  H   H1403     1.0  0.05780  0.85910  0.49054  1.0000
  Fe  Fe83      1.0  0.09501  0.96420  0.96861  1.0000
  H   H1404     1.0  0.18063  0.71021  0.52355  1.0000
  C   C786      1.0  0.12179  0.67473  0.96947  1.0000
  H   H1405     1.0  0.18108  0.92758  0.82838  1.0000
  C   C787      1.0  0.18058  0.93682  0.81037  1.0000
  C   C788      1.0  0.17944  0.87436  0.60699  1.0000
  H   H1406     1.0  0.14867  0.63217  0.97477  1.0000
  C   C789      1.0  0.98367  0.66501  0.95419  1.0000
  H   H1407     1.0  0.18210  0.59487  0.97908  1.0000
  C   C790      1.0  0.98330  0.63514  0.72392  1.0000
  C   C791      1.0  0.98489  0.61863  0.72519  1.0000
  C   C792      1.0  0.98327  0.50396  0.62235  1.0000
  H   H1408     1.0  0.23885  0.46901  0.06628  1.0000
  S   S169      1.0  0.20515  0.42630  0.26559  1.0000
  C   C793      1.0  0.28136  0.48293  0.13096  1.0000
  Fe  Fe84      1.0  0.20757  0.40285  0.26099  1.0000
  S   S170      1.0  0.22951  0.39785  0.23826  1.0000
  S   S171      1.0  0.19717  0.39096  0.30723  1.0000
  C   C794      1.0  0.22545  0.05180  0.25524  1.0000
  H   H1409     1.0  0.20873  0.09398  0.46792  1.0000
  H   H1410     1.0  0.30936  0.38968  0.05166  1.0000
  H   H1411     1.0  0.26019  0.17117  0.18408  1.0000
  C   C795      1.0  0.21559  0.05441  0.21294  1.0000
  H   H1412     1.0  0.35802  0.39483  0.99798  1.0000
  S   S172      1.0  0.35258  0.16873  0.31667  1.0000
  H   H1413     1.0  0.26124  0.39765  0.21855  1.0000
  H   H1414     1.0  0.26903  0.09832  0.43320  1.0000
  C   C796      1.0  0.24954  0.43273  0.32006  1.0000
  S   S173      1.0  0.19198  0.20413  0.16787  1.0000
  Fe  Fe85      1.0  0.31369  0.44790  0.17254  1.0000
  S   S174      1.0  0.32710  0.43338  0.19458  1.0000
  S   S175      1.0  0.29108  0.45220  0.19291  1.0000
  Fe  Fe86      1.0  0.33753  0.45773  0.11636  1.0000
  S   S176      1.0  0.35289  0.44406  0.13361  1.0000
  S   S177      1.0  0.34532  0.47016  0.06980  1.0000
  Fe  Fe87      1.0  0.33130  0.42518  0.15501  1.0000
  S   S178      1.0  0.33312  0.40065  0.15589  1.0000
  Fe  Fe88      1.0  0.34772  0.45347  0.17143  1.0000
  H   H1415     1.0  0.21136  0.11030  0.27726  1.0000
  S   S179      1.0  0.31615  0.43806  0.13485  1.0000
  S   S180      1.0  0.33402  0.46878  0.15237  1.0000
  Fe  Fe89      1.0  0.28742  0.30369  0.09564  1.0000
  S   S181      1.0  0.30799  0.30330  0.06228  1.0000
  S   S182      1.0  0.26928  0.28266  0.12609  1.0000
  Fe  Fe90      1.0  0.29821  0.33854  0.08750  1.0000
  S   S183      1.0  0.31941  0.34084  0.05374  1.0000
  S   S184      1.0  0.29143  0.35948  0.09898  1.0000
  Fe  Fe91      1.0  0.30407  0.32493  0.03647  1.0000
  C   C797      1.0  0.36933  0.10961  0.17658  1.0000
  Fe  Fe92      1.0  0.32196  0.31933  0.08172  1.0000
  S   S185      1.0  0.34611  0.31704  0.08312  1.0000
  S   S186      1.0  0.28243  0.32420  0.06837  1.0000
  S   S187      1.0  0.30182  0.31814  0.11713  1.0000
  Fe  Fe93      1.0  0.34671  0.02220  0.05944  1.0000
  S   S188      1.0  0.32514  0.01119  0.09490  1.0000
  S   S189      1.0  0.37096  0.03397  0.05988  1.0000
  Fe  Fe94      1.0  0.33167  0.01145  0.01545  1.0000
  H   H1416     1.0  0.27226  0.45960  0.15776  1.0000
  Fe  Fe95      1.0  0.31250  0.02033  0.06371  1.0000
  S   S190      1.0  0.29283  0.03151  0.07369  1.0000
  N   N48       1.0  0.26855  0.45840  0.11700  1.0000
  H   H1417     1.0  0.31134  0.37471  0.00174  1.0000
  S   S191      1.0  0.33429  0.03330  0.02973  1.0000
  S   S192      1.0  0.34551  0.00103  0.04282  1.0000
  H   H1418     1.0  0.32119  0.48259  0.09675  1.0000
  Fe  Fe96      1.0  0.19983  0.21465  0.12070  1.0000
  H   H1419     1.0  0.18700  0.11867  0.17373  1.0000
  S   S193      1.0  0.21572  0.23828  0.09524  1.0000
  C   C798      1.0  0.29718  0.13921  0.40820  1.0000
  H   H1420     1.0  0.19707  0.23946  0.16259  1.0000
  H   H1421     1.0  0.27178  0.44451  0.35667  1.0000
  S   S194      1.0  0.20288  0.19256  0.11009  1.0000
  H   H1422     1.0  0.26478  0.43598  0.14594  1.0000
  Fe  Fe97      1.0  0.24987  0.09853  0.28557  1.0000
  S   S195      1.0  0.23381  0.10376  0.32116  1.0000
  S   S196      1.0  0.24200  0.07572  0.27224  1.0000
  Fe  Fe98      1.0  0.27565  0.12816  0.28095  1.0000
  S   S197      1.0  0.26063  0.13529  0.31468  1.0000
  S   S198      1.0  0.29975  0.14438  0.25810  1.0000
  Fe  Fe99      1.0  0.25417  0.11020  0.33922  1.0000
  S   S199      1.0  0.25664  0.10228  0.38475  1.0000
  Fe  Fe100     1.0  0.24170  0.12842  0.29365  1.0000
  S   S200      1.0  0.22461  0.14317  0.28811  1.0000
  S   S201      1.0  0.26991  0.10311  0.30578  1.0000
  S   S202      1.0  0.25710  0.12313  0.25775  1.0000
  C   C799      1.0  0.23159  0.06801  0.24914  1.0000
  C   C800      1.0  0.22990  0.07732  0.22435  1.0000
  H   H1423     1.0  0.23491  0.08971  0.21866  1.0000
  H   H1424     1.0  0.22119  0.07795  0.18716  1.0000
  C   C801      1.0  0.21149  0.15838  0.20457  1.0000
  C   C802      1.0  0.20440  0.16211  0.22886  1.0000
  C   C803      1.0  0.20838  0.15719  0.25445  1.0000
  C   C804      1.0  0.21929  0.14836  0.25604  1.0000
  C   C805      1.0  0.22612  0.14439  0.23185  1.0000
  C   C806      1.0  0.22230  0.14947  0.20622  1.0000
  H   H1425     1.0  0.30826  0.16145  0.45151  1.0000
  H   H1426     1.0  0.20302  0.16028  0.27311  1.0000
  H   H1427     1.0  0.23447  0.13755  0.23280  1.0000
  H   H1428     1.0  0.22780  0.14648  0.18755  1.0000
  H   H1429     1.0  0.25039  0.46891  0.10705  1.0000
  C   C807      1.0  0.24113  0.12452  0.44404  1.0000
  C   C808      1.0  0.24346  0.11927  0.41922  1.0000
  C   C809      1.0  0.25354  0.10978  0.41507  1.0000
  C   C810      1.0  0.26126  0.10570  0.43608  1.0000
  H   H1430     1.0  0.23322  0.13175  0.44703  1.0000
  H   H1431     1.0  0.23733  0.12242  0.40345  1.0000
  C   C811      1.0  0.27512  0.01904  0.09519  1.0000
  C   C812      1.0  0.32546  0.29509  0.99851  1.0000
  C   C813      1.0  0.26460  0.47481  0.27165  1.0000
  H   H1432     1.0  0.21355  0.23378  0.19474  1.0000
  C   C814      1.0  0.24725  0.01423  0.11279  1.0000
  C   C815      1.0  0.26151  0.02394  0.09568  1.0000
  Fe  Fe101     1.0  0.32301  0.99087  0.07577  1.0000
  N   N49       1.0  0.19095  0.10483  0.21138  1.0000
  H   H1433     1.0  0.23682  0.01802  0.11268  1.0000
  H   H1434     1.0  0.26198  0.03523  0.08266  1.0000
  C   C816      1.0  0.25471  0.27032  0.11673  1.0000
  C   C817      1.0  0.24488  0.25722  0.13755  1.0000
  C   C818      1.0  0.23330  0.24694  0.13100  1.0000
  C   C819      1.0  0.23105  0.25001  0.10381  1.0000
  C   C820      1.0  0.24074  0.26322  0.08306  1.0000
  C   C821      1.0  0.25262  0.27327  0.08938  1.0000
  H   H1435     1.0  0.24620  0.25512  0.15888  1.0000
  H   H1436     1.0  0.22591  0.23681  0.14700  1.0000
  H   H1437     1.0  0.23905  0.26570  0.06195  1.0000
  H   H1438     1.0  0.26006  0.28334  0.07317  1.0000
  H   H1439     1.0  0.37056  0.13173  0.20479  1.0000
  Fe  Fe102     1.0  0.19345  0.41425  0.31130  1.0000
  C   C822      1.0  0.21496  0.20397  0.25076  1.0000
  H   H1440     1.0  0.25786  0.15714  0.23477  1.0000
  N   N50       1.0  0.34834  0.12599  0.23598  1.0000
  H   H1441     1.0  0.21338  0.20393  0.27339  1.0000
  H   H1442     1.0  0.29046  0.46910  0.08613  1.0000
  H   H1443     1.0  0.25202  0.44804  0.07884  1.0000
  H   H1444     1.0  0.22054  0.11575  0.16997  1.0000
  H   H1445     1.0  0.18799  0.09466  0.27027  1.0000
  H   H1446     1.0  0.29035  0.12957  0.42714  1.0000
  H   H1447     1.0  0.24588  0.42750  0.28043  1.0000
  H   H1448     1.0  0.20711  0.11800  0.22892  1.0000
  H   H1449     1.0  0.20569  0.19446  0.24928  1.0000
  H   H1450     1.0  0.27358  0.47011  0.36796  1.0000
  C   C823      1.0  0.32189  0.38964  0.13890  1.0000
  C   C824      1.0  0.32433  0.37517  0.13665  1.0000
  C   C825      1.0  0.31530  0.36595  0.12381  1.0000
  C   C826      1.0  0.30368  0.37112  0.11338  1.0000
  C   C827      1.0  0.30140  0.38569  0.11515  1.0000
  C   C828      1.0  0.31044  0.39492  0.12798  1.0000
  H   H1451     1.0  0.33314  0.37099  0.14502  1.0000
  H   H1452     1.0  0.31713  0.35472  0.12247  1.0000
  H   H1453     1.0  0.29256  0.38980  0.10675  1.0000
  H   H1454     1.0  0.30843  0.40601  0.12968  1.0000
  H   H1455     1.0  0.26292  0.16790  0.35930  1.0000
  H   H1456     1.0  0.26400  0.45419  0.39888  1.0000
  C   C829      1.0  0.32266  0.48598  0.07411  1.0000
  C   C830      1.0  0.35705  0.32621  0.10303  1.0000
  C   C831      1.0  0.35017  0.33151  0.12550  1.0000
  C   C832      1.0  0.35927  0.33816  0.14155  1.0000
  H   H1457     1.0  0.37098  0.35587  0.05711  1.0000
  H   H1458     1.0  0.33784  0.33025  0.13078  1.0000
  H   H1459     1.0  0.35384  0.34191  0.15924  1.0000
  H   H1460     1.0  0.36392  0.39473  0.05554  1.0000
  H   H1461     1.0  0.22440  0.08638  0.42857  1.0000
  C   C833      1.0  0.23315  0.20073  0.20796  1.0000
  H   H1462     1.0  0.24263  0.44503  0.16783  1.0000
  C   C834      1.0  0.36246  0.04947  0.10009  1.0000
  C   C835      1.0  0.36572  0.05956  0.11705  1.0000
  C   C836      1.0  0.30534  0.37629  0.02215  1.0000
  N   N51       1.0  0.34399  0.39487  0.03844  1.0000
  H   H1463     1.0  0.35063  0.04365  0.10190  1.0000
  H   H1464     1.0  0.35633  0.06144  0.13190  1.0000
  Fe  Fe103     1.0  0.19620  0.02279  0.18086  1.0000
  C   C837      1.0  0.25896  0.46027  0.07125  1.0000
  C   C838      1.0  0.34830  0.41414  0.98922  1.0000
  H   H1465     1.0  0.25037  0.23109  0.17919  1.0000
  H   H1466     1.0  0.28348  0.48287  0.17361  1.0000
  H   H1467     1.0  0.27233  0.24254  0.19638  1.0000
  H   H1468     1.0  0.24898  0.46447  0.03543  1.0000
  H   H1469     1.0  0.37808  0.27828  0.08178  1.0000
  H   H1470     1.0  0.25936  0.48136  0.28573  1.0000
  H   H1471     1.0  0.37917  0.37484  0.06048  1.0000
  C   C839      1.0  0.35483  0.13354  0.25676  1.0000
  C   C840      1.0  0.36818  0.38326  0.15840  1.0000
  S   S203      1.0  0.19931  0.42260  0.34907  1.0000
  C   C841      1.0  0.26015  0.99477  0.12927  1.0000
  H   H1472     1.0  0.33063  0.39908  0.07542  1.0000
  C   C842      1.0  0.33818  0.16229  0.29952  1.0000
  C   C843      1.0  0.33817  0.17010  0.27222  1.0000
  C   C844      1.0  0.32624  0.16462  0.25999  1.0000
  C   C845      1.0  0.31406  0.15143  0.27498  1.0000
  C   C846      1.0  0.31414  0.14362  0.30219  1.0000
  C   C847      1.0  0.32625  0.14889  0.31410  1.0000
  H   H1473     1.0  0.34729  0.18039  0.26058  1.0000
  H   H1474     1.0  0.32638  0.17074  0.23888  1.0000
  H   H1475     1.0  0.30504  0.13330  0.31379  1.0000
  H   H1476     1.0  0.32640  0.14254  0.33483  1.0000
  C   C848      1.0  0.22440  0.47111  0.35344  1.0000
  C   C849      1.0  0.22089  0.46905  0.32815  1.0000
  C   C850      1.0  0.21313  0.45436  0.32642  1.0000
  C   C851      1.0  0.20884  0.44150  0.34999  1.0000
  C   C852      1.0  0.21239  0.44355  0.37524  1.0000
  C   C853      1.0  0.22002  0.45825  0.37709  1.0000
  H   H1477     1.0  0.22433  0.47886  0.30966  1.0000
  H   H1478     1.0  0.21051  0.45299  0.30683  1.0000
  H   H1479     1.0  0.20939  0.43361  0.39334  1.0000
  H   H1480     1.0  0.22284  0.45957  0.39654  1.0000
  C   C854      1.0  0.24663  0.41297  0.22596  1.0000
  C   C855      1.0  0.24626  0.42839  0.22422  1.0000
  C   C856      1.0  0.25999  0.44027  0.21406  1.0000
  C   C857      1.0  0.27419  0.43687  0.20522  1.0000
  C   C858      1.0  0.27461  0.42148  0.20649  1.0000
  C   C859      1.0  0.26085  0.40956  0.21699  1.0000
  H   H1481     1.0  0.23539  0.43120  0.23059  1.0000
  H   H1482     1.0  0.25956  0.45215  0.21287  1.0000
  H   H1483     1.0  0.28554  0.41877  0.19981  1.0000
  H   H1484     1.0  0.23941  0.44607  0.44371  1.0000
  H   H1485     1.0  0.23115  0.41838  0.14250  1.0000
  C   C860      1.0  0.26944  0.46688  0.13975  1.0000
  H   H1486     1.0  0.33421  0.13016  0.20677  1.0000
  C   C861      1.0  0.20791  0.08147  0.46970  1.0000
  C   C862      1.0  0.20035  0.27303  0.11740  1.0000
  C   C863      1.0  0.21747  0.04507  0.23750  1.0000
  H   H1487     1.0  0.37007  0.38933  0.10137  1.0000
  C   C864      1.0  0.24329  0.01101  0.19608  1.0000
  C   C865      1.0  0.20867  0.43708  0.47424  1.0000
  C   C866      1.0  0.21362  0.28752  0.10289  1.0000
  H   H1488     1.0  0.20777  0.45849  0.13884  1.0000
  H   H1489     1.0  0.36750  0.99298  0.08240  1.0000
  C   C867      1.0  0.24226  0.44039  0.14914  1.0000
  C   C868      1.0  0.37597  0.15250  0.26743  1.0000
  C   C869      1.0  0.24899  0.12057  0.46487  1.0000
  H   H1490     1.0  0.20041  0.12895  0.18809  1.0000
  H   H1491     1.0  0.31538  0.12254  0.38083  1.0000
  H   H1492     1.0  0.25289  0.00739  0.18400  1.0000
  C   C870      1.0  0.37844  0.37632  0.20052  1.0000
  H   H1493     1.0  0.20549  0.26318  0.12280  1.0000
  S   S204      1.0  0.22509  0.48904  0.43458  1.0000
  H   H1494     1.0  0.24791  0.45985  0.33428  1.0000
  H   H1495     1.0  0.34308  0.42218  0.99944  1.0000
  C   C871      1.0  0.21493  0.12954  0.13513  1.0000
  H   H1496     1.0  0.20940  0.25700  0.16529  1.0000
  H   H1497     1.0  0.32648  0.28772  0.01844  1.0000
  H   H1498     1.0  0.20462  0.08434  0.42728  1.0000
  C   C872      1.0  0.24223  0.20313  0.11746  1.0000
  H   H1499     1.0  0.22119  0.28962  0.11716  1.0000
  H   H1500     1.0  0.22071  0.28579  0.08351  1.0000
  H   H1501     1.0  0.20913  0.29785  0.09668  1.0000
  S   S205      1.0  0.19877  0.99970  0.20367  1.0000
  S   S206      1.0  0.20517  0.04670  0.18985  1.0000
  H   H1502     1.0  0.29196  0.45753  0.11833  1.0000
  H   H1503     1.0  0.22467  0.12816  0.11935  1.0000
  H   H1504     1.0  0.23480  0.39960  0.29962  1.0000
  H   H1505     1.0  0.27717  0.01306  0.04123  1.0000
  H   H1506     1.0  0.35245  0.26642  0.07737  1.0000
  H   H1507     1.0  0.25929  0.41822  0.29516  1.0000
  H   H1508     1.0  0.36550  0.10408  0.16057  1.0000
  C   C873      1.0  0.35312  0.38652  0.05565  1.0000
  S   S207      1.0  0.30934  0.33382  0.98851  1.0000
  C   C874      1.0  0.33053  0.38282  0.03643  1.0000
  H   H1509     1.0  0.29798  0.43029  0.27990  1.0000
  H   H1510     1.0  0.28485  0.00049  0.11161  1.0000
  H   H1511     1.0  0.36494  0.37640  0.02352  1.0000
  H   H1512     1.0  0.20886  0.08993  0.29308  1.0000
  C   C875      1.0  0.35813  0.37277  0.04591  1.0000
  H   H1513     1.0  0.26170  0.02102  0.03246  1.0000
  H   H1514     1.0  0.28572  0.45756  0.25395  1.0000
  H   H1515     1.0  0.37031  0.37195  0.15598  1.0000
  C   C876      1.0  0.30282  0.11878  0.38267  1.0000
  H   H1516     1.0  0.19878  0.08257  0.25520  1.0000
  C   C877      1.0  0.24808  0.19553  0.16539  1.0000
  H   H1517     1.0  0.27663  0.16038  0.21119  1.0000
  H   H1518     1.0  0.36222  0.42541  0.21014  1.0000
  H   H1519     1.0  0.32610  0.37337  0.05658  1.0000
  H   H1520     1.0  0.33083  0.30741  0.99702  1.0000
  H   H1521     1.0  0.19989  0.46468  0.47629  1.0000
  H   H1522     1.0  0.33190  0.16221  0.19432  1.0000
  H   H1523     1.0  0.27776  0.44134  0.07822  1.0000
  H   H1524     1.0  0.19222  0.43511  0.13124  1.0000
  H   H1525     1.0  0.27729  0.03150  0.98201  1.0000
  H   H1526     1.0  0.30943  0.14086  0.40922  1.0000
  H   H1527     1.0  0.25779  0.45191  0.26513  1.0000
  H   H1528     1.0  0.24652  0.00081  0.06571  1.0000
  H   H1529     1.0  0.34795  0.36321  0.04831  1.0000
  C   C878      1.0  0.25132  0.18463  0.21246  1.0000
  C   C879      1.0  0.24843  0.42188  0.30020  1.0000
  H   H1530     1.0  0.33889  0.15347  0.16660  1.0000
  C   C880      1.0  0.18675  0.44000  0.14797  1.0000
  H   H1531     1.0  0.30120  0.11413  0.36438  1.0000
  C   C881      1.0  0.35113  0.15206  0.19975  1.0000
  C   C882      1.0  0.28652  0.15378  0.43993  1.0000
  H   H1532     1.0  0.19648  0.33779  0.32237  1.0000
  H   H1533     1.0  0.33069  0.41187  0.04366  1.0000
  H   H1534     1.0  0.25776  0.00425  0.00037  1.0000
  C   C883      1.0  0.33819  0.40584  0.05419  1.0000
  C   C884      1.0  0.18944  0.27524  0.14366  1.0000
  H   H1535     1.0  0.37810  0.21295  0.42096  1.0000
  C   C885      1.0  0.26305  0.46039  0.37790  1.0000
  N   N52       1.0  0.25665  0.35657  0.18612  1.0000
  C   C886      1.0  0.26590  0.36172  0.20576  1.0000
  C   C887      1.0  0.23981  0.35072  0.20213  1.0000
  C   C888      1.0  0.26188  0.34302  0.17791  1.0000
  C   C889      1.0  0.25887  0.36923  0.15947  1.0000
  C   C890      1.0  0.26204  0.38626  0.16187  1.0000
  C   C891      1.0  0.28369  0.36545  0.19428  1.0000
  C   C892      1.0  0.25273  0.33480  0.15995  1.0000
  C   C893      1.0  0.23205  0.36251  0.21382  1.0000
  C   C894      1.0  0.21566  0.35460  0.23226  1.0000
  C   C895      1.0  0.26048  0.39735  0.13568  1.0000
  C   C896      1.0  0.29211  0.37580  0.20965  1.0000
  C   C897      1.0  0.26047  0.32293  0.14950  1.0000
  H   H1536     1.0  0.26272  0.35256  0.22618  1.0000
  H   H1537     1.0  0.26306  0.37201  0.21181  1.0000
  H   H1538     1.0  0.23269  0.34661  0.18837  1.0000
  H   H1539     1.0  0.23823  0.34046  0.22019  1.0000
  H   H1540     1.0  0.26150  0.33400  0.19717  1.0000
  H   H1541     1.0  0.27416  0.34687  0.16526  1.0000
  H   H1542     1.0  0.26875  0.36897  0.14248  1.0000
  H   H1543     1.0  0.24868  0.36700  0.15060  1.0000
  H   H1544     1.0  0.27396  0.39018  0.16388  1.0000
  H   H1545     1.0  0.25406  0.38762  0.18044  1.0000
  H   H1546     1.0  0.28751  0.35451  0.19721  1.0000
  H   H1547     1.0  0.28736  0.37136  0.17143  1.0000
  H   H1548     1.0  0.25197  0.34333  0.14115  1.0000
  H   H1549     1.0  0.24090  0.32833  0.17276  1.0000
  H   H1550     1.0  0.23846  0.36807  0.22710  1.0000
  H   H1551     1.0  0.23106  0.37160  0.19610  1.0000
  H   H1552     1.0  0.21582  0.34562  0.25102  1.0000
  H   H1553     1.0  0.21032  0.36339  0.23991  1.0000
  H   H1554     1.0  0.20840  0.34913  0.21995  1.0000
  H   H1555     1.0  0.26816  0.39643  0.11616  1.0000
  H   H1556     1.0  0.24835  0.39474  0.13411  1.0000
  H   H1557     1.0  0.26377  0.40945  0.13738  1.0000
  H   H1558     1.0  0.28933  0.38728  0.20588  1.0000
  H   H1559     1.0  0.28886  0.37020  0.23275  1.0000
  H   H1560     1.0  0.30477  0.37782  0.20144  1.0000
  H   H1561     1.0  0.26124  0.31390  0.16759  1.0000
  H   H1562     1.0  0.25365  0.31710  0.13697  1.0000
  H   H1563     1.0  0.27224  0.32872  0.13566  1.0000
  N   N53       1.0  0.25721  0.04037  0.17547  1.0000
  C   C898      1.0  0.24907  0.02707  0.20143  1.0000
  C   C899      1.0  0.26166  0.05535  0.18385  1.0000
  C   C900      1.0  0.24589  0.04225  0.15766  1.0000
  C   C901      1.0  0.27105  0.03714  0.15773  1.0000
  C   C902      1.0  0.28373  0.03369  0.17245  1.0000
  H   H1564     1.0  0.37648  0.37552  0.22353  1.0000
  C   C903      1.0  0.25114  0.05659  0.13148  1.0000
  C   C904      1.0  0.26626  0.05430  0.21226  1.0000
  C   C905      1.0  0.27296  0.07044  0.21534  1.0000
  C   C906      1.0  0.29583  0.02844  0.15336  1.0000
  H   H1565     1.0  0.36153  0.40635  0.18077  1.0000
  C   C907      1.0  0.23846  0.05738  0.11597  1.0000
  H   H1566     1.0  0.23887  0.02990  0.21368  1.0000
  H   H1567     1.0  0.25651  0.02537  0.21611  1.0000
  H   H1568     1.0  0.27118  0.06392  0.16672  1.0000
  H   H1569     1.0  0.25178  0.06087  0.18627  1.0000
  H   H1570     1.0  0.23480  0.04284  0.17096  1.0000
  H   H1571     1.0  0.24299  0.03198  0.14939  1.0000
  H   H1572     1.0  0.26733  0.02737  0.14857  1.0000
  H   H1573     1.0  0.27699  0.04720  0.13908  1.0000
  H   H1574     1.0  0.27896  0.02436  0.19247  1.0000
  H   H1575     1.0  0.28981  0.04441  0.17672  1.0000
  C   C908      1.0  0.30237  0.44793  0.06882  1.0000
  H   H1576     1.0  0.31302  0.29364  0.99963  1.0000
  H   H1577     1.0  0.26146  0.05598  0.11608  1.0000
  H   H1578     1.0  0.25388  0.06760  0.13769  1.0000
  H   H1579     1.0  0.25589  0.04866  0.23029  1.0000
  H   H1580     1.0  0.27486  0.04746  0.21439  1.0000
  H   H1581     1.0  0.26468  0.07776  0.21339  1.0000
  H   H1582     1.0  0.27520  0.06940  0.23657  1.0000
  H   H1583     1.0  0.28399  0.07623  0.19895  1.0000
  C   C909      1.0  0.36952  0.40397  0.21908  1.0000
  H   H1584     1.0  0.34993  0.17187  0.16817  1.0000
  C   C910      1.0  0.24220  0.99155  0.05586  1.0000
  H   H1585     1.0  0.26369  0.22808  0.14981  1.0000
  C   C911      1.0  0.28270  0.02830  0.99961  1.0000
  H   H1586     1.0  0.23970  0.41639  0.17218  1.0000
  H   H1587     1.0  0.23584  0.04697  0.10788  1.0000
  H   H1588     1.0  0.22777  0.05811  0.13031  1.0000
  H   H1589     1.0  0.24234  0.06784  0.09769  1.0000
  C   C912      1.0  0.22206  0.07058  0.20645  1.0000
  C   C913      1.0  0.19923  0.09460  0.25696  1.0000
  S   S208      1.0  0.30888  0.99930  0.04688  1.0000
  H   H1590     1.0  0.36297  0.30298  0.15720  1.0000
  H   H1591     1.0  0.23968  0.21136  0.24094  1.0000
  N   N54       1.0  0.24855  0.19864  0.19378  1.0000
  H   H1592     1.0  0.21387  0.21528  0.23892  1.0000
  H   H1593     1.0  0.29491  0.38028  0.01947  1.0000
  H   H1594     1.0  0.26586  0.16787  0.41940  1.0000
  H   H1595     1.0  0.25283  0.46525  0.38126  1.0000
  H   H1596     1.0  0.35498  0.15982  0.21270  1.0000
  H   H1597     1.0  0.30096  0.03727  0.13266  1.0000
  C   C914      1.0  0.25938  0.45728  0.33022  1.0000
  H   H1598     1.0  0.35147  0.12163  0.17949  1.0000
  H   H1599     1.0  0.36006  0.25879  0.16798  1.0000
  H   H1600     1.0  0.22616  0.00141  0.23683  1.0000
  C   C915      1.0  0.37331  0.47714  0.19913  1.0000
  H   H1601     1.0  0.29057  0.01724  0.14955  1.0000
  C   C916      1.0  0.37013  0.40104  0.18950  1.0000
  H   H1602     1.0  0.18693  0.46077  0.45466  1.0000
  C   C917      1.0  0.25045  0.46948  0.05339  1.0000
  C   C918      1.0  0.35121  0.37592  0.20640  1.0000
  C   C919      1.0  0.34476  0.35922  0.20412  1.0000
  C   C920      1.0  0.32834  0.35219  0.22295  1.0000
  H   H1603     1.0  0.21391  0.10375  0.21494  1.0000
  H   H1604     1.0  0.35686  0.38341  0.15360  1.0000
  H   H1605     1.0  0.34290  0.38280  0.20107  1.0000
  H   H1606     1.0  0.35049  0.37481  0.22921  1.0000
  H   H1607     1.0  0.38035  0.21677  0.47207  1.0000
  C   C921      1.0  0.37451  0.04682  0.08111  1.0000
  H   H1608     1.0  0.35196  0.35140  0.21074  1.0000
  H   H1609     1.0  0.34424  0.35924  0.18222  1.0000
  N   N55       1.0  0.26085  0.44850  0.30775  1.0000
  H   H1610     1.0  0.32808  0.35144  0.24550  1.0000
  H   H1611     1.0  0.32053  0.35933  0.21637  1.0000
  H   H1612     1.0  0.32401  0.34029  0.22091  1.0000
  H   H1613     1.0  0.26567  0.10842  0.47588  1.0000
  H   H1614     1.0  0.25416  0.18736  0.23176  1.0000
  S   S209      1.0  0.36800  0.45944  0.19014  1.0000
  H   H1615     1.0  0.25803  0.46888  0.14855  1.0000
  H   H1616     1.0  0.23149  0.19059  0.25302  1.0000
  H   H1617     1.0  0.27497  0.99846  0.00300  1.0000
  H   H1618     1.0  0.23559  0.20978  0.10553  1.0000
  H   H1619     1.0  0.23065  0.21125  0.19600  1.0000
  C   C922      1.0  0.37527  0.33967  0.13514  1.0000
  H   H1620     1.0  0.28809  0.30319  0.00143  1.0000
  H   H1621     1.0  0.23428  0.01126  0.18434  1.0000
  H   H1622     1.0  0.25470  0.20820  0.10686  1.0000
  C   C923      1.0  0.36817  0.36610  0.06366  1.0000
  H   H1623     1.0  0.37430  0.15167  0.22576  1.0000
  H   H1624     1.0  0.37570  0.40720  0.13160  1.0000
  C   C924      1.0  0.21025  0.11588  0.16157  1.0000
  C   C925      1.0  0.23086  0.20158  0.23914  1.0000
  C   C926      1.0  0.27727  0.44701  0.29996  1.0000
  C   C927      1.0  0.27853  0.15424  0.39625  1.0000
  H   H1625     1.0  0.26251  0.21380  0.21206  1.0000
  H   H1626     1.0  0.18617  0.06948  0.16964  1.0000
  C   C928      1.0  0.30525  0.16816  0.39508  1.0000
  C   C929      1.0  0.31219  0.17102  0.36297  1.0000
  C   C930      1.0  0.27116  0.16808  0.39725  1.0000
  H   H1627     1.0  0.23829  0.43418  0.47834  1.0000
  C   C931      1.0  0.32394  0.18680  0.35056  1.0000
  C   C932      1.0  0.25828  0.16726  0.38198  1.0000
  C   C933      1.0  0.34060  0.13642  0.21940  1.0000
  H   H1628     1.0  0.24260  0.18300  0.16828  1.0000
  H   H1629     1.0  0.28163  0.15405  0.37373  1.0000
  H   H1630     1.0  0.37470  0.08278  0.99925  1.0000
  H   H1631     1.0  0.34333  0.26933  0.11067  1.0000
  H   H1632     1.0  0.30188  0.17876  0.39886  1.0000
  H   H1633     1.0  0.31506  0.16751  0.40483  1.0000
  H   H1634     1.0  0.30329  0.17081  0.35096  1.0000
  H   H1635     1.0  0.31846  0.16211  0.35941  1.0000
  H   H1636     1.0  0.36569  0.41012  0.01158  1.0000
  H   H1637     1.0  0.27984  0.17932  0.38680  1.0000
  C   C934      1.0  0.24654  0.99968  0.12990  1.0000
  C   C935      1.0  0.28474  0.45809  0.10285  1.0000
  C   C936      1.0  0.18493  0.33967  0.33017  1.0000
  H   H1638     1.0  0.31841  0.19636  0.35332  1.0000
  H   H1639     1.0  0.33366  0.18739  0.36078  1.0000
  H   H1640     1.0  0.32876  0.18847  0.32753  1.0000
  H   H1641     1.0  0.25301  0.17714  0.38319  1.0000
  C   C937      1.0  0.35464  0.40328  0.00953  1.0000
  H   H1642     1.0  0.24912  0.15626  0.39203  1.0000
  H   H1643     1.0  0.28542  0.43382  0.10680  1.0000
  C   C938      1.0  0.34237  0.16037  0.18111  1.0000
  H   H1644     1.0  0.21261  0.03265  0.24306  1.0000
  C   C939      1.0  0.29931  0.44197  0.26594  1.0000
  C   C940      1.0  0.33379  0.48153  0.05618  1.0000
  H   H1645     1.0  0.36198  0.36230  0.08648  1.0000
  C   C941      1.0  0.25881  0.44204  0.13139  1.0000
  H   H1646     1.0  0.30066  0.14123  0.36225  1.0000
  H   H1647     1.0  0.27026  0.46104  0.05696  1.0000
  H   H1648     1.0  0.26003  0.19783  0.15191  1.0000
  C   C942      1.0  0.33580  0.48616  0.02682  1.0000
  H   H1649     1.0  0.19238  0.42290  0.44127  1.0000
  H   H1650     1.0  0.19343  0.22736  0.21351  1.0000
  C   C943      1.0  0.23863  0.20424  0.14803  1.0000
  C   C944      1.0  0.36081  0.12152  0.21679  1.0000
  C   C945      1.0  0.33624  0.11118  0.25278  1.0000
  C   C946      1.0  0.35578  0.11371  0.19427  1.0000
  C   C947      1.0  0.32317  0.11282  0.27641  1.0000
  H   H1651     1.0  0.30198  0.14072  0.45762  1.0000
  C   C948      1.0  0.31253  0.09697  0.29349  1.0000
  H   H1652     1.0  0.30787  0.45073  0.27106  1.0000
  H   H1653     1.0  0.35444  0.12456  0.27609  1.0000
  H   H1654     1.0  0.34184  0.10247  0.26281  1.0000
  H   H1655     1.0  0.33023  0.10582  0.23870  1.0000
  H   H1656     1.0  0.34668  0.10272  0.20418  1.0000
  H   H1657     1.0  0.31588  0.11970  0.26706  1.0000
  H   H1658     1.0  0.32779  0.11850  0.29151  1.0000
  H   H1659     1.0  0.38234  0.07184  0.02503  1.0000
  H   H1660     1.0  0.35878  0.42574  0.03825  1.0000
  H   H1661     1.0  0.31909  0.08954  0.30395  1.0000
  H   H1662     1.0  0.30334  0.09855  0.31015  1.0000
  H   H1663     1.0  0.30692  0.09104  0.27959  1.0000
  H   H1664     1.0  0.37383  0.10128  0.19024  1.0000
  C   C949      1.0  0.21231  0.07975  0.43956  1.0000
  H   H1665     1.0  0.19474  0.45513  0.17332  1.0000
  H   H1666     1.0  0.28547  0.45705  0.30277  1.0000
  H   H1667     1.0  0.19673  0.28131  0.15532  1.0000
  C   C950      1.0  0.31599  0.38823  0.03156  1.0000
  H   H1668     1.0  0.21110  0.06734  0.43979  1.0000
  N   N56       1.0  0.36738  0.38429  0.18843  1.0000
  H   H1669     1.0  0.22608  0.19897  0.15757  1.0000
  C   C951      1.0  0.23326  0.42330  0.16025  1.0000
  C   C952      1.0  0.18767  0.08892  0.20624  1.0000
  C   C953      1.0  0.36847  0.27393  0.10131  1.0000
  H   H1670     1.0  0.18917  0.26195  0.19791  1.0000
  C   C954      1.0  0.18835  0.43210  0.44990  1.0000
  H   H1671     1.0  0.22673  0.04436  0.27411  1.0000
  H   H1672     1.0  0.36135  0.15048  0.18550  1.0000
  H   H1673     1.0  0.34751  0.14099  0.26440  1.0000
  H   H1674     1.0  0.25108  0.43944  0.37093  1.0000
  S   S210      1.0  0.20621  0.02014  0.13735  1.0000
  H   H1675     1.0  0.22310  0.09950  0.26007  1.0000
  H   H1676     1.0  0.28665  0.03883  0.00668  1.0000
  C   C955      1.0  0.26141  0.44915  0.35930  1.0000
  H   H1677     1.0  0.37028  0.29625  0.11070  1.0000
  H   H1678     1.0  0.27378  0.17232  0.23523  1.0000
  C   C956      1.0  0.26834  0.16618  0.22140  1.0000
  H   H1679     1.0  0.23890  0.19082  0.11679  1.0000
  H   H1680     1.0  0.28366  0.16488  0.44182  1.0000
  C   C957      1.0  0.20311  0.23775  0.20200  1.0000
  H   H1681     1.0  0.26796  0.46879  0.32273  1.0000
  C   C958      1.0  0.21859  0.42698  0.46172  1.0000
  Fe  Fe104     1.0  0.20775  0.99677  0.16026  1.0000
  H   H1682     1.0  0.18326  0.13241  0.22238  1.0000
  C   C959      1.0  0.37243  0.24280  0.18393  1.0000
  H   H1683     1.0  0.34918  0.99343  0.10342  1.0000
  C   C960      1.0  0.37990  0.39646  0.13400  1.0000
  C   C961      1.0  0.26169  0.21237  0.19085  1.0000
  H   H1684     1.0  0.35822  0.39787  0.23435  1.0000
  C   C962      1.0  0.27422  0.24131  0.17441  1.0000
  N   N57       1.0  0.29203  0.15394  0.40920  1.0000
  S   S211      1.0  0.18508  0.39626  0.24936  1.0000
  H   H1685     1.0  0.30589  0.00201  0.98617  1.0000
  C   C963      1.0  0.35072  0.41861  0.05871  1.0000
  H   H1686     1.0  0.31880  0.39945  0.01554  1.0000
  H   H1687     1.0  0.33156  0.13956  0.23395  1.0000
  H   H1688     1.0  0.19854  0.08632  0.19638  1.0000
  C   C964      1.0  0.19916  0.24716  0.17653  1.0000
  C   C965      1.0  0.19963  0.44945  0.15726  1.0000
  H   H1689     1.0  0.21871  0.14068  0.14052  1.0000
  H   H1690     1.0  0.19515  0.44324  0.43424  1.0000
  H   H1691     1.0  0.30157  0.36488  0.03817  1.0000
  H   H1692     1.0  0.24265  0.42693  0.44766  1.0000
  Fe  Fe105     1.0  0.37496  0.18825  0.29819  1.0000
  H   H1693     1.0  0.30523  0.02675  0.16369  1.0000
  H   H1694     1.0  0.27593  0.43748  0.26288  1.0000
  H   H1695     1.0  0.36080  0.28455  0.18123  1.0000
  H   H1696     1.0  0.34444  0.48276  0.01289  1.0000
  H   H1697     1.0  0.37262  0.14489  0.28938  1.0000
  H   H1698     1.0  0.24079  0.21666  0.14748  1.0000
  H   H1699     1.0  0.37877  0.12020  0.16521  1.0000
  H   H1700     1.0  0.30362  0.43767  0.06078  1.0000
  H   H1701     1.0  0.30370  0.45791  0.05053  1.0000
  H   H1702     1.0  0.34638  0.38185  0.07827  1.0000
  H   H1703     1.0  0.33440  0.37706  0.01968  1.0000
  S   S212      1.0  0.20719  0.16426  0.17170  1.0000
  C   C966      1.0  0.27115  0.01583  0.02448  1.0000
  C   C967      1.0  0.27440  0.00438  0.11187  1.0000
  H   H1704     1.0  0.22377  0.19092  0.20771  1.0000
  C   C968      1.0  0.37173  0.42124  0.21735  1.0000
  H   H1705     1.0  0.23762  0.40050  0.33395  1.0000
  C   C969      1.0  0.26153  0.46719  0.09606  1.0000
  C   C970      1.0  0.19658  0.11748  0.18393  1.0000
  C   C971      1.0  0.26149  0.22820  0.17241  1.0000
  C   C972      1.0  0.36872  0.29620  0.17105  1.0000
  H   H1706     1.0  0.27854  0.43664  0.31482  1.0000
  H   H1707     1.0  0.31175  0.45080  0.07924  1.0000
  C   C973      1.0  0.18788  0.45913  0.47676  1.0000
  H   H1708     1.0  0.25246  0.42602  0.33864  1.0000
  H   H1709     1.0  0.21557  0.41506  0.47588  1.0000
  H   H1710     1.0  0.22424  0.41004  0.31987  1.0000
  H   H1711     1.0  0.27414  0.25246  0.16022  1.0000
  H   H1712     1.0  0.23773  0.43414  0.32810  1.0000
  C   C974      1.0  0.28380  0.44615  0.26927  1.0000
  H   H1713     1.0  0.36333  0.06393  0.02187  1.0000
  H   H1714     1.0  0.28309  0.12802  0.38383  1.0000
  C   C975      1.0  0.26421  0.17763  0.19882  1.0000
  H   H1715     1.0  0.35387  0.48548  0.19078  1.0000
  H   H1716     1.0  0.21698  0.42619  0.44067  1.0000
  H   H1717     1.0  0.35739  0.41344  0.07264  1.0000
  H   H1718     1.0  0.26905  0.47913  0.08589  1.0000
  H   H1719     1.0  0.26925  0.47606  0.22666  1.0000
  H   H1720     1.0  0.25756  0.43512  0.11593  1.0000
  H   H1721     1.0  0.37154  0.42321  0.23856  1.0000
  H   H1722     1.0  0.26923  0.14344  0.40703  1.0000
  H   H1723     1.0  0.24058  0.17508  0.22035  1.0000
  H   H1724     1.0  0.33670  0.43540  0.06001  1.0000
  C   C976      1.0  0.37306  0.32784  0.09652  1.0000
  C   C977      1.0  0.28656  0.44433  0.08968  1.0000
  H   H1725     1.0  0.20546  0.24495  0.21673  1.0000
  H   H1726     1.0  0.28574  0.23910  0.16768  1.0000
  H   H1727     1.0  0.27492  0.18665  0.18677  1.0000
  C   C978      1.0  0.35354  0.27391  0.09209  1.0000
  H   H1728     1.0  0.27291  0.21026  0.18141  1.0000
  H   H1729     1.0  0.37105  0.26469  0.19188  1.0000
  C   C979      1.0  0.26474  0.00105  0.01548  1.0000
  C   C980      1.0  0.25620  0.45727  0.28306  1.0000
  H   H1730     1.0  0.33578  0.42314  0.09430  1.0000
  H   H1731     1.0  0.25719  0.48181  0.04454  1.0000
  C   C981      1.0  0.23548  0.40710  0.31440  1.0000
  H   H1732     1.0  0.24358  0.45649  0.28903  1.0000
  C   C982      1.0  0.21140  0.09889  0.27270  1.0000
  H   H1733     1.0  0.35268  0.43869  0.07561  1.0000
  C   C983      1.0  0.34343  0.42957  0.07302  1.0000
  H   H1734     1.0  0.20715  0.10509  0.15481  1.0000
  Fe  Fe106     1.0  0.19364  0.18150  0.15699  1.0000
  H   H1735     1.0  0.30383  0.44179  0.24368  1.0000
  H   H1736     1.0  0.29298  0.02417  0.99185  1.0000
  C   C984      1.0  0.29546  0.13243  0.38270  1.0000
  C   C985      1.0  0.37086  0.30416  0.19446  1.0000
  H   H1737     1.0  0.35939  0.28019  0.13901  1.0000
  C   C986      1.0  0.38214  0.33460  0.11239  1.0000
  C   C987      1.0  0.37186  0.14331  0.24661  1.0000
  H   H1738     1.0  0.21312  0.44898  0.45963  1.0000
  H   H1739     1.0  0.19593  0.16883  0.22790  1.0000
  H   H1740     1.0  0.36599  0.11354  0.22981  1.0000
  C   C988      1.0  0.37026  0.28430  0.12193  1.0000
  H   H1741     1.0  0.20609  0.44165  0.16701  1.0000
  H   H1742     1.0  0.23570  0.44658  0.13634  1.0000
  H   H1743     1.0  0.22195  0.42222  0.17487  1.0000
  H   H1744     1.0  0.29723  0.10931  0.40238  1.0000
  H   H1745     1.0  0.23574  0.99664  0.04123  1.0000
  H   H1746     1.0  0.20512  0.13007  0.12537  1.0000
  H   H1747     1.0  0.37487  0.29681  0.21068  1.0000
  H   H1748     1.0  0.37881  0.40013  0.22757  1.0000
  H   H1749     1.0  0.37001  0.16199  0.26675  1.0000
  H   H1750     1.0  0.25082  0.47948  0.24159  1.0000
  C   C989      1.0  0.25924  0.11128  0.46050  1.0000
  C   C990      1.0  0.20336  0.10599  0.22709  1.0000
  H   H1751     1.0  0.21939  0.99525  0.09745  1.0000
  H   H1752     1.0  0.19387  0.27069  0.10163  1.0000
  H   H1753     1.0  0.35360  0.28586  0.08093  1.0000
  H   H1754     1.0  0.29331  0.48175  0.12436  1.0000
  H   H1755     1.0  0.37945  0.31558  0.18566  1.0000
  C   C991      1.0  0.23577  0.43401  0.45763  1.0000
  H   H1756     1.0  0.35971  0.30606  0.20483  1.0000
  C   C992      1.0  0.38101  0.06717  0.11503  1.0000
  C   C993      1.0  0.37118  0.25945  0.17375  1.0000
  C   C994      1.0  0.23603  0.99845  0.22396  1.0000
  H   H1757     1.0  0.36294  0.23648  0.20318  1.0000
  C   C995      1.0  0.37516  0.07092  0.00975  1.0000
  H   H1758     1.0  0.27705  0.47688  0.27104  1.0000
  H   H1759     1.0  0.37849  0.32394  0.07894  1.0000
  H   H1760     1.0  0.33964  0.40709  0.98130  1.0000
  H   H1761     1.0  0.37617  0.36408  0.19924  1.0000
  H   H1762     1.0  0.37155  0.23655  0.16731  1.0000
  H   H1763     1.0  0.36803  0.26174  0.11155  1.0000
  S   S213      1.0  0.37993  0.21031  0.31224  1.0000
  C   C996      1.0  0.26316  0.48150  0.24189  1.0000
  H   H1764     1.0  0.18432  0.43629  0.04307  1.0000
  C   C997      1.0  0.38215  0.06303  0.98803  1.0000
  C   C998      1.0  0.29800  0.15137  0.45848  1.0000
  H   H1765     1.0  0.24469  0.99706  0.23627  1.0000
  N   N58       1.0  0.19150  0.43147  0.47852  1.0000
  H   H1766     1.0  0.27562  0.14452  0.45022  1.0000
  H   H1767     1.0  0.36576  0.99584  0.11753  1.0000
  H   H1768     1.0  0.38255  0.05145  0.99992  1.0000
  C   C999      1.0  0.36432  0.48788  0.19772  1.0000
  H   H1769     1.0  0.18541  0.12119  0.25492  1.0000
  Fe  Fe107     1.0  0.24649  0.48893  0.44969  1.0000
  H   H1770     1.0  0.37966  0.13549  0.24485  1.0000
  C   C1000     1.0  0.38151  0.39206  0.10596  1.0000
  H   H1771     1.0  0.18640  0.35202  0.33066  1.0000
  H   H1772     1.0  0.23036  0.08445  0.47597  1.0000
  H   H1773     1.0  0.18464  0.33134  0.37376  1.0000
  C   C1001     1.0  0.18510  0.25348  0.18631  1.0000
  H   H1774     1.0  0.18392  0.46137  0.12374  1.0000
  H   H1775     1.0  0.38154  0.40811  0.17568  1.0000
  H   H1776     1.0  0.38293  0.42820  0.20244  1.0000
  H   H1777     1.0  0.18330  0.28379  0.13505  1.0000
  C   C1002     1.0  0.35990  0.98964  0.10424  1.0000
  S   S214      1.0  0.23554  0.48953  0.35349  1.0000
  Fe  Fe108     1.0  0.20688  0.40209  0.65370  1.0000
  S   S215      1.0  0.23128  0.40665  0.65973  1.0000
  H   H1778     1.0  0.19332  0.21433  0.82158  1.0000
  S   S216      1.0  0.20462  0.40093  0.61022  1.0000
  H   H1779     1.0  0.20854  0.11982  0.50384  1.0000
  S   S217      1.0  0.36805  0.19017  0.68360  1.0000
  C   C1003     1.0  0.23721  0.99123  0.74843  1.0000
  S   S218      1.0  0.36434  0.21787  0.63433  1.0000
  H   H1780     1.0  0.36670  0.41666  0.95174  1.0000
  Fe  Fe109     1.0  0.35782  0.19164  0.64587  1.0000
  S   S219      1.0  0.33386  0.17520  0.65386  1.0000
  H   H1781     1.0  0.18610  0.28390  0.61870  1.0000
  C   C1004     1.0  0.37247  0.06161  0.96620  1.0000
  H   H1782     1.0  0.23930  0.26771  0.84029  1.0000
  Fe  Fe110     1.0  0.31195  0.46668  0.73929  1.0000
  S   S220      1.0  0.31665  0.45303  0.77816  1.0000
  C   C1005     1.0  0.21225  0.03565  0.64527  1.0000
  Fe  Fe111     1.0  0.27847  0.44712  0.75329  1.0000
  S   S221      1.0  0.28065  0.43225  0.79356  1.0000
  S   S222      1.0  0.25478  0.44351  0.74407  1.0000
  Fe  Fe112     1.0  0.29327  0.45438  0.80068  1.0000
  S   S223      1.0  0.28721  0.45796  0.84484  1.0000
  Fe  Fe113     1.0  0.30371  0.43210  0.76787  1.0000
  S   S224      1.0  0.31334  0.41099  0.76976  1.0000
  S   S225      1.0  0.28924  0.46942  0.76245  1.0000
  S   S226      1.0  0.30086  0.44557  0.72689  1.0000
  Fe  Fe114     1.0  0.28067  0.29155  0.81232  1.0000
  S   S227      1.0  0.26788  0.30046  0.84626  1.0000
  S   S228      1.0  0.27297  0.26941  0.79903  1.0000
  Fe  Fe115     1.0  0.31077  0.31582  0.80377  1.0000
  S   S229      1.0  0.30070  0.32685  0.83679  1.0000
  S   S230      1.0  0.33519  0.32498  0.77625  1.0000
  Fe  Fe116     1.0  0.28905  0.30244  0.86282  1.0000
  S   S231      1.0  0.28665  0.29297  0.90960  1.0000
  Fe  Fe117     1.0  0.28042  0.32431  0.81783  1.0000
  S   S232      1.0  0.26819  0.34350  0.81204  1.0000
  S   S233      1.0  0.30091  0.29156  0.83135  1.0000
  S   S234      1.0  0.29143  0.31531  0.78245  1.0000
  Fe  Fe118     1.0  0.32537  0.01666  0.79966  1.0000
  H   H1783     1.0  0.19318  0.09297  0.50916  1.0000
  S   S235      1.0  0.34638  0.03710  0.77827  1.0000
  Fe  Fe119     1.0  0.29235  0.00337  0.79654  1.0000
  C   C1006     1.0  0.31233  0.25785  0.92644  1.0000
  S   S236      1.0  0.27429  0.00954  0.77415  1.0000
  H   H1784     1.0  0.27704  0.48535  0.81368  1.0000
  H   H1785     1.0  0.31438  0.25138  0.94620  1.0000
  C   C1007     1.0  0.29042  0.14980  0.48952  1.0000
  S   S237      1.0  0.30251  0.02079  0.81799  1.0000
  S   S238      1.0  0.31551  0.00077  0.77510  1.0000
  C   C1008     1.0  0.18654  0.48703  0.82059  1.0000
  Fe  Fe120     1.0  0.23883  0.14024  0.58879  1.0000
  S   S239      1.0  0.25336  0.13034  0.61523  1.0000
  S   S240      1.0  0.22420  0.15712  0.59737  1.0000
  Fe  Fe121     1.0  0.25026  0.12587  0.53977  1.0000
  S   S241      1.0  0.26587  0.11494  0.56297  1.0000
  Fe  Fe122     1.0  0.24565  0.10834  0.60188  1.0000
  S   S242      1.0  0.23760  0.08597  0.63819  1.0000
  Fe  Fe123     1.0  0.27236  0.13759  0.57507  1.0000
  S   S243      1.0  0.29669  0.15317  0.56768  1.0000
  S   S244      1.0  0.22976  0.11793  0.57812  1.0000
  S   S245      1.0  0.25818  0.14875  0.54917  1.0000
  Fe  Fe124     1.0  0.20566  0.23355  0.73178  1.0000
  H   H1786     1.0  0.19671  0.22406  0.88360  1.0000
  S   S246      1.0  0.21601  0.25477  0.74542  1.0000
  Fe  Fe125     1.0  0.20595  0.20494  0.70870  1.0000
  S   S247      1.0  0.21973  0.18722  0.70160  1.0000
  H   H1787     1.0  0.22095  0.37269  0.67613  1.0000
  H   H1788     1.0  0.36655  0.04015  0.86172  1.0000
  S   S248      1.0  0.21353  0.23069  0.68802  1.0000
  S   S249      1.0  0.19992  0.20794  0.75309  1.0000
  C   C1009     1.0  0.26015  0.99602  0.76632  1.0000
  H   H1789     1.0  0.24106  0.44707  0.64546  1.0000
  H   H1790     1.0  0.28698  0.99620  0.95820  1.0000
  H   H1791     1.0  0.21885  0.06086  0.68559  1.0000
  C   C1010     1.0  0.22225  0.16468  0.62737  1.0000
  C   C1011     1.0  0.22676  0.15823  0.65131  1.0000
  C   C1012     1.0  0.22569  0.16507  0.67417  1.0000
  C   C1013     1.0  0.21975  0.17819  0.67356  1.0000
  C   C1014     1.0  0.21470  0.18428  0.65008  1.0000
  C   C1015     1.0  0.21605  0.17762  0.62701  1.0000
  H   H1792     1.0  0.23110  0.14799  0.65213  1.0000
  H   H1793     1.0  0.22947  0.16017  0.69241  1.0000
  H   H1794     1.0  0.31083  0.27793  0.94134  1.0000
  H   H1795     1.0  0.27739  0.48206  0.50544  1.0000
  H   H1796     1.0  0.36403  0.45949  0.66815  1.0000
  C   C1016     1.0  0.32523  0.01136  0.94948  1.0000
  H   H1797     1.0  0.36364  0.01322  0.80498  1.0000
  C   C1017     1.0  0.31926  0.01190  0.90413  1.0000
  H   H1798     1.0  0.37253  0.47803  0.70998  1.0000
  C   C1018     1.0  0.37833  0.03797  0.95704  1.0000
  C   C1019     1.0  0.38083  0.06557  0.79653  1.0000
  S   S250      1.0  0.37532  0.23191  0.69927  1.0000
  H   H1799     1.0  0.23161  0.25591  0.87642  1.0000
  C   C1020     1.0  0.24860  0.00133  0.75562  1.0000
  H   H1800     1.0  0.31871  0.37113  0.95392  1.0000
  H   H1801     1.0  0.35812  0.32809  0.88611  1.0000
  H   H1802     1.0  0.37912  0.03049  0.75708  1.0000
  H   H1803     1.0  0.28650  0.16034  0.49191  1.0000
  H   H1804     1.0  0.24838  0.01330  0.75341  1.0000
  H   H1805     1.0  0.32590  0.30621  0.89565  1.0000
  H   H1806     1.0  0.37807  0.25472  0.73091  1.0000
  C   C1021     1.0  0.29230  0.30483  0.93124  1.0000
  H   H1807     1.0  0.23209  0.06976  0.59544  1.0000
  C   C1022     1.0  0.30232  0.31965  0.91963  1.0000
  C   C1023     1.0  0.20253  0.21817  0.60948  1.0000
  H   H1808     1.0  0.30633  0.32424  0.89692  1.0000
  C   C1024     1.0  0.25735  0.26565  0.78346  1.0000
  C   C1025     1.0  0.25353  0.25145  0.77646  1.0000
  C   C1026     1.0  0.24106  0.24797  0.76437  1.0000
  C   C1027     1.0  0.23228  0.25869  0.75925  1.0000
  C   C1028     1.0  0.23612  0.27287  0.76627  1.0000
  C   C1029     1.0  0.24860  0.27636  0.77824  1.0000
  H   H1809     1.0  0.26022  0.24308  0.78046  1.0000
  H   H1810     1.0  0.23819  0.23699  0.75915  1.0000
  H   H1811     1.0  0.22936  0.28120  0.76246  1.0000
  H   H1812     1.0  0.25141  0.28732  0.78355  1.0000
  C   C1030     1.0  0.22647  0.06721  0.64009  1.0000
  H   H1813     1.0  0.19844  0.21607  0.63275  1.0000
  C   C1031     1.0  0.37263  0.28884  0.73719  1.0000
  H   H1814     1.0  0.21956  0.45359  0.64136  1.0000
  H   H1815     1.0  0.29860  0.30499  0.72896  1.0000
  H   H1816     1.0  0.34138  0.48372  0.75601  1.0000
  C   C1032     1.0  0.30040  0.39245  0.78053  1.0000
  C   C1033     1.0  0.28471  0.39019  0.79313  1.0000
  C   C1034     1.0  0.27483  0.37513  0.80252  1.0000
  C   C1035     1.0  0.28062  0.36228  0.79946  1.0000
  C   C1036     1.0  0.29625  0.36454  0.78659  1.0000
  C   C1037     1.0  0.30610  0.37959  0.77712  1.0000
  H   H1817     1.0  0.28020  0.40002  0.79579  1.0000
  H   H1818     1.0  0.26273  0.37341  0.81248  1.0000
  H   H1819     1.0  0.30076  0.35469  0.78390  1.0000
  H   H1820     1.0  0.31820  0.38128  0.76722  1.0000
  H   H1821     1.0  0.22707  0.05743  0.52881  1.0000
  C   C1038     1.0  0.35701  0.29876  0.82199  1.0000
  C   C1039     1.0  0.34556  0.30536  0.81348  1.0000
  C   C1040     1.0  0.34915  0.31631  0.78736  1.0000
  C   C1041     1.0  0.36416  0.32053  0.76973  1.0000
  H   H1822     1.0  0.20612  0.11537  0.54170  1.0000
  C   C1042     1.0  0.24367  0.00123  0.66518  1.0000
  H   H1823     1.0  0.33402  0.30213  0.82719  1.0000
  H   H1824     1.0  0.36683  0.32875  0.74924  1.0000
  C   C1043     1.0  0.28728  0.29892  0.96079  1.0000
  H   H1825     1.0  0.24453  0.09206  0.51524  1.0000
  C   C1044     1.0  0.35696  0.03899  0.82600  1.0000
  C   C1045     1.0  0.35840  0.04562  0.79735  1.0000
  C   C1046     1.0  0.37029  0.05901  0.78280  1.0000
  H   H1826     1.0  0.31275  0.36386  0.91242  1.0000
  C   C1047     1.0  0.31436  0.37913  0.93928  1.0000
  H   H1827     1.0  0.34780  0.02870  0.83745  1.0000
  H   H1828     1.0  0.20180  0.25219  0.80174  1.0000
  C   C1048     1.0  0.30369  0.48807  0.88758  1.0000
  H   H1829     1.0  0.28767  0.47796  0.53212  1.0000
  H   H1830     1.0  0.37518  0.28515  0.71732  1.0000
  H   H1831     1.0  0.20108  0.31063  0.58971  1.0000
  H   H1832     1.0  0.21528  0.41962  0.70225  1.0000
  H   H1833     1.0  0.18956  0.11537  0.52747  1.0000
  C   C1049     1.0  0.22631  0.06188  0.61594  1.0000
  H   H1834     1.0  0.30557  0.29407  0.70536  1.0000
  H   H1835     1.0  0.30780  0.29041  0.76691  1.0000
  C   C1050     1.0  0.32424  0.16876  0.62923  1.0000
  C   C1051     1.0  0.32898  0.17619  0.60022  1.0000
  C   C1052     1.0  0.32046  0.17121  0.58178  1.0000
  C   C1053     1.0  0.30713  0.15872  0.59196  1.0000
  C   C1054     1.0  0.30257  0.15112  0.62087  1.0000
  C   C1055     1.0  0.31097  0.15620  0.63938  1.0000
  H   H1836     1.0  0.33911  0.18588  0.59205  1.0000
  H   H1837     1.0  0.32420  0.17712  0.55944  1.0000
  H   H1838     1.0  0.29257  0.14130  0.62894  1.0000
  H   H1839     1.0  0.30718  0.15034  0.66174  1.0000
  C   C1056     1.0  0.23170  0.46017  0.51058  1.0000
  C   C1057     1.0  0.21977  0.46757  0.51507  1.0000
  C   C1058     1.0  0.20651  0.46039  0.53752  1.0000
  C   C1059     1.0  0.20506  0.44577  0.55540  1.0000
  C   C1060     1.0  0.21703  0.43846  0.55092  1.0000
  C   C1061     1.0  0.23035  0.44568  0.52868  1.0000
  H   H1840     1.0  0.22079  0.47883  0.50132  1.0000
  H   H1841     1.0  0.35019  0.19736  0.78196  1.0000
  H   H1842     1.0  0.21602  0.42718  0.56435  1.0000
  H   H1843     1.0  0.23955  0.43990  0.52525  1.0000
  C   C1062     1.0  0.23759  0.41704  0.68314  1.0000
  C   C1063     1.0  0.25328  0.42017  0.68310  1.0000
  C   C1064     1.0  0.25873  0.42811  0.70180  1.0000
  C   C1065     1.0  0.24852  0.43304  0.72069  1.0000
  C   C1066     1.0  0.23283  0.42993  0.72066  1.0000
  C   C1067     1.0  0.22738  0.42199  0.70196  1.0000
  H   H1844     1.0  0.26127  0.41645  0.66848  1.0000
  H   H1845     1.0  0.27084  0.43053  0.70150  1.0000
  H   H1846     1.0  0.22486  0.43374  0.73517  1.0000
  H   H1847     1.0  0.18961  0.25336  0.83323  1.0000
  H   H1848     1.0  0.35812  0.04340  0.93214  1.0000
  C   C1068     1.0  0.34561  0.32538  0.88737  1.0000
  C   C1069     1.0  0.31282  0.29052  0.74471  1.0000
  H   H1849     1.0  0.31572  0.33949  0.92845  1.0000
  H   H1850     1.0  0.25270  0.47402  0.54147  1.0000
  C   C1070     1.0  0.30104  0.29364  0.72795  1.0000
  C   C1071     1.0  0.35500  0.99379  0.87453  1.0000
  H   H1851     1.0  0.26927  0.44190  0.57998  1.0000
  H   H1852     1.0  0.19414  0.48408  0.83449  1.0000
  H   H1853     1.0  0.20634  0.03321  0.69013  1.0000
  H   H1854     1.0  0.22034  0.06456  0.48364  1.0000
  H   H1855     1.0  0.21215  0.24302  0.60274  1.0000
  H   H1856     1.0  0.27263  0.46625  0.58324  1.0000
  C   C1072     1.0  0.21603  0.23270  0.59881  1.0000
  H   H1857     1.0  0.22167  0.19151  0.83001  1.0000
  H   H1858     1.0  0.37776  0.09648  0.76562  1.0000
  H   H1859     1.0  0.37382  0.35719  0.79261  1.0000
  H   H1860     1.0  0.25389  0.42231  0.56252  1.0000
  H   H1861     1.0  0.33132  0.33232  0.85944  1.0000
  H   H1862     1.0  0.21456  0.00490  0.82061  1.0000
  H   H1863     1.0  0.25449  0.00055  0.65120  1.0000
  C   C1073     1.0  0.26257  0.47005  0.54735  1.0000
  S   S251      1.0  0.33920  0.01354  0.96861  1.0000
  H   H1864     1.0  0.38124  0.10625  0.81537  1.0000
  Fe  Fe126     1.0  0.37660  0.21626  0.66918  1.0000
  H   H1865     1.0  0.36714  0.99828  0.87491  1.0000
  H   H1866     1.0  0.23482  0.43403  0.61200  1.0000
  C   C1074     1.0  0.19170  0.30371  0.58309  1.0000
  S   S252      1.0  0.32370  0.99714  0.83692  1.0000
  H   H1867     1.0  0.33977  0.32987  0.90444  1.0000
  S   S253      1.0  0.18553  0.24394  0.64655  1.0000
  H   H1868     1.0  0.23389  0.99665  0.65678  1.0000
  H   H1869     1.0  0.22502  0.23106  0.61026  1.0000
  C   C1075     1.0  0.29936  0.47270  0.85402  1.0000
  C   C1076     1.0  0.36233  0.12510  0.73586  1.0000
  S   S254      1.0  0.18781  0.38030  0.67474  1.0000
  H   H1870     1.0  0.37152  0.06415  0.76064  1.0000
  H   H1871     1.0  0.38182  0.23280  0.51981  1.0000
  C   C1077     1.0  0.34691  0.08960  0.75055  1.0000
  H   H1872     1.0  0.25972  0.48487  0.88616  1.0000
  H   H1873     1.0  0.21251  0.18259  0.60858  1.0000
  C   C1078     1.0  0.36476  0.10899  0.78987  1.0000
  H   H1874     1.0  0.20222  0.19069  0.82727  1.0000
  C   C1079     1.0  0.33858  0.07626  0.74072  1.0000
  C   C1080     1.0  0.34834  0.14361  0.71280  1.0000
  H   H1875     1.0  0.25427  0.06239  0.53781  1.0000
  C   C1081     1.0  0.29458  0.47590  0.88024  1.0000
  H   H1876     1.0  0.35124  0.12055  0.75238  1.0000
  C   C1082     1.0  0.37582  0.10834  0.76228  1.0000
  H   H1877     1.0  0.26239  0.45864  0.54274  1.0000
  H   H1878     1.0  0.37723  0.18655  0.75199  1.0000
  H   H1879     1.0  0.35414  0.15302  0.72089  1.0000
  H   H1880     1.0  0.22489  0.06898  0.55318  1.0000
  H   H1881     1.0  0.21134  0.43832  0.49441  1.0000
  H   H1882     1.0  0.33897  0.09711  0.75411  1.0000
  H   H1883     1.0  0.34918  0.08429  0.77090  1.0000
  Fe  Fe127     1.0  0.19451  0.99438  0.68511  1.0000
  H   H1884     1.0  0.20919  0.47550  0.62272  1.0000
  H   H1885     1.0  0.31857  0.25451  0.90812  1.0000
  H   H1886     1.0  0.22076  0.35285  0.67683  1.0000
  H   H1887     1.0  0.35419  0.29014  0.84205  1.0000
  H   H1888     1.0  0.35256  0.10340  0.79182  1.0000
  C   C1083     1.0  0.37538  0.46970  0.69763  1.0000
  H   H1889     1.0  0.35623  0.43146  0.94865  1.0000
  C   C1084     1.0  0.25485  0.41946  0.58470  1.0000
  H   H1890     1.0  0.34595  0.06815  0.73731  1.0000
  H   H1891     1.0  0.32782  0.06959  0.75722  1.0000
  H   H1892     1.0  0.33548  0.08077  0.72079  1.0000
  H   H1893     1.0  0.34612  0.14906  0.69244  1.0000
  H   H1894     1.0  0.25183  0.47437  0.93795  1.0000
  H   H1895     1.0  0.19401  0.29263  0.65664  1.0000
  H   H1896     1.0  0.30695  0.38485  0.95187  1.0000
  C   C1085     1.0  0.25026  0.45663  0.62952  1.0000
  H   H1897     1.0  0.29976  0.25451  0.92797  1.0000
  H   H1898     1.0  0.36003  0.10186  0.70736  1.0000
  H   H1899     1.0  0.21043  0.02639  0.78638  1.0000
  C   C1086     1.0  0.33001  0.01505  0.91985  1.0000
  H   H1900     1.0  0.25531  0.47967  0.67639  1.0000
  C   C1087     1.0  0.18539  0.41492  0.49669  1.0000
  H   H1901     1.0  0.25242  0.07799  0.55454  1.0000
  H   H1902     1.0  0.36895  0.13480  0.74226  1.0000
  H   H1903     1.0  0.32132  0.30114  0.94504  1.0000
  H   H1904     1.0  0.37270  0.02597  0.92490  1.0000
  H   H1905     1.0  0.18773  0.38681  0.52976  1.0000
  H   H1906     1.0  0.24390  0.41129  0.59846  1.0000
  H   H1907     1.0  0.22640  0.21933  0.82811  1.0000
  C   C1088     1.0  0.30963  0.00490  0.96334  1.0000
  C   C1089     1.0  0.24481  0.44217  0.59524  1.0000
  H   H1908     1.0  0.19065  0.08855  0.54661  1.0000
  C   C1090     1.0  0.26070  0.48559  0.92838  1.0000
  H   H1909     1.0  0.36152  0.10236  0.83543  1.0000
  C   C1091     1.0  0.37566  0.31407  0.77842  1.0000
  H   H1910     1.0  0.26372  0.46389  0.67134  1.0000
  C   C1092     1.0  0.35856  0.13254  0.70800  1.0000
  H   H1911     1.0  0.32442  0.38806  0.92419  1.0000
  H   H1912     1.0  0.19483  0.22306  0.57164  1.0000
  H   H1913     1.0  0.24130  0.44252  0.57529  1.0000
  C   C1093     1.0  0.21901  0.07602  0.48684  1.0000
  C   C1094     1.0  0.37022  0.00873  0.78871  1.0000
  C   C1095     1.0  0.36047  0.06755  0.91687  1.0000
  S   S255      1.0  0.32950  0.48689  0.70585  1.0000
  H   H1914     1.0  0.22307  0.10000  0.50545  1.0000
  C   C1096     1.0  0.25142  0.47157  0.64002  1.0000
  C   C1097     1.0  0.35629  0.19298  0.76497  1.0000
  H   H1915     1.0  0.23644  0.47695  0.59773  1.0000
  S   S256      1.0  0.37932  0.19010  0.61646  1.0000
  H   H1916     1.0  0.21816  0.01328  0.76865  1.0000
  C   C1098     1.0  0.25504  0.07502  0.53401  1.0000
  C   C1099     1.0  0.30750  0.32833  0.93750  1.0000
  C   C1100     1.0  0.19189  0.27482  0.69386  1.0000
  C   C1101     1.0  0.37212  0.30328  0.80467  1.0000
  N   N59       1.0  0.24625  0.37498  0.73822  1.0000
  C   C1102     1.0  0.23417  0.37405  0.72166  1.0000
  C   C1103     1.0  0.24497  0.38685  0.75512  1.0000
  C   C1104     1.0  0.26186  0.38050  0.71697  1.0000
  C   C1105     1.0  0.24537  0.35938  0.75721  1.0000
  C   C1106     1.0  0.22958  0.35075  0.77846  1.0000
  C   C1107     1.0  0.23421  0.36240  0.70309  1.0000
  C   C1108     1.0  0.27605  0.38401  0.72926  1.0000
  C   C1109     1.0  0.22860  0.38866  0.76726  1.0000
  C   C1110     1.0  0.22890  0.39876  0.78802  1.0000
  C   C1111     1.0  0.22917  0.33392  0.79202  1.0000
  C   C1112     1.0  0.22047  0.36124  0.68997  1.0000
  C   C1113     1.0  0.29100  0.39083  0.70571  1.0000
  H   H1917     1.0  0.23551  0.38570  0.70753  1.0000
  H   H1918     1.0  0.22235  0.37106  0.73565  1.0000
  H   H1919     1.0  0.25047  0.38454  0.77294  1.0000
  H   H1920     1.0  0.25155  0.39872  0.74181  1.0000
  H   H1921     1.0  0.26234  0.39124  0.70082  1.0000
  H   H1922     1.0  0.26382  0.37174  0.70513  1.0000
  H   H1923     1.0  0.24906  0.35153  0.74440  1.0000
  H   H1924     1.0  0.25381  0.36059  0.77023  1.0000
  H   H1925     1.0  0.21992  0.35033  0.76827  1.0000
  H   H1926     1.0  0.22755  0.35652  0.79580  1.0000
  H   H1927     1.0  0.24482  0.36620  0.68537  1.0000
  H   H1928     1.0  0.23343  0.35056  0.71574  1.0000
  H   H1929     1.0  0.27723  0.37320  0.74279  1.0000
  H   H1930     1.0  0.27515  0.39254  0.74194  1.0000
  H   H1931     1.0  0.22424  0.39444  0.74974  1.0000
  H   H1932     1.0  0.22023  0.37737  0.77841  1.0000
  H   H1933     1.0  0.23237  0.39307  0.80680  1.0000
  H   H1934     1.0  0.23713  0.41032  0.77771  1.0000
  H   H1935     1.0  0.21724  0.40055  0.79524  1.0000
  H   H1936     1.0  0.21775  0.32805  0.80718  1.0000
  H   H1937     1.0  0.23105  0.32746  0.77565  1.0000
  H   H1938     1.0  0.23816  0.33346  0.80381  1.0000
  H   H1939     1.0  0.37232  0.30122  0.73184  1.0000
  N   N60       1.0  0.37856  0.05448  0.94299  1.0000
  H   H1940     1.0  0.37430  0.05251  0.90264  1.0000
  H   H1941     1.0  0.30090  0.39310  0.71523  1.0000
  H   H1942     1.0  0.29286  0.38258  0.69267  1.0000
  H   H1943     1.0  0.29065  0.40201  0.69198  1.0000
  N   N61       1.0  0.29136  0.37329  0.88234  1.0000
  C   C1114     1.0  0.28328  0.35633  0.89601  1.0000
  C   C1115     1.0  0.29862  0.38040  0.90278  1.0000
  C   C1116     1.0  0.27925  0.38156  0.87569  1.0000
  C   C1117     1.0  0.30317  0.37560  0.85490  1.0000
  C   C1118     1.0  0.31660  0.36779  0.85668  1.0000
  C   C1119     1.0  0.27468  0.34761  0.87803  1.0000
  C   C1120     1.0  0.28467  0.39959  0.86477  1.0000
  C   C1121     1.0  0.30510  0.36982  0.92350  1.0000
  C   C1122     1.0  0.36807  0.05387  0.92321  1.0000
  C   C1123     1.0  0.32633  0.36900  0.82719  1.0000
  C   C1124     1.0  0.26735  0.33055  0.89385  1.0000
  C   C1125     1.0  0.27093  0.40657  0.86304  1.0000
  H   H1944     1.0  0.27471  0.35516  0.91621  1.0000
  H   H1945     1.0  0.29143  0.34957  0.90214  1.0000
  H   H1946     1.0  0.30806  0.39100  0.89092  1.0000
  H   H1947     1.0  0.29000  0.38441  0.91681  1.0000
  H   H1948     1.0  0.26935  0.37856  0.89481  1.0000
  H   H1949     1.0  0.27441  0.37764  0.85901  1.0000
  H   H1950     1.0  0.29748  0.37174  0.83914  1.0000
  H   H1951     1.0  0.30871  0.38817  0.84504  1.0000
  H   H1952     1.0  0.31241  0.35529  0.86807  1.0000
  H   H1953     1.0  0.32439  0.37387  0.86741  1.0000
  H   H1954     1.0  0.26523  0.35268  0.87294  1.0000
  H   H1955     1.0  0.28279  0.34792  0.85808  1.0000
  H   H1956     1.0  0.29261  0.40319  0.84318  1.0000
  H   H1957     1.0  0.29067  0.40491  0.87881  1.0000
  C   C1126     1.0  0.24397  0.07965  0.51670  1.0000
  H   H1958     1.0  0.34208  0.02014  0.90904  1.0000
  H   H1959     1.0  0.36039  0.29125  0.93370  1.0000
  S   S257      1.0  0.29034  0.99861  0.89962  1.0000
  H   H1960     1.0  0.36589  0.28821  0.88435  1.0000
  H   H1961     1.0  0.33670  0.36473  0.82893  1.0000
  H   H1962     1.0  0.31960  0.36173  0.81644  1.0000
  H   H1963     1.0  0.33015  0.38124  0.81406  1.0000
  H   H1964     1.0  0.27634  0.32445  0.89788  1.0000
  H   H1965     1.0  0.25914  0.32945  0.91432  1.0000
  H   H1966     1.0  0.26092  0.32475  0.88078  1.0000
  H   H1967     1.0  0.26506  0.40254  0.84759  1.0000
  H   H1968     1.0  0.26253  0.40335  0.88410  1.0000
  H   H1969     1.0  0.27503  0.41945  0.85603  1.0000
  C   C1127     1.0  0.19978  0.06292  0.53228  1.0000
  C   C1128     1.0  0.20393  0.22233  0.82250  1.0000
  C   C1129     1.0  0.25353  0.46863  0.67002  1.0000
  H   H1970     1.0  0.33897  0.31302  0.94516  1.0000
  C   C1130     1.0  0.22940  0.26449  0.85932  1.0000
  H   H1971     1.0  0.22379  0.24771  0.81971  1.0000
  S   S258      1.0  0.18802  0.43677  0.58259  1.0000
  H   H1972     1.0  0.37514  0.45914  0.71387  1.0000
  H   H1973     1.0  0.22866  0.27508  0.86657  1.0000
  S   S259      1.0  0.24566  0.12774  0.49558  1.0000
  H   H1974     1.0  0.36933  0.09015  0.72726  1.0000
  H   H1975     1.0  0.29883  0.14832  0.50241  1.0000
  C   C1131     1.0  0.26192  0.46909  0.57895  1.0000
  H   H1976     1.0  0.19450  0.00478  0.82646  1.0000
  H   H1977     1.0  0.21438  0.44412  0.61526  1.0000
  C   C1132     1.0  0.21424  0.21229  0.83404  1.0000
  C   C1133     1.0  0.21525  0.24345  0.84077  1.0000
  C   C1134     1.0  0.33339  0.29009  0.97326  1.0000
  H   H1978     1.0  0.33845  0.27273  0.93548  1.0000
  H   H1979     1.0  0.36836  0.30868  0.87036  1.0000
  H   H1980     1.0  0.34447  0.46128  0.72450  1.0000
  C   C1135     1.0  0.21443  0.09081  0.52294  1.0000
  H   H1981     1.0  0.21978  0.04205  0.59974  1.0000
  H   H1982     1.0  0.22055  0.23609  0.85467  1.0000
  H   H1983     1.0  0.31443  0.28115  0.90352  1.0000
  C   C1136     1.0  0.36170  0.46587  0.68439  1.0000
  C   C1137     1.0  0.31755  0.27534  0.92261  1.0000
  H   H1984     1.0  0.29549  0.36081  0.93963  1.0000
  H   H1985     1.0  0.35894  0.47679  0.67475  1.0000
  N   N62       1.0  0.24776  0.45810  0.60029  1.0000
  H   H1986     1.0  0.37423  0.99889  0.79938  1.0000
  H   H1987     1.0  0.36228  0.00436  0.77646  1.0000
  C   C1138     1.0  0.37964  0.05880  0.82497  1.0000
  C   C1139     1.0  0.34371  0.33434  0.85934  1.0000
  H   H1988     1.0  0.34258  0.30407  0.87370  1.0000
  H   H1989     1.0  0.21847  0.20234  0.79812  1.0000
  H   H1990     1.0  0.24081  0.47574  0.64049  1.0000
  H   H1991     1.0  0.18597  0.31167  0.57152  1.0000
  H   H1992     1.0  0.36144  0.06847  0.87266  1.0000
  C   C1140     1.0  0.23403  0.46454  0.59736  1.0000
  C   C1141     1.0  0.36230  0.09874  0.72857  1.0000
  C   C1142     1.0  0.29895  0.00157  0.94759  1.0000
  C   C1143     1.0  0.21192  0.04110  0.66944  1.0000
  C   C1144     1.0  0.36761  0.04550  0.83970  1.0000
  H   H1993     1.0  0.33724  0.45425  0.69752  1.0000
  S   S260      1.0  0.20423  0.01587  0.64713  1.0000
  H   H1994     1.0  0.35139  0.06693  0.93594  1.0000
  H   H1995     1.0  0.26016  0.43098  0.61609  1.0000
  H   H1996     1.0  0.20014  0.05200  0.52575  1.0000
  H   H1997     1.0  0.37131  0.07344  0.95750  1.0000
  Fe  Fe128     1.0  0.18799  0.41567  0.61607  1.0000
  H   H1998     1.0  0.21810  0.09209  0.54243  1.0000
  H   H1999     1.0  0.20462  0.46682  0.59511  1.0000
  C   C1145     1.0  0.33522  0.28069  0.91882  1.0000
  N   N63       1.0  0.34141  0.29741  0.91837  1.0000
  C   C1146     1.0  0.21409  0.19836  0.82154  1.0000
  C   C1147     1.0  0.22721  0.06950  0.53028  1.0000
  H   H2000     1.0  0.34532  0.29024  0.97483  1.0000
  C   C1148     1.0  0.20611  0.46437  0.61696  1.0000
  H   H2001     1.0  0.18652  0.44156  0.51371  1.0000
  Fe  Fe129     1.0  0.30014  0.00016  0.85364  1.0000
  C   C1149     1.0  0.20791  0.01447  0.78350  1.0000
  H   H2002     1.0  0.32301  0.01467  0.88131  1.0000
  H   H2003     1.0  0.18936  0.40672  0.48502  1.0000
  H   H2004     1.0  0.26112  0.45306  0.63048  1.0000
  H   H2005     1.0  0.19734  0.46618  0.54107  1.0000
  C   C1150     1.0  0.21936  0.04618  0.61853  1.0000
  S   S261      1.0  0.19154  0.41824  0.65817  1.0000
  H   H2006     1.0  0.34069  0.27843  0.89862  1.0000
  H   H2007     1.0  0.26432  0.41358  0.58569  1.0000
  C   C1151     1.0  0.38158  0.02746  0.93693  1.0000
  C   C1152     1.0  0.36904  0.29973  0.88859  1.0000
  H   H2008     1.0  0.21238  0.26716  0.83632  1.0000
  H   H2009     1.0  0.35772  0.20111  0.74407  1.0000
  Fe  Fe130     1.0  0.18401  0.38052  0.63150  1.0000
  H   H2010     1.0  0.36496  0.22334  0.51098  1.0000
  H   H2011     1.0  0.37693  0.21193  0.52524  1.0000
  C   C1153     1.0  0.38136  0.01125  0.95367  1.0000
  H   H2012     1.0  0.36926  0.13959  0.69172  1.0000
  N   N64       1.0  0.37124  0.11285  0.73481  1.0000
  H   H2013     1.0  0.20940  0.35719  0.70668  1.0000
  H   H2014     1.0  0.23180  0.46460  0.57631  1.0000
  H   H2015     1.0  0.28373  0.46901  0.89474  1.0000
  H   H2016     1.0  0.34906  0.18151  0.76550  1.0000
  H   H2017     1.0  0.24307  0.46035  0.68517  1.0000
  C   C1154     1.0  0.36906  0.10099  0.81618  1.0000
  H   H2018     1.0  0.34881  0.44408  0.71582  1.0000
  H   H2019     1.0  0.38234  0.44319  0.68800  1.0000
  C   C1155     1.0  0.37200  0.19125  0.76921  1.0000
  H   H2020     1.0  0.32322  0.30042  0.73572  1.0000
  H   H2021     1.0  0.36561  0.12130  0.79014  1.0000
  N   N65       1.0  0.25985  0.04178  0.67755  1.0000
  C   C1156     1.0  0.25827  0.02524  0.67562  1.0000
  C   C1157     1.0  0.27543  0.04773  0.68242  1.0000
  C   C1158     1.0  0.24691  0.04193  0.70154  1.0000
  C   C1159     1.0  0.25872  0.05216  0.65067  1.0000
  C   C1160     1.0  0.27058  0.05276  0.62320  1.0000
  C   C1161     1.0  0.24414  0.01802  0.66571  1.0000
  C   C1162     1.0  0.24765  0.05760  0.70941  1.0000
  C   C1163     1.0  0.27791  0.03964  0.71112  1.0000
  C   C1164     1.0  0.29389  0.04691  0.71396  1.0000
  C   C1165     1.0  0.26696  0.06194  0.59715  1.0000
  C   C1166     1.0  0.21900  0.05679  0.66680  1.0000
  C   C1167     1.0  0.23476  0.05573  0.73570  1.0000
  H   H2022     1.0  0.25737  0.01746  0.69660  1.0000
  H   H2023     1.0  0.26885  0.02415  0.66146  1.0000
  H   H2024     1.0  0.28472  0.04630  0.66573  1.0000
  H   H2025     1.0  0.27791  0.06048  0.68015  1.0000
  H   H2026     1.0  0.24601  0.03289  0.72091  1.0000
  H   H2027     1.0  0.23563  0.03865  0.69657  1.0000
  H   H2028     1.0  0.24694  0.04882  0.64766  1.0000
  H   H2029     1.0  0.26027  0.06437  0.65212  1.0000
  H   H2030     1.0  0.27056  0.04100  0.62049  1.0000
  H   H2031     1.0  0.28239  0.05862  0.62349  1.0000
  H   H2032     1.0  0.23314  0.01795  0.68011  1.0000
  H   H2033     1.0  0.24461  0.02450  0.64398  1.0000
  H   H2034     1.0  0.24622  0.06652  0.69190  1.0000
  H   H2035     1.0  0.25873  0.06209  0.71417  1.0000
  H   H2036     1.0  0.26929  0.04062  0.72934  1.0000
  H   H2037     1.0  0.27707  0.02714  0.71285  1.0000
  H   H2038     1.0  0.29538  0.04085  0.73460  1.0000
  H   H2039     1.0  0.30307  0.04573  0.69681  1.0000
  H   H2040     1.0  0.29521  0.05939  0.71323  1.0000
  H   H2041     1.0  0.26636  0.07376  0.59905  1.0000
  H   H2042     1.0  0.27612  0.06311  0.57788  1.0000
  H   H2043     1.0  0.25577  0.05576  0.59467  1.0000
  H   H2044     1.0  0.34858  0.34696  0.85605  1.0000
  H   H2045     1.0  0.19791  0.01295  0.77410  1.0000
  C   C1168     1.0  0.37704  0.22319  0.51115  1.0000
  H   H2046     1.0  0.22328  0.05111  0.73239  1.0000
  H   H2047     1.0  0.23634  0.04772  0.75438  1.0000
  H   H2048     1.0  0.23506  0.06720  0.74018  1.0000
  H   H2049     1.0  0.36423  0.37913  0.74749  1.0000
  H   H2050     1.0  0.20483  0.25477  0.87200  1.0000
  H   H2051     1.0  0.36887  0.07899  0.91099  1.0000
  C   C1169     1.0  0.33852  0.30769  0.89315  1.0000
  C   C1170     1.0  0.35843  0.30016  0.91679  1.0000
  C   C1171     1.0  0.36326  0.37270  0.76956  1.0000
  C   C1172     1.0  0.18361  0.44172  0.49318  1.0000
  H   H2052     1.0  0.20998  0.22841  0.79992  1.0000
  H   H2053     1.0  0.35166  0.36439  0.77787  1.0000
  H   H2054     1.0  0.35241  0.12358  0.69948  1.0000
  C   C1173     1.0  0.35268  0.06675  0.89278  1.0000
  C   C1174     1.0  0.20092  0.11251  0.52466  1.0000
  H   H2055     1.0  0.32709  0.27797  0.97552  1.0000
  H   H2056     1.0  0.21041  0.20796  0.85745  1.0000
  N   N66       1.0  0.20018  0.23399  0.83850  1.0000
  H   H2057     1.0  0.26707  0.08156  0.52234  1.0000
  H   H2058     1.0  0.34996  0.33073  0.84137  1.0000
  H   H2059     1.0  0.34652  0.07606  0.88989  1.0000
  N   N67       1.0  0.27529  0.18501  0.62432  1.0000
  C   C1175     1.0  0.27807  0.18818  0.59258  1.0000
  C   C1176     1.0  0.29028  0.19025  0.63206  1.0000
  C   C1177     1.0  0.26940  0.16762  0.63660  1.0000
  C   C1178     1.0  0.26317  0.19241  0.63701  1.0000
  C   C1179     1.0  0.26619  0.21019  0.62566  1.0000
  C   C1180     1.0  0.26376  0.18302  0.58152  1.0000
  C   C1181     1.0  0.26804  0.16141  0.66869  1.0000
  C   C1182     1.0  0.30234  0.20489  0.61158  1.0000
  C   C1183     1.0  0.31531  0.21054  0.62481  1.0000
  C   C1184     1.0  0.25201  0.21570  0.63706  1.0000
  C   C1185     1.0  0.26783  0.18809  0.54920  1.0000
  C   C1186     1.0  0.26194  0.14374  0.67849  1.0000
  H   H2060     1.0  0.28693  0.18231  0.58422  1.0000
  H   H2061     1.0  0.28304  0.20069  0.58192  1.0000
  H   H2062     1.0  0.28789  0.19204  0.65372  1.0000
  H   H2063     1.0  0.29661  0.18099  0.63309  1.0000
  H   H2064     1.0  0.27686  0.16156  0.62492  1.0000
  H   H2065     1.0  0.25778  0.16343  0.63355  1.0000
  H   H2066     1.0  0.25170  0.18688  0.63465  1.0000
  H   H2067     1.0  0.26160  0.19019  0.66026  1.0000
  H   H2068     1.0  0.26891  0.21389  0.60226  1.0000
  H   H2069     1.0  0.27581  0.21615  0.63297  1.0000
  H   H2070     1.0  0.25939  0.17019  0.58809  1.0000
  H   H2071     1.0  0.25431  0.18820  0.58941  1.0000
  H   H2072     1.0  0.25995  0.16631  0.68167  1.0000
  H   H2073     1.0  0.27942  0.16431  0.67349  1.0000
  H   H2074     1.0  0.30769  0.20201  0.59194  1.0000
  H   H2075     1.0  0.29718  0.21465  0.60542  1.0000
  H   H2076     1.0  0.32117  0.20124  0.63062  1.0000
  H   H2077     1.0  0.32402  0.22067  0.60938  1.0000
  H   H2078     1.0  0.31069  0.21413  0.64404  1.0000
  H   H2079     1.0  0.25458  0.22854  0.62953  1.0000
  H   H2080     1.0  0.24209  0.21056  0.62950  1.0000
  H   H2081     1.0  0.24870  0.21235  0.66060  1.0000
  H   H2082     1.0  0.27713  0.18299  0.54010  1.0000
  H   H2083     1.0  0.25747  0.18396  0.54186  1.0000
  H   H2084     1.0  0.27166  0.20094  0.54136  1.0000
  H   H2085     1.0  0.26126  0.13962  0.70135  1.0000
  H   H2086     1.0  0.25021  0.14013  0.67545  1.0000
  H   H2087     1.0  0.26974  0.13810  0.66658  1.0000
  C   C1187     1.0  0.34722  0.45574  0.70700  1.0000
  C   C1188     1.0  0.25834  0.43425  0.59458  1.0000
  C   C1189     1.0  0.21853  0.45554  0.61929  1.0000
  C   C1190     1.0  0.30376  0.00475  0.91809  1.0000
  H   H2088     1.0  0.28036  0.13948  0.49795  1.0000
  C   C1191     1.0  0.37568  0.36376  0.77029  1.0000
  H   H2089     1.0  0.21011  0.19433  0.64958  1.0000
  H   H2090     1.0  0.38210  0.28780  0.74765  1.0000
  C   C1192     1.0  0.33346  0.30103  0.94483  1.0000
  H   H2091     1.0  0.29003  0.28446  0.73699  1.0000
  H   H2092     1.0  0.36290  0.31144  0.92126  1.0000
  H   H2093     1.0  0.33706  0.13725  0.72807  1.0000
  N   N68       1.0  0.32813  0.27021  0.75900  1.0000
  C   C1193     1.0  0.32893  0.25407  0.75688  1.0000
  C   C1194     1.0  0.32203  0.27018  0.78957  1.0000
  C   C1195     1.0  0.31676  0.27487  0.74292  1.0000
  C   C1196     1.0  0.34350  0.28197  0.74571  1.0000
  C   C1197     1.0  0.35731  0.27856  0.75707  1.0000
  C   C1198     1.0  0.33529  0.25238  0.72674  1.0000
  C   C1199     1.0  0.32661  0.25897  0.81257  1.0000
  C   C1200     1.0  0.32117  0.26142  0.84188  1.0000
  H   H2094     1.0  0.20208  0.41421  0.52309  1.0000
  C   C1201     1.0  0.33635  0.23574  0.72780  1.0000
  H   H2095     1.0  0.31721  0.24592  0.76593  1.0000
  H   H2096     1.0  0.33621  0.24935  0.76988  1.0000
  H   H2097     1.0  0.32543  0.28213  0.79222  1.0000
  H   H2098     1.0  0.30913  0.26684  0.79572  1.0000
  H   H2099     1.0  0.30562  0.26569  0.75045  1.0000
  H   H2100     1.0  0.32109  0.27592  0.71999  1.0000
  H   H2101     1.0  0.34663  0.28381  0.72233  1.0000
  H   H2102     1.0  0.34274  0.29356  0.74880  1.0000
  H   H2103     1.0  0.35798  0.26638  0.75937  1.0000
  H   H2104     1.0  0.35638  0.28114  0.77794  1.0000
  H   H2105     1.0  0.32765  0.25514  0.71289  1.0000
  H   H2106     1.0  0.34707  0.26009  0.71677  1.0000
  H   H2107     1.0  0.32102  0.24673  0.81392  1.0000
  H   H2108     1.0  0.33924  0.26043  0.80796  1.0000
  H   H2109     1.0  0.30841  0.25943  0.84796  1.0000
  H   H2110     1.0  0.32445  0.25306  0.85774  1.0000
  H   H2111     1.0  0.32663  0.27336  0.84232  1.0000
  C   C1202     1.0  0.18978  0.22651  0.86805  1.0000
  H   H2112     1.0  0.20205  0.05028  0.57305  1.0000
  C   C1203     1.0  0.20431  0.00259  0.81213  1.0000
  H   H2113     1.0  0.34443  0.23248  0.74043  1.0000
  H   H2114     1.0  0.32481  0.22744  0.73714  1.0000
  H   H2115     1.0  0.34081  0.23480  0.70600  1.0000
  C   C1204     1.0  0.19878  0.09527  0.52594  1.0000
  H   H2116     1.0  0.22122  0.23485  0.57579  1.0000
  H   H2117     1.0  0.36982  0.18271  0.78991  1.0000
  H   H2118     1.0  0.27955  0.28744  0.96992  1.0000
  C   C1205     1.0  0.36115  0.42410  0.96327  1.0000
  H   H2119     1.0  0.24833  0.07824  0.49524  1.0000
  H   H2120     1.0  0.20719  0.20841  0.60495  1.0000
  C   C1206     1.0  0.21433  0.25781  0.85243  1.0000
  H   H2121     1.0  0.34419  0.05534  0.89759  1.0000
  H   H2122     1.0  0.38196  0.21588  0.75024  1.0000
  S   S262      1.0  0.19666  0.99251  0.72985  1.0000
  N   N69       1.0  0.21484  0.07504  0.51812  1.0000
  H   H2123     1.0  0.18388  0.26893  0.71507  1.0000
  C   C1207     1.0  0.27731  0.48160  0.52785  1.0000
  H   H2124     1.0  0.36423  0.38099  0.78286  1.0000
  C   C1208     1.0  0.30239  0.32248  0.96707  1.0000
  H   H2125     1.0  0.20310  0.28060  0.69685  1.0000
  H   H2126     1.0  0.31736  0.47905  0.81535  1.0000
  H   H2127     1.0  0.24197  0.99381  0.68684  1.0000
  Fe  Fe131     1.0  0.18881  0.22860  0.68612  1.0000
  H   H2128     1.0  0.27226  0.48331  0.92646  1.0000
  C   C1209     1.0  0.31351  0.48146  0.83552  1.0000
  H   H2129     1.0  0.18679  0.46709  0.80402  1.0000
  H   H2130     1.0  0.37003  0.43187  0.96965  1.0000
  H   H2131     1.0  0.26146  0.48096  0.62614  1.0000
  H   H2132     1.0  0.18612  0.19779  0.56934  1.0000
  S   S263      1.0  0.24821  0.46853  0.48221  1.0000
  H   H2133     1.0  0.37364  0.35515  0.75806  1.0000
  C   C1210     1.0  0.18939  0.22017  0.59475  1.0000
  H   H2134     1.0  0.36746  0.08839  0.81793  1.0000
  H   H2135     1.0  0.26290  0.48113  0.58113  1.0000
  C   C1211     1.0  0.18943  0.41151  0.52572  1.0000
  H   H2136     1.0  0.34949  0.00364  0.87238  1.0000
  H   H2137     1.0  0.18934  0.16261  0.77105  1.0000
  H   H2138     1.0  0.22847  0.99554  0.73998  1.0000
  H   H2139     1.0  0.19187  0.45713  0.71459  1.0000
  H   H2140     1.0  0.37618  0.21017  0.78781  1.0000
  H   H2141     1.0  0.19795  0.06870  0.57353  1.0000
  H   H2142     1.0  0.38168  0.15760  0.76376  1.0000
  H   H2143     1.0  0.18583  0.39230  0.56257  1.0000
  H   H2144     1.0  0.19490  0.45721  0.63161  1.0000
  H   H2145     1.0  0.18909  0.18978  0.60249  1.0000
  H   H2146     1.0  0.19005  0.06653  0.52516  1.0000
  H   H2147     1.0  0.18401  0.29563  0.68919  1.0000
  C   C1212     1.0  0.19305  0.24499  0.82148  1.0000
  H   H2148     1.0  0.36995  0.00565  0.96910  1.0000
  H   H2149     1.0  0.38085  0.33255  0.82406  1.0000
  H   H2150     1.0  0.36697  0.03203  0.97258  1.0000
  H   H2151     1.0  0.37661  0.48714  0.63408  1.0000
  H   H2152     1.0  0.18375  0.20144  0.87219  1.0000
  H   H2153     1.0  0.18592  0.23071  0.59859  1.0000
  C   C1213     1.0  0.19535  0.05839  0.56517  1.0000
  H   H2154     1.0  0.19690  0.29744  0.56845  1.0000
  H   H2155     1.0  0.19390  0.26599  0.68224  1.0000
  H   H2156     1.0  0.18450  0.41837  0.53934  1.0000
  H   H2157     1.0  0.36051  0.05474  0.97809  1.0000
  H   H2158     1.0  0.23991  0.99002  0.85313  1.0000
  C   C1214     1.0  0.18534  0.28685  0.67716  1.0000
  H   H2159     1.0  0.18341  0.23475  0.87534  1.0000
  C   C1215     1.0  0.29214  0.30779  0.97868  1.0000
  C   C1216     1.0  0.38227  0.20699  0.76910  1.0000
  H   H2160     1.0  0.19579  0.07468  0.47938  1.0000
  H   H2161     1.0  0.18375  0.16428  0.58970  1.0000
  H   H2162     1.0  0.18313  0.25536  0.77311  1.0000
  S   S264      1.0  0.23957  0.79709  0.19030  1.0000
  Fe  Fe132     1.0  0.36076  0.57978  0.45561  1.0000
  H   H2163     1.0  0.20720  0.49727  0.38916  1.0000
  S   S265      1.0  0.30564  0.81706  0.00137  1.0000
  C   C1217     1.0  0.22532  0.59520  0.43156  1.0000
  H   H2164     1.0  0.18532  0.52666  0.40128  1.0000
  C   C1218     1.0  0.34073  0.74588  0.42185  1.0000
  H   H2165     1.0  0.23029  0.56695  0.44291  1.0000
  H   H2166     1.0  0.32957  0.53965  0.06529  1.0000
  H   H2167     1.0  0.23569  0.57543  0.46915  1.0000
  H   H2168     1.0  0.20445  0.72291  0.38838  1.0000
  H   H2169     1.0  0.18586  0.66256  0.35108  1.0000
  H   H2170     1.0  0.36170  0.50987  0.20487  1.0000
  H   H2171     1.0  0.27915  0.49113  0.11338  1.0000
  H   H2172     1.0  0.24852  0.70014  0.34711  1.0000
  C   C1219     1.0  0.36741  0.52663  0.34775  1.0000
  H   H2173     1.0  0.20422  0.65415  0.05861  1.0000
  Fe  Fe133     1.0  0.22987  0.51409  0.43577  1.0000
  S   S266      1.0  0.24476  0.52296  0.39126  1.0000
  H   H2174     1.0  0.24291  0.96344  0.04256  1.0000
  H   H2175     1.0  0.19336  0.75867  0.37413  1.0000
  Fe  Fe134     1.0  0.26473  0.52063  0.41073  1.0000
  S   S267      1.0  0.28664  0.54086  0.39653  1.0000
  H   H2176     1.0  0.25118  0.69974  0.38194  1.0000
  H   H2177     1.0  0.34374  0.73453  0.42485  1.0000
  H   H2178     1.0  0.27222  0.80871  0.16896  1.0000
  Fe  Fe135     1.0  0.25778  0.73516  0.45797  1.0000
  H   H2179     1.0  0.26034  0.54770  0.45416  1.0000
  H   H2180     1.0  0.36603  0.55028  0.33694  1.0000
  Fe  Fe136     1.0  0.24170  0.74116  0.40999  1.0000
  S   S268      1.0  0.21846  0.72652  0.43652  1.0000
  S   S269      1.0  0.24604  0.75190  0.36303  1.0000
  H   H2181     1.0  0.36444  0.89664  0.31641  1.0000
  H   H2182     1.0  0.35330  0.77513  0.47003  1.0000
  Fe  Fe137     1.0  0.23100  0.70898  0.45166  1.0000
  S   S270      1.0  0.22302  0.68321  0.45142  1.0000
  S   S271      1.0  0.24668  0.75398  0.44220  1.0000
  S   S272      1.0  0.25437  0.72332  0.42343  1.0000
  C   C1220     1.0  0.20458  0.76103  0.33058  1.0000
  C   C1221     1.0  0.36907  0.54269  0.35444  1.0000
  Fe  Fe138     1.0  0.34512  0.87394  0.15498  1.0000
  S   S273      1.0  0.34930  0.87528  0.10846  1.0000
  S   S274      1.0  0.36645  0.87772  0.17266  1.0000
  Fe  Fe139     1.0  0.31000  0.86455  0.16332  1.0000
  S   S275      1.0  0.31166  0.86586  0.11745  1.0000
  S   S276      1.0  0.28649  0.85769  0.19462  1.0000
  Fe  Fe140     1.0  0.33027  0.85337  0.12030  1.0000
  S   S277      1.0  0.33160  0.83204  0.10392  1.0000
  Fe  Fe141     1.0  0.33038  0.88769  0.10937  1.0000
  S   S278      1.0  0.33430  0.90892  0.07301  1.0000
  S   S279      1.0  0.32757  0.85075  0.16701  1.0000
  S   S280      1.0  0.32723  0.88763  0.15520  1.0000
  C   C1222     1.0  0.32364  0.82785  0.07618  1.0000
  C   C1223     1.0  0.31866  0.83889  0.05876  1.0000
  C   C1224     1.0  0.31330  0.83542  0.03581  1.0000
  C   C1225     1.0  0.31268  0.82085  0.03026  1.0000
  C   C1226     1.0  0.31746  0.80973  0.04789  1.0000
  C   C1227     1.0  0.32289  0.81323  0.07077  1.0000
  H   H2183     1.0  0.31924  0.85021  0.06263  1.0000
  H   H2184     1.0  0.31693  0.79843  0.04397  1.0000
  H   H2185     1.0  0.32670  0.80461  0.08419  1.0000
  C   C1228     1.0  0.32850  0.92495  0.08190  1.0000
  C   C1229     1.0  0.33354  0.93954  0.06203  1.0000
  C   C1230     1.0  0.32941  0.95257  0.06911  1.0000
  C   C1231     1.0  0.32011  0.95099  0.09603  1.0000
  C   C1232     1.0  0.31497  0.93638  0.11572  1.0000
  C   C1233     1.0  0.31919  0.92341  0.10873  1.0000
  H   H2186     1.0  0.34078  0.94079  0.04127  1.0000
  H   H2187     1.0  0.30774  0.93509  0.13654  1.0000
  H   H2188     1.0  0.31511  0.91220  0.12407  1.0000
  H   H2189     1.0  0.31610  0.73505  0.44068  1.0000
  Fe  Fe142     1.0  0.19175  0.77240  0.27133  1.0000
  H   H2190     1.0  0.35446  0.59174  0.01004  1.0000
  H   H2191     1.0  0.26663  0.58280  0.39945  1.0000
  C   C1234     1.0  0.20588  0.67097  0.44786  1.0000
  C   C1235     1.0  0.20637  0.65644  0.44260  1.0000
  H   H2192     1.0  0.20855  0.69346  0.00741  1.0000
  C   C1236     1.0  0.29406  0.75793  0.46980  1.0000
  H   H2193     1.0  0.36928  0.80501  0.37647  1.0000
  C   C1237     1.0  0.31344  0.49487  0.06263  1.0000
  H   H2194     1.0  0.20956  0.92836  0.24829  1.0000
  H   H2195     1.0  0.37208  0.76420  0.40412  1.0000
  C   C1238     1.0  0.31175  0.96605  0.00624  1.0000
  C   C1239     1.0  0.20449  0.53927  0.44015  1.0000
  C   C1240     1.0  0.26632  0.57988  0.45221  1.0000
  Fe  Fe143     1.0  0.30864  0.79706  0.98183  1.0000
  C   C1241     1.0  0.20393  0.55799  0.39804  1.0000
  C   C1242     1.0  0.20995  0.54612  0.41103  1.0000
  H   H2196     1.0  0.20812  0.56316  0.37545  1.0000
  H   H2197     1.0  0.21862  0.54215  0.39838  1.0000
  H   H2198     1.0  0.34312  0.57616  0.98057  1.0000
  H   H2199     1.0  0.22617  0.70800  0.33479  1.0000
  C   C1243     1.0  0.22899  0.72855  0.03985  1.0000
  C   C1244     1.0  0.28068  0.49034  0.15574  1.0000
  H   H2200     1.0  0.35797  0.73449  0.47036  1.0000
  H   H2201     1.0  0.31020  0.53806  0.03679  1.0000
  H   H2202     1.0  0.18617  0.71720  0.29300  1.0000
  H   H2203     1.0  0.24642  0.59351  0.40600  1.0000
  H   H2204     1.0  0.20833  0.97532  0.11038  1.0000
  C   C1245     1.0  0.19817  0.68981  0.36471  1.0000
  C   C1246     1.0  0.32193  0.55976  0.44357  1.0000
  C   C1247     1.0  0.32255  0.56752  0.41586  1.0000
  C   C1248     1.0  0.31158  0.56166  0.40204  1.0000
  C   C1249     1.0  0.29977  0.54797  0.41562  1.0000
  C   C1250     1.0  0.29891  0.54037  0.44354  1.0000
  H   H2205     1.0  0.36324  0.80228  0.99434  1.0000
  H   H2206     1.0  0.33134  0.57818  0.40523  1.0000
  H   H2207     1.0  0.31230  0.56777  0.38058  1.0000
  C   C1251     1.0  0.31754  0.54940  0.03655  1.0000
  N   N70       1.0  0.20575  0.70775  0.03669  1.0000
  H   H2208     1.0  0.36660  0.87340  0.33091  1.0000
  H   H2209     1.0  0.22014  0.68092  0.04166  1.0000
  H   H2210     1.0  0.22631  0.96795  0.07461  1.0000
  H   H2211     1.0  0.25969  0.98352  0.14245  1.0000
  H   H2212     1.0  0.38055  0.84674  0.36129  1.0000
  C   C1252     1.0  0.36572  0.90289  0.19606  1.0000
  C   C1253     1.0  0.37427  0.89298  0.18672  1.0000
  S   S281      1.0  0.20540  0.76370  0.23842  1.0000
  H   H2213     1.0  0.24387  0.55111  0.40783  1.0000
  H   H2214     1.0  0.22998  0.71126  0.01620  1.0000
  H   H2215     1.0  0.35395  0.90153  0.19437  1.0000
  C   C1254     1.0  0.37307  0.76867  0.99759  1.0000
  H   H2216     1.0  0.28510  0.96575  0.08076  1.0000
  S   S282      1.0  0.30238  0.50893  0.02010  1.0000
  H   H2217     1.0  0.24980  0.74250  0.04539  1.0000
  C   C1255     1.0  0.36269  0.78365  0.41008  1.0000
  H   H2218     1.0  0.34977  0.77885  0.03466  1.0000
  C   C1256     1.0  0.20250  0.69223  0.02985  1.0000
  C   C1257     1.0  0.21805  0.76062  0.31189  1.0000
  C   C1258     1.0  0.23057  0.75751  0.32225  1.0000
  C   C1259     1.0  0.22990  0.75526  0.35110  1.0000
  C   C1260     1.0  0.21645  0.75568  0.36979  1.0000
  C   C1261     1.0  0.20378  0.75844  0.35956  1.0000
  H   H2219     1.0  0.24077  0.75671  0.30795  1.0000
  H   H2220     1.0  0.21582  0.75398  0.39209  1.0000
  C   C1262     1.0  0.37903  0.89394  0.46914  1.0000
  C   C1263     1.0  0.25225  0.81406  0.19198  1.0000
  C   C1264     1.0  0.24702  0.82468  0.20551  1.0000
  C   C1265     1.0  0.25761  0.83803  0.20631  1.0000
  C   C1266     1.0  0.27339  0.84100  0.19307  1.0000
  C   C1267     1.0  0.27857  0.83043  0.17936  1.0000
  C   C1268     1.0  0.26806  0.81696  0.17910  1.0000
  H   H2221     1.0  0.23486  0.82259  0.21543  1.0000
  H   H2222     1.0  0.25354  0.84618  0.21696  1.0000
  H   H2223     1.0  0.29072  0.83254  0.16927  1.0000
  C   C1269     1.0  0.20676  0.71769  0.30874  1.0000
  S   S283      1.0  0.28002  0.74032  0.47341  1.0000
  H   H2224     1.0  0.30326  0.58153  0.46274  1.0000
  H   H2225     1.0  0.35678  0.87643  0.29034  1.0000
  H   H2226     1.0  0.36552  0.92177  0.21596  1.0000
  H   H2227     1.0  0.22137  0.73082  0.05797  1.0000
  H   H2228     1.0  0.36128  0.91816  0.13847  1.0000
  C   C1270     1.0  0.18684  0.71770  0.00930  1.0000
  S   S284      1.0  0.18463  0.98406  0.15696  1.0000
  H   H2229     1.0  0.36493  0.83157  0.35990  1.0000
  H   H2230     1.0  0.36551  0.73793  0.99361  1.0000
  C   C1271     1.0  0.26589  0.98215  0.05760  1.0000
  H   H2231     1.0  0.27035  0.56445  0.40985  1.0000
  C   C1272     1.0  0.31505  0.49899  0.03338  1.0000
  C   C1273     1.0  0.25053  0.55298  0.45965  1.0000
  Fe  Fe144     1.0  0.24140  0.49768  0.39124  1.0000
  H   H2232     1.0  0.22502  0.70380  0.05367  1.0000
  H   H2233     1.0  0.36853  0.86506  0.05992  1.0000
  C   C1274     1.0  0.20270  0.50779  0.38761  1.0000
  H   H2234     1.0  0.33593  0.74408  0.46621  1.0000
  C   C1275     1.0  0.18520  0.50299  0.39971  1.0000
  H   H2235     1.0  0.34698  0.84394  0.01766  1.0000
  H   H2236     1.0  0.37187  0.90612  0.10259  1.0000
  H   H2237     1.0  0.18708  0.84906  0.30281  1.0000
  H   H2238     1.0  0.30493  0.49846  0.07638  1.0000
  H   H2239     1.0  0.36549  0.85282  0.27356  1.0000
  C   C1276     1.0  0.19875  0.71061  0.39009  1.0000
  H   H2240     1.0  0.37682  0.59813  0.35804  1.0000
  C   C1277     1.0  0.30532  0.78590  0.45096  1.0000
  C   C1278     1.0  0.22265  0.71212  0.03632  1.0000
  S   S285      1.0  0.37299  0.82180  0.42767  1.0000
  C   C1279     1.0  0.26214  0.96476  0.07382  1.0000
  H   H2241     1.0  0.30972  0.84411  0.02213  1.0000
  N   N71       1.0  0.26546  0.81681  0.09143  1.0000
  C   C1280     1.0  0.25815  0.80639  0.07545  1.0000
  C   C1281     1.0  0.25315  0.81708  0.11635  1.0000
  C   C1282     1.0  0.27256  0.83284  0.07172  1.0000
  C   C1283     1.0  0.27798  0.81091  0.10236  1.0000
  C   C1284     1.0  0.27338  0.79365  0.11968  1.0000
  C   C1285     1.0  0.26938  0.80347  0.05052  1.0000
  C   C1286     1.0  0.27940  0.84550  0.08540  1.0000
  C   C1287     1.0  0.24045  0.82512  0.10935  1.0000
  C   C1288     1.0  0.22886  0.82470  0.13646  1.0000
  C   C1289     1.0  0.28700  0.78914  0.12954  1.0000
  C   C1290     1.0  0.26102  0.79152  0.03784  1.0000
  C   C1291     1.0  0.28559  0.86135  0.06377  1.0000
  H   H2242     1.0  0.24964  0.81141  0.06613  1.0000
  H   H2243     1.0  0.25131  0.79496  0.09013  1.0000
  H   H2244     1.0  0.24704  0.80503  0.12917  1.0000
  H   H2245     1.0  0.25839  0.82272  0.13093  1.0000
  H   H2246     1.0  0.26412  0.83692  0.06078  1.0000
  H   H2247     1.0  0.28217  0.83253  0.05440  1.0000
  H   H2248     1.0  0.28833  0.81271  0.08472  1.0000
  H   H2249     1.0  0.28218  0.81783  0.11636  1.0000
  H   H2250     1.0  0.26974  0.78575  0.10686  1.0000
  H   H2251     1.0  0.26379  0.79152  0.13878  1.0000
  H   H2252     1.0  0.27447  0.81439  0.03338  1.0000
  H   H2253     1.0  0.27888  0.79909  0.05720  1.0000
  H   H2254     1.0  0.28916  0.84268  0.09361  1.0000
  H   H2255     1.0  0.27064  0.84671  0.10316  1.0000
  H   H2256     1.0  0.24544  0.83749  0.09754  1.0000
  H   H2257     1.0  0.23394  0.81917  0.09661  1.0000
  H   H2258     1.0  0.21992  0.83057  0.13111  1.0000
  H   H2259     1.0  0.22304  0.81250  0.14870  1.0000
  H   H2260     1.0  0.23475  0.83073  0.14993  1.0000
  H   H2261     1.0  0.29137  0.79681  0.14224  1.0000
  H   H2262     1.0  0.28326  0.77696  0.14289  1.0000
  H   H2263     1.0  0.29651  0.78999  0.11104  1.0000
  H   H2264     1.0  0.25613  0.78012  0.05385  1.0000
  H   H2265     1.0  0.25163  0.79551  0.02991  1.0000
  H   H2266     1.0  0.27617  0.86501  0.05540  1.0000
  H   H2267     1.0  0.29048  0.87016  0.07405  1.0000
  H   H2268     1.0  0.29488  0.86098  0.04596  1.0000
  N   N72       1.0  0.35980  0.54310  0.38291  1.0000
  C   C1292     1.0  0.34449  0.53105  0.39362  1.0000
  C   C1293     1.0  0.32637  0.49479  0.01543  1.0000
  C   C1294     1.0  0.35646  0.55887  0.38031  1.0000
  H   H2269     1.0  0.20591  0.51436  0.36496  1.0000
  S   S286      1.0  0.34394  0.76201  0.98928  1.0000
  H   H2270     1.0  0.21782  0.58706  0.42328  1.0000
  C   C1295     1.0  0.37070  0.57300  0.37194  1.0000
  H   H2271     1.0  0.34982  0.96662  0.10281  1.0000
  H   H2272     1.0  0.37156  0.69772  0.00847  1.0000
  H   H2273     1.0  0.19804  0.87180  0.26034  1.0000
  H   H2274     1.0  0.33196  0.94465  0.20013  1.0000
  H   H2275     1.0  0.36713  0.73963  0.43382  1.0000
  H   H2276     1.0  0.33881  0.53098  0.41567  1.0000
  H   H2277     1.0  0.34608  0.51918  0.39527  1.0000
  H   H2278     1.0  0.25334  0.94533  0.01870  1.0000
  C   C1296     1.0  0.35968  0.84663  0.00842  1.0000
  H   H2279     1.0  0.34905  0.55916  0.40074  1.0000
  H   H2280     1.0  0.24468  0.72240  0.06530  1.0000
  H   H2281     1.0  0.28988  0.52990  0.45443  1.0000
  C   C1297     1.0  0.24917  0.97440  0.02617  1.0000
  C   C1298     1.0  0.36769  0.55267  0.02520  1.0000
  H   H2282     1.0  0.23007  0.73764  0.02037  1.0000
  H   H2283     1.0  0.36925  0.88808  0.25730  1.0000
  H   H2284     1.0  0.26978  0.59193  0.43824  1.0000
  H   H2285     1.0  0.36591  0.49826  0.09768  1.0000
  C   C1299     1.0  0.37432  0.79533  0.38422  1.0000
  H   H2286     1.0  0.30508  0.79691  0.43787  1.0000
  H   H2287     1.0  0.35207  0.77957  0.40350  1.0000
  S   S287      1.0  0.18837  0.76400  0.31854  1.0000
  H   H2288     1.0  0.25009  0.96040  0.08696  1.0000
  C   C1300     1.0  0.19181  0.67510  0.45062  1.0000
  H   H2289     1.0  0.21962  0.59404  0.45402  1.0000
  C   C1301     1.0  0.18704  0.55633  0.44317  1.0000
  N   N73       1.0  0.38114  0.87934  0.28807  1.0000
  S   S288      1.0  0.19525  0.78768  0.19151  1.0000
  H   H2290     1.0  0.32303  0.50864  0.38019  1.0000
  H   H2291     1.0  0.34769  0.96958  0.13794  1.0000
  H   H2292     1.0  0.37699  0.53613  0.30207  1.0000
  C   C1302     1.0  0.32387  0.74301  0.42053  1.0000
  H   H2293     1.0  0.27802  0.98501  0.04462  1.0000
  N   N74       1.0  0.35680  0.53741  0.02737  1.0000
  H   H2294     1.0  0.37896  0.97090  0.09848  1.0000
  C   C1303     1.0  0.35277  0.52662  0.05689  1.0000
  C   C1304     1.0  0.34203  0.54075  0.02163  1.0000
  H   H2295     1.0  0.36407  0.51530  0.41595  1.0000
  C   C1305     1.0  0.20332  0.71988  0.01348  1.0000
  H   H2296     1.0  0.36123  0.58892  0.34542  1.0000
  C   C1306     1.0  0.33261  0.54741  0.04356  1.0000
  H   H2297     1.0  0.19585  0.55867  0.99298  1.0000
  C   C1307     1.0  0.36520  0.86402  0.26011  1.0000
  C   C1308     1.0  0.35546  0.80342  0.01338  1.0000
  H   H2298     1.0  0.20602  0.54419  0.00258  1.0000
  H   H2299     1.0  0.37118  0.81942  0.02763  1.0000
  H   H2300     1.0  0.37153  0.92185  0.07422  1.0000
  H   H2301     1.0  0.35247  0.53343  0.07295  1.0000
  H   H2302     1.0  0.34090  0.51889  0.06208  1.0000
  H   H2303     1.0  0.33425  0.53000  0.02018  1.0000
  S   S289      1.0  0.24985  0.51302  0.45522  1.0000
  H   H2304     1.0  0.28762  0.57500  0.43046  1.0000
  H   H2305     1.0  0.26903  0.49214  0.16312  1.0000
  N   N75       1.0  0.35943  0.75818  0.44835  1.0000
  C   C1309     1.0  0.27283  0.96215  0.09321  1.0000
  H   H2306     1.0  0.35569  0.52219  0.34534  1.0000
  S   S290      1.0  0.26282  0.49619  0.40621  1.0000
  H   H2307     1.0  0.33920  0.55904  0.04354  1.0000
  C   C1310     1.0  0.37337  0.90418  0.29739  1.0000
  H   H2308     1.0  0.34990  0.56118  0.36415  1.0000
  H   H2309     1.0  0.21326  0.92334  0.21480  1.0000
  S   S291      1.0  0.21099  0.52372  0.45728  1.0000
  H   H2310     1.0  0.37316  0.73370  0.03802  1.0000
  S   S292      1.0  0.30347  0.77150  0.00251  1.0000
  H   H2311     1.0  0.19106  0.68600  0.45531  1.0000
  H   H2312     1.0  0.20494  0.93939  0.21822  1.0000
  C   C1311     1.0  0.37230  0.91436  0.20825  1.0000
  C   C1312     1.0  0.36099  0.92322  0.11645  1.0000
  H   H2313     1.0  0.31990  0.55763  0.01542  1.0000
  C   C1313     1.0  0.18583  0.86518  0.26472  1.0000
  H   H2314     1.0  0.24884  0.55915  0.35586  1.0000
  C   C1314     1.0  0.36250  0.94106  0.10960  1.0000
  C   C1315     1.0  0.26097  0.57057  0.41193  1.0000
  H   H2315     1.0  0.36201  0.54216  0.42533  1.0000
  C   C1316     1.0  0.26130  0.97059  0.00387  1.0000
  C   C1317     1.0  0.36878  0.54097  0.40499  1.0000
  H   H2316     1.0  0.36757  0.90711  0.28025  1.0000
  H   H2317     1.0  0.20234  0.72952  0.34128  1.0000
  H   H2318     1.0  0.26415  0.95275  0.98210  1.0000
  H   H2319     1.0  0.36820  0.75960  0.01715  1.0000
  H   H2320     1.0  0.30143  0.96268  0.02452  1.0000
  H   H2321     1.0  0.19216  0.84319  0.27061  1.0000
  H   H2322     1.0  0.20825  0.51503  0.39980  1.0000
  H   H2323     1.0  0.32038  0.75412  0.41664  1.0000
  H   H2324     1.0  0.20235  0.70340  0.40714  1.0000
  H   H2325     1.0  0.31313  0.51621  0.40744  1.0000
  C   C1318     1.0  0.36936  0.76991  0.42143  1.0000
  C   C1319     1.0  0.36322  0.52956  0.00558  1.0000
  C   C1320     1.0  0.35893  0.50683  0.09429  1.0000
  C   C1321     1.0  0.33071  0.93375  0.19328  1.0000
  H   H2326     1.0  0.26650  0.55795  0.36572  1.0000
  C   C1322     1.0  0.23985  0.57527  0.44676  1.0000
  H   H2327     1.0  0.22656  0.60723  0.41909  1.0000
  C   C1323     1.0  0.36076  0.81941  0.01937  1.0000
  S   S293      1.0  0.22889  0.98731  0.15204  1.0000
  H   H2328     1.0  0.31698  0.97871  0.00178  1.0000
  H   H2329     1.0  0.36093  0.84854  0.36974  1.0000
  H   H2330     1.0  0.20416  0.72592  0.26633  1.0000
  H   H2331     1.0  0.34890  0.87274  0.23873  1.0000
  C   C1324     1.0  0.37383  0.52565  0.41124  1.0000
  S   S294      1.0  0.37795  0.56532  0.45158  1.0000
  H   H2332     1.0  0.27226  0.97079  0.01018  1.0000
  S   S295      1.0  0.38144  0.86783  0.40874  1.0000
  H   H2333     1.0  0.19380  0.63516  0.43608  1.0000
  H   H2334     1.0  0.34000  0.85796  0.27182  1.0000
  H   H2335     1.0  0.36137  0.51519  0.10704  1.0000
  C   C1325     1.0  0.37317  0.91884  0.09593  1.0000
  C   C1326     1.0  0.20714  0.55689  0.99594  1.0000
  H   H2336     1.0  0.31049  0.52101  0.37229  1.0000
  H   H2337     1.0  0.19409  0.90064  0.27179  1.0000
  C   C1327     1.0  0.19801  0.72474  0.28856  1.0000
  H   H2338     1.0  0.32235  0.73762  0.40304  1.0000
  H   H2339     1.0  0.18666  0.71443  0.34305  1.0000
  Fe  Fe145     1.0  0.18536  0.76311  0.21861  1.0000
  H   H2340     1.0  0.36616  0.87397  0.02583  1.0000
  C   C1328     1.0  0.36304  0.51527  0.06283  1.0000
  H   H2341     1.0  0.30217  0.94942  0.98590  1.0000
  H   H2342     1.0  0.20659  0.68575  0.35044  1.0000
  C   C1329     1.0  0.20742  0.67914  0.04853  1.0000
  C   C1330     1.0  0.36774  0.87747  0.27459  1.0000
  H   H2343     1.0  0.28927  0.50179  0.14893  1.0000
  H   H2344     1.0  0.36883  0.56120  0.00490  1.0000
  H   H2345     1.0  0.18726  0.66037  0.05389  1.0000
  C   C1331     1.0  0.34973  0.86177  0.25243  1.0000
  H   H2346     1.0  0.27139  0.96883  0.10929  1.0000
  C   C1332     1.0  0.30985  0.54629  0.45741  1.0000
  Fe  Fe146     1.0  0.22456  0.73748  0.47033  1.0000
  H   H2347     1.0  0.20298  0.66266  0.02346  1.0000
  H   H2348     1.0  0.29568  0.59757  0.44945  1.0000
  H   H2349     1.0  0.24083  0.54589  0.45397  1.0000
  H   H2350     1.0  0.35010  0.85994  0.05229  1.0000
  C   C1333     1.0  0.37889  0.52782  0.31999  1.0000
  N   N76       1.0  0.26958  0.80160  0.27850  1.0000
  C   C1334     1.0  0.25314  0.80031  0.29373  1.0000
  C   C1335     1.0  0.27625  0.79148  0.29822  1.0000
  C   C1336     1.0  0.27853  0.81842  0.27025  1.0000
  C   C1337     1.0  0.27034  0.79616  0.25195  1.0000
  C   C1338     1.0  0.26039  0.77958  0.25572  1.0000
  C   C1339     1.0  0.24353  0.80835  0.27599  1.0000
  C   C1340     1.0  0.29605  0.82176  0.25607  1.0000
  C   C1341     1.0  0.27944  0.79729  0.32398  1.0000
  C   C1342     1.0  0.28568  0.78584  0.34274  1.0000
  C   C1343     1.0  0.26361  0.77459  0.22827  1.0000
  C   C1344     1.0  0.22735  0.80661  0.29416  1.0000
  C   C1345     1.0  0.30447  0.83844  0.25375  1.0000
  H   H2351     1.0  0.25293  0.80536  0.31212  1.0000
  H   H2352     1.0  0.24668  0.78794  0.30300  1.0000
  H   H2353     1.0  0.26826  0.77965  0.30728  1.0000
  H   H2354     1.0  0.28711  0.78954  0.28650  1.0000
  H   H2355     1.0  0.27694  0.82339  0.28881  1.0000
  H   H2356     1.0  0.27394  0.82557  0.25464  1.0000
  H   H2357     1.0  0.26705  0.80435  0.23579  1.0000
  H   H2358     1.0  0.28243  0.79630  0.24206  1.0000
  H   H2359     1.0  0.24791  0.77908  0.26195  1.0000
  H   H2360     1.0  0.26300  0.77092  0.27199  1.0000
  H   H2361     1.0  0.24897  0.82096  0.26729  1.0000
  H   H2362     1.0  0.24217  0.80315  0.25824  1.0000
  H   H2363     1.0  0.29779  0.82028  0.23425  1.0000
  H   H2364     1.0  0.30170  0.81395  0.26804  1.0000
  H   H2365     1.0  0.28814  0.80864  0.31709  1.0000
  H   H2366     1.0  0.26871  0.79853  0.33731  1.0000
  H   H2367     1.0  0.29668  0.78441  0.33064  1.0000
  H   H2368     1.0  0.28785  0.79022  0.36101  1.0000
  H   H2369     1.0  0.27716  0.77433  0.35114  1.0000
  H   H2370     1.0  0.27565  0.77349  0.22259  1.0000
  H   H2371     1.0  0.25560  0.76315  0.23101  1.0000
  H   H2372     1.0  0.26185  0.78312  0.21062  1.0000
  H   H2373     1.0  0.22795  0.81128  0.31280  1.0000
  H   H2374     1.0  0.22101  0.81320  0.28144  1.0000
  H   H2375     1.0  0.22079  0.79421  0.30156  1.0000
  H   H2376     1.0  0.30393  0.84031  0.27511  1.0000
  H   H2377     1.0  0.31678  0.84078  0.24215  1.0000
  H   H2378     1.0  0.29926  0.84683  0.24190  1.0000
  S   S296      1.0  0.18465  0.57741  0.39640  1.0000
  H   H2379     1.0  0.33748  0.76289  0.44555  1.0000
  H   H2380     1.0  0.33346  0.96382  0.05388  1.0000
  H   H2381     1.0  0.34795  0.75357  0.40112  1.0000
  C   C1346     1.0  0.31903  0.51883  0.38457  1.0000
  C   C1347     1.0  0.18420  0.84876  0.28239  1.0000
  C   C1348     1.0  0.35576  0.97205  0.11678  1.0000
  H   H2382     1.0  0.37547  0.52124  0.05621  1.0000
  C   C1349     1.0  0.28151  0.57470  0.45221  1.0000
  N   N77       1.0  0.25441  0.56970  0.44264  1.0000
  H   H2383     1.0  0.20699  0.70586  0.30655  1.0000
  H   H2384     1.0  0.26851  0.49420  0.23507  1.0000
  H   H2385     1.0  0.33792  0.53589  0.35299  1.0000
  H   H2386     1.0  0.21883  0.72501  0.30194  1.0000
  C   C1350     1.0  0.19234  0.56301  0.41398  1.0000
  S   S297      1.0  0.31501  0.96699  0.10623  1.0000
  H   H2387     1.0  0.35461  0.51861  0.00734  1.0000
  H   H2388     1.0  0.22357  0.69016  0.38462  1.0000
  H   H2389     1.0  0.21871  0.76240  0.28958  1.0000
  C   C1351     1.0  0.36763  0.84989  0.03195  1.0000
  H   H2390     1.0  0.36301  0.71813  0.00987  1.0000
  H   H2391     1.0  0.25309  0.72786  0.02741  1.0000
  Fe  Fe147     1.0  0.37943  0.84446  0.43826  1.0000
  H   H2392     1.0  0.38036  0.85344  0.02380  1.0000
  H   H2393     1.0  0.37441  0.86680  0.24010  1.0000
  C   C1352     1.0  0.24936  0.56346  0.39668  1.0000
  H   H2394     1.0  0.27005  0.94963  0.10445  1.0000
  C   C1353     1.0  0.35479  0.79013  0.03844  1.0000
  H   H2395     1.0  0.25058  0.78862  0.45759  1.0000
  H   H2396     1.0  0.36994  0.94672  0.08770  1.0000
  C   C1354     1.0  0.38066  0.52414  0.43684  1.0000
  H   H2397     1.0  0.22632  0.72372  0.35062  1.0000
  H   H2398     1.0  0.34737  0.79105  0.05827  1.0000
  Fe  Fe148     1.0  0.21419  0.78882  0.21398  1.0000
  H   H2399     1.0  0.26271  0.57670  0.35396  1.0000
  H   H2400     1.0  0.36102  0.93305  0.17199  1.0000
  H   H2401     1.0  0.26935  0.78994  0.01975  1.0000
  H   H2402     1.0  0.34367  0.80183  0.01009  1.0000
  H   H2403     1.0  0.35987  0.84879  0.32002  1.0000
  C   C1355     1.0  0.19998  0.66313  0.04587  1.0000
  C   C1356     1.0  0.25540  0.95470  0.99904  1.0000
  H   H2404     1.0  0.37970  0.55024  0.39868  1.0000
  H   H2405     1.0  0.32021  0.95962  0.01223  1.0000
  C   C1357     1.0  0.24511  0.73037  0.04484  1.0000
  N   N78       1.0  0.36822  0.94910  0.13032  1.0000
  C   C1358     1.0  0.37124  0.85220  0.32457  1.0000
  H   H2406     1.0  0.34439  0.54929  0.00082  1.0000
  H   H2407     1.0  0.35148  0.81930  0.03769  1.0000
  H   H2408     1.0  0.26135  0.58103  0.47367  1.0000
  H   H2409     1.0  0.19512  0.71936  0.06586  1.0000
  C   C1359     1.0  0.35937  0.76570  0.47249  1.0000
  H   H2410     1.0  0.24844  0.60067  0.43618  1.0000
  H   H2411     1.0  0.36447  0.83953  0.05032  1.0000
  H   H2412     1.0  0.31105  0.55413  0.05255  1.0000
  S   S298      1.0  0.37700  0.60144  0.42435  1.0000
  C   C1360     1.0  0.33258  0.53323  0.37602  1.0000
  C   C1361     1.0  0.36631  0.58835  0.36383  1.0000
  H   H2413     1.0  0.37308  0.89324  0.45202  1.0000
  H   H2414     1.0  0.37134  0.77165  0.47198  1.0000
  H   H2415     1.0  0.37724  0.78970  0.36691  1.0000
  H   H2416     1.0  0.28531  0.77295  0.44135  1.0000
  H   H2417     1.0  0.21002  0.56206  0.01299  1.0000
  C   C1362     1.0  0.35769  0.94298  0.15994  1.0000
  C   C1363     1.0  0.34016  0.93691  0.16278  1.0000
  C   C1364     1.0  0.36278  0.86304  0.04305  1.0000
  H   H2418     1.0  0.34953  0.91726  0.11482  1.0000
  C   C1365     1.0  0.24121  0.59186  0.42880  1.0000
  H   H2419     1.0  0.34866  0.85278  0.24053  1.0000
  H   H2420     1.0  0.19711  0.89613  0.23882  1.0000
  H   H2421     1.0  0.35978  0.78986  0.42640  1.0000
  H   H2422     1.0  0.22754  0.70782  0.39562  1.0000
  H   H2423     1.0  0.38159  0.54776  0.35184  1.0000
  H   H2424     1.0  0.35099  0.94265  0.10797  1.0000
  H   H2425     1.0  0.19100  0.74121  0.98254  1.0000
  H   H2426     1.0  0.21710  0.65299  0.44056  1.0000
  H   H2427     1.0  0.33449  0.92507  0.20772  1.0000
  H   H2428     1.0  0.36117  0.50625  0.05115  1.0000
  C   C1366     1.0  0.36175  0.59087  0.99078  1.0000
  C   C1367     1.0  0.38301  0.72828  0.03486  1.0000
  H   H2429     1.0  0.33785  0.92580  0.15676  1.0000
  H   H2430     1.0  0.33565  0.94514  0.14914  1.0000
  H   H2431     1.0  0.35796  0.58976  0.38201  1.0000
  H   H2432     1.0  0.23164  0.98720  0.21941  1.0000
  C   C1368     1.0  0.22157  0.71096  0.35477  1.0000
  H   H2433     1.0  0.32770  0.54300  0.37985  1.0000
  C   C1369     1.0  0.20520  0.92755  0.22938  1.0000
  H   H2434     1.0  0.19011  0.68790  0.03112  1.0000
  S   S299      1.0  0.33517  0.56684  0.46258  1.0000
  H   H2435     1.0  0.35918  0.95195  0.17190  1.0000
  C   C1370     1.0  0.19611  0.70742  0.06537  1.0000
  H   H2436     1.0  0.37359  0.52590  0.00950  1.0000
  C   C1371     1.0  0.37638  0.87005  0.31868  1.0000
  H   H2437     1.0  0.25210  0.71798  0.35812  1.0000
  C   C1372     1.0  0.19312  0.64625  0.44008  1.0000
  H   H2438     1.0  0.32763  0.49783  0.99286  1.0000
  C   C1373     1.0  0.22893  0.70285  0.37714  1.0000
  C   C1374     1.0  0.37037  0.96639  0.11953  1.0000
  H   H2439     1.0  0.37054  0.92512  0.30966  1.0000
  S   S300      1.0  0.20199  0.79763  0.24852  1.0000
  H   H2440     1.0  0.24014  0.56965  0.39580  1.0000
  H   H2441     1.0  0.33874  0.72896  0.98630  1.0000
  C   C1375     1.0  0.19320  0.54459  0.45619  1.0000
  H   H2442     1.0  0.18499  0.91676  0.21860  1.0000
  C   C1376     1.0  0.36837  0.72714  0.98958  1.0000
  C   C1377     1.0  0.25741  0.56441  0.36620  1.0000
  H   H2443     1.0  0.31831  0.92904  0.19475  1.0000
  H   H2444     1.0  0.36289  0.55803  0.04186  1.0000
  C   C1378     1.0  0.24625  0.70537  0.36517  1.0000
  C   C1379     1.0  0.36878  0.50168  0.20572  1.0000
  H   H2445     1.0  0.37741  0.51627  0.31545  1.0000
  C   C1380     1.0  0.34301  0.75305  0.44663  1.0000
  H   H2446     1.0  0.20196  0.70390  0.08225  1.0000
  C   C1381     1.0  0.29403  0.77231  0.45293  1.0000
  H   H2447     1.0  0.34655  0.50043  0.10180  1.0000
  H   H2448     1.0  0.37187  0.52367  0.45617  1.0000
  H   H2449     1.0  0.26389  0.95750  0.05883  1.0000
  H   H2450     1.0  0.33823  0.70871  0.99945  1.0000
  C   C1382     1.0  0.36931  0.84433  0.35576  1.0000
  H   H2451     1.0  0.37963  0.57248  0.35376  1.0000
  Fe  Fe149     1.0  0.35448  0.81370  0.46866  1.0000
  C   C1383     1.0  0.18896  0.91674  0.23811  1.0000
  H   H2452     1.0  0.37575  0.57334  0.39017  1.0000
  N   N79       1.0  0.20411  0.70691  0.36227  1.0000
  H   H2453     1.0  0.21134  0.72065  0.99294  1.0000
  H   H2454     1.0  0.37832  0.71552  0.04086  1.0000
  S   S301      1.0  0.36010  0.83717  0.47807  1.0000
  H   H2455     1.0  0.20616  0.73157  0.01729  1.0000
  H   H2456     1.0  0.36657  0.79025  0.04104  1.0000
  H   H2457     1.0  0.36934  0.51778  0.36458  1.0000
  C   C1384     1.0  0.19935  0.71735  0.33973  1.0000
  H   H2458     1.0  0.37510  0.97263  0.13391  1.0000
  C   C1385     1.0  0.18886  0.90001  0.25372  1.0000
  H   H2459     1.0  0.36278  0.85786  0.99193  1.0000
  H   H2460     1.0  0.34078  0.82692  0.98946  1.0000
  C   C1386     1.0  0.38230  0.50491  0.21492  1.0000
  N   N80       1.0  0.36357  0.83387  0.99551  1.0000
  C   C1387     1.0  0.36602  0.74421  0.45285  1.0000
  S   S302      1.0  0.33049  0.80316  0.46293  1.0000
  H   H2461     1.0  0.27929  0.56278  0.46589  1.0000
  C   C1388     1.0  0.31689  0.78541  0.46564  1.0000
  H   H2462     1.0  0.19723  0.68277  0.38643  1.0000
  H   H2463     1.0  0.26626  0.98906  0.07338  1.0000
  H   H2464     1.0  0.37976  0.84763  0.31184  1.0000
  H   H2465     1.0  0.20426  0.67910  0.07117  1.0000
  H   H2466     1.0  0.19720  0.73643  0.29085  1.0000
  C   C1389     1.0  0.29251  0.58549  0.46309  1.0000
  H   H2467     1.0  0.38035  0.90568  0.47285  1.0000
  C   C1390     1.0  0.37989  0.91929  0.30443  1.0000
  H   H2468     1.0  0.23570  0.97602  0.09857  1.0000
  C   C1391     1.0  0.23041  0.97873  0.08064  1.0000
  C   C1392     1.0  0.37748  0.59888  0.98242  1.0000
  H   H2469     1.0  0.38078  0.77515  0.42450  1.0000
  H   H2470     1.0  0.20969  0.98610  0.07492  1.0000
  C   C1393     1.0  0.18662  0.72900  0.98211  1.0000
  C   C1394     1.0  0.24231  0.78782  0.47782  1.0000
  H   H2471     1.0  0.24451  0.95414  0.99232  1.0000
  N   N81       1.0  0.25549  0.98693  0.03930  1.0000
  H   H2472     1.0  0.24031  0.97777  0.01550  1.0000
  C   C1395     1.0  0.36355  0.77257  0.97990  1.0000
  C   C1396     1.0  0.21612  0.98424  0.09139  1.0000
  H   H2473     1.0  0.38200  0.75098  0.47827  1.0000
  C   C1397     1.0  0.38222  0.74707  0.45876  1.0000
  H   H2474     1.0  0.26382  0.97937  0.98329  1.0000
  C   C1398     1.0  0.30714  0.96211  0.98041  1.0000
  C   C1399     1.0  0.34208  0.71877  0.98042  1.0000
  H   H2475     1.0  0.18345  0.86418  0.24427  1.0000
  H   H2476     1.0  0.38300  0.52561  0.39290  1.0000
  H   H2477     1.0  0.18350  0.68955  0.33485  1.0000
  H   H2478     1.0  0.18912  0.53954  0.47882  1.0000
  H   H2479     1.0  0.30902  0.54031  0.47901  1.0000
  H   H2480     1.0  0.23052  0.78222  0.47692  1.0000
  H   H2481     1.0  0.25971  0.82889  0.73853  1.0000
  S   S303      1.0  0.21676  0.75565  0.61332  1.0000
  Fe  Fe150     1.0  0.20720  0.78757  0.68178  1.0000
  S   S304      1.0  0.22220  0.79193  0.71169  1.0000
  S   S305      1.0  0.21479  0.79507  0.63431  1.0000
  H   H2482     1.0  0.35503  0.82161  0.96676  1.0000
  H   H2483     1.0  0.24247  0.79967  0.48032  1.0000
  H   H2484     1.0  0.36246  0.73219  0.94859  1.0000
  S   S306      1.0  0.37005  0.80472  0.49432  1.0000
  Fe  Fe151     1.0  0.32153  0.52370  0.91210  1.0000
  S   S307      1.0  0.29778  0.51789  0.94122  1.0000
  S   S308      1.0  0.32931  0.51280  0.87654  1.0000
  Fe  Fe152     1.0  0.33416  0.55146  0.93521  1.0000
  S   S309      1.0  0.35718  0.56943  0.92754  1.0000
  H   H2485     1.0  0.31475  0.92593  0.81965  1.0000
  Fe  Fe153     1.0  0.30034  0.54363  0.92995  1.0000
  S   S310      1.0  0.28190  0.55441  0.91569  1.0000
  S   S311      1.0  0.33395  0.52611  0.94601  1.0000
  S   S312      1.0  0.32356  0.54932  0.89890  1.0000
  H   H2486     1.0  0.23741  0.84908  0.67788  1.0000
  Fe  Fe154     1.0  0.19373  0.52370  0.92664  1.0000
  S   S313      1.0  0.21342  0.51393  0.93725  1.0000
  Fe  Fe155     1.0  0.27901  0.86455  0.72831  1.0000
  S   S314      1.0  0.27651  0.87424  0.76621  1.0000
  S   S315      1.0  0.25956  0.85979  0.70703  1.0000
  Fe  Fe156     1.0  0.31410  0.87061  0.71887  1.0000
  S   S316      1.0  0.31447  0.88067  0.75610  1.0000
  S   S317      1.0  0.33471  0.87098  0.68468  1.0000
  Fe  Fe157     1.0  0.29344  0.86079  0.77817  1.0000
  S   S318      1.0  0.28786  0.84861  0.82475  1.0000
  Fe  Fe158     1.0  0.29760  0.89319  0.74156  1.0000
  S   S319      1.0  0.29893  0.91887  0.73408  1.0000
  S   S320      1.0  0.29435  0.84958  0.74196  1.0000
  S   S321      1.0  0.29882  0.88469  0.70262  1.0000
  H   H2487     1.0  0.23884  0.57431  0.85718  1.0000
  H   H2488     1.0  0.28109  0.50249  0.78450  1.0000
  C   C1400     1.0  0.20820  0.72113  0.82573  1.0000
  Fe  Fe159     1.0  0.31842  0.79254  0.92257  1.0000
  H   H2489     1.0  0.19572  0.84017  0.68273  1.0000
  S   S322      1.0  0.32632  0.80418  0.87550  1.0000
  H   H2490     1.0  0.19381  0.49548  0.80055  1.0000
  H   H2491     1.0  0.34982  0.90689  0.64663  1.0000
  H   H2492     1.0  0.33602  0.71585  0.96443  1.0000
  H   H2493     1.0  0.22989  0.98792  0.81123  1.0000
  H   H2494     1.0  0.21821  0.70356  0.63196  1.0000
  S   S323      1.0  0.31488  0.76670  0.93873  1.0000
  S   S324      1.0  0.21153  0.66716  0.89879  1.0000
  H   H2495     1.0  0.20988  0.58371  0.95823  1.0000
  Fe  Fe160     1.0  0.21622  0.68690  0.91954  1.0000
  S   S325      1.0  0.24100  0.70127  0.91299  1.0000
  H   H2496     1.0  0.35725  0.74518  0.50744  1.0000
  S   S326      1.0  0.20346  0.97334  0.68040  1.0000
  N   N82       1.0  0.27166  0.78290  0.87251  1.0000
  H   H2497     1.0  0.37734  0.53726  0.93217  1.0000
  C   C1401     1.0  0.24825  0.71555  0.92982  1.0000
  C   C1402     1.0  0.26431  0.72071  0.92589  1.0000
  C   C1403     1.0  0.27056  0.73207  0.93863  1.0000
  H   H2498     1.0  0.24153  0.73848  0.88589  1.0000
  H   H2499     1.0  0.18708  0.65105  0.80099  1.0000
  H   H2500     1.0  0.27197  0.71574  0.91313  1.0000
  H   H2501     1.0  0.28291  0.73565  0.93579  1.0000
  H   H2502     1.0  0.29711  0.53263  0.87660  1.0000
  C   C1404     1.0  0.29957  0.83726  0.83805  1.0000
  C   C1405     1.0  0.29742  0.83243  0.86744  1.0000
  C   C1406     1.0  0.30597  0.82276  0.87901  1.0000
  C   C1407     1.0  0.31650  0.81752  0.86133  1.0000
  C   C1408     1.0  0.31882  0.82252  0.83187  1.0000
  C   C1409     1.0  0.31041  0.83241  0.82022  1.0000
  H   H2503     1.0  0.28910  0.83621  0.88133  1.0000
  H   H2504     1.0  0.30436  0.81933  0.90162  1.0000
  H   H2505     1.0  0.32700  0.81856  0.81804  1.0000
  H   H2506     1.0  0.31211  0.83604  0.79752  1.0000
  C   C1410     1.0  0.30250  0.92900  0.75937  1.0000
  C   C1411     1.0  0.30683  0.92220  0.78330  1.0000
  C   C1412     1.0  0.31103  0.93113  0.80155  1.0000
  C   C1413     1.0  0.31055  0.94677  0.79636  1.0000
  C   C1414     1.0  0.30564  0.95338  0.77301  1.0000
  C   C1415     1.0  0.30175  0.94454  0.75447  1.0000
  H   H2507     1.0  0.30733  0.91018  0.78737  1.0000
  H   H2508     1.0  0.30523  0.96542  0.76884  1.0000
  H   H2509     1.0  0.29844  0.94989  0.73598  1.0000
  H   H2510     1.0  0.35114  0.89244  0.78743  1.0000
  H   H2511     1.0  0.22759  0.96726  0.82054  1.0000
  H   H2512     1.0  0.23518  0.63977  0.94821  1.0000
  H   H2513     1.0  0.35501  0.98905  0.85582  1.0000
  H   H2514     1.0  0.25106  0.98121  0.83029  1.0000
  H   H2515     1.0  0.34407  0.85096  0.91642  1.0000
  H   H2516     1.0  0.37177  0.88522  0.48887  1.0000
  H   H2517     1.0  0.36615  0.59837  0.55174  1.0000
  C   C1416     1.0  0.34645  0.90262  0.78118  1.0000
  H   H2518     1.0  0.22621  0.71862  0.94884  1.0000
  H   H2519     1.0  0.37209  0.78691  0.56296  1.0000
  H   H2520     1.0  0.27838  0.80727  0.85041  1.0000
  H   H2521     1.0  0.25818  0.79877  0.85901  1.0000
  H   H2522     1.0  0.28818  0.77635  0.84232  1.0000
  C   C1417     1.0  0.36456  0.58068  0.94924  1.0000
  Fe  Fe161     1.0  0.29258  0.76737  0.96700  1.0000
  S   S327      1.0  0.19859  0.76244  0.68323  1.0000
  C   C1418     1.0  0.33944  0.97060  0.70926  1.0000
  H   H2523     1.0  0.37301  0.92471  0.66425  1.0000
  C   C1419     1.0  0.34481  0.95618  0.72034  1.0000
  C   C1420     1.0  0.26254  0.54342  0.92386  1.0000
  C   C1421     1.0  0.25195  0.54993  0.91182  1.0000
  C   C1422     1.0  0.23660  0.54125  0.91689  1.0000
  C   C1423     1.0  0.23184  0.52591  0.93363  1.0000
  C   C1424     1.0  0.24238  0.51950  0.94599  1.0000
  C   C1425     1.0  0.25762  0.52826  0.94138  1.0000
  H   H2524     1.0  0.25576  0.56158  0.89798  1.0000
  H   H2525     1.0  0.22860  0.54613  0.90696  1.0000
  S   S328      1.0  0.20125  0.67262  0.96241  1.0000
  H   H2526     1.0  0.26562  0.52317  0.95101  1.0000
  S   S329      1.0  0.19732  0.69664  0.90621  1.0000
  H   H2527     1.0  0.35485  0.51199  0.67027  1.0000
  H   H2528     1.0  0.31047  0.55099  0.81392  1.0000
  H   H2529     1.0  0.33382  0.92082  0.94823  1.0000
  H   H2530     1.0  0.33339  0.85833  0.56458  1.0000
  C   C1426     1.0  0.21020  0.74982  0.52784  1.0000
  H   H2531     1.0  0.29636  0.79168  0.85514  1.0000
  H   H2532     1.0  0.30322  0.93045  0.95411  1.0000
  H   H2533     1.0  0.24484  0.80256  0.74003  1.0000
  N   N83       1.0  0.19748  0.97292  0.83569  1.0000
  Fe  Fe162     1.0  0.20425  0.77033  0.63593  1.0000
  H   H2534     1.0  0.31615  0.77382  0.85716  1.0000
  H   H2535     1.0  0.25650  0.54632  0.84552  1.0000
  H   H2536     1.0  0.34115  0.97872  0.72272  1.0000
  H   H2537     1.0  0.27140  0.51568  0.90084  1.0000
  H   H2538     1.0  0.20944  0.98465  0.79185  1.0000
  C   C1427     1.0  0.20934  0.71019  0.63510  1.0000
  H   H2539     1.0  0.19254  0.69372  0.62559  1.0000
  H   H2540     1.0  0.37257  0.56795  0.85572  1.0000
  H   H2541     1.0  0.34114  0.82557  0.67983  1.0000
  C   C1428     1.0  0.36578  0.88373  0.66498  1.0000
  C   C1429     1.0  0.35324  0.87769  0.68899  1.0000
  C   C1430     1.0  0.35569  0.87701  0.71582  1.0000
  C   C1431     1.0  0.37065  0.88243  0.71857  1.0000
  H   H2542     1.0  0.36393  0.88454  0.64418  1.0000
  H   H2543     1.0  0.34608  0.87218  0.73446  1.0000
  C   C1432     1.0  0.21436  0.75402  0.58009  1.0000
  C   C1433     1.0  0.20514  0.76190  0.56665  1.0000
  H   H2544     1.0  0.30988  0.75588  0.88476  1.0000
  H   H2545     1.0  0.19270  0.84973  0.62171  1.0000
  C   C1434     1.0  0.23277  0.81085  0.70959  1.0000
  C   C1435     1.0  0.23079  0.82404  0.69198  1.0000
  C   C1436     1.0  0.23910  0.83894  0.69138  1.0000
  C   C1437     1.0  0.24960  0.84080  0.70811  1.0000
  C   C1438     1.0  0.25170  0.82761  0.72551  1.0000
  C   C1439     1.0  0.24325  0.81271  0.72635  1.0000
  H   H2546     1.0  0.22276  0.82274  0.67901  1.0000
  C   C1440     1.0  0.25364  0.52143  0.86405  1.0000
  N   N84       1.0  0.31935  0.96226  0.92801  1.0000
  C   C1441     1.0  0.30286  0.95997  0.92587  1.0000
  H   H2547     1.0  0.32698  0.96737  0.70997  1.0000
  C   C1442     1.0  0.32935  0.97463  0.90187  1.0000
  C   C1443     1.0  0.32487  0.94770  0.92848  1.0000
  H   H2548     1.0  0.36563  0.49762  0.76397  1.0000
  C   C1444     1.0  0.29953  0.95527  0.89923  1.0000
  H   H2549     1.0  0.20234  0.92351  0.63315  1.0000
  C   C1445     1.0  0.18979  0.61449  0.94229  1.0000
  H   H2550     1.0  0.32435  0.51906  0.77032  1.0000
  C   C1446     1.0  0.24847  0.97013  0.76371  1.0000
  C   C1447     1.0  0.28234  0.95242  0.90050  1.0000
  C   C1448     1.0  0.34649  0.49682  0.71256  1.0000
  H   H2551     1.0  0.29920  0.97090  0.92622  1.0000
  H   H2552     1.0  0.29477  0.95111  0.94448  1.0000
  H   H2553     1.0  0.35926  0.53439  0.85495  1.0000
  C   C1449     1.0  0.31771  0.49701  0.86884  1.0000
  H   H2554     1.0  0.19002  0.69455  0.52790  1.0000
  H   H2555     1.0  0.32983  0.97021  0.88267  1.0000
  H   H2556     1.0  0.32527  0.94458  0.90806  1.0000
  C   C1450     1.0  0.36795  0.53927  0.97427  1.0000
  H   H2557     1.0  0.37551  0.54516  0.74880  1.0000
  H   H2558     1.0  0.32414  0.98466  0.89817  1.0000
  H   H2559     1.0  0.37689  0.55017  0.97087  1.0000
  H   H2560     1.0  0.30296  0.94446  0.89732  1.0000
  C   C1451     1.0  0.18738  0.73109  0.74959  1.0000
  C   C1452     1.0  0.26084  0.73867  0.95511  1.0000
  S   S330      1.0  0.18384  0.79233  0.68455  1.0000
  H   H2561     1.0  0.19866  0.90350  0.80181  1.0000
  H   H2562     1.0  0.23335  0.57208  0.90846  1.0000
  H   H2563     1.0  0.24822  0.73676  0.85060  1.0000
  H   H2564     1.0  0.36498  0.91331  0.74404  1.0000
  C   C1453     1.0  0.35529  0.58192  0.97421  1.0000
  H   H2565     1.0  0.37185  0.94169  0.71169  1.0000
  H   H2566     1.0  0.33921  0.74957  0.50512  1.0000
  H   H2567     1.0  0.21149  0.84979  0.65142  1.0000
  H   H2568     1.0  0.28034  0.94933  0.88099  1.0000
  H   H2569     1.0  0.27543  0.94272  0.91910  1.0000
  H   H2570     1.0  0.35553  0.84366  0.67140  1.0000
  H   H2571     1.0  0.26215  0.61062  0.89812  1.0000
  H   H2572     1.0  0.28723  0.60391  0.89296  1.0000
  N   N85       1.0  0.25088  0.91964  0.74717  1.0000
  C   C1454     1.0  0.25607  0.90897  0.76864  1.0000
  C   C1455     1.0  0.24823  0.91176  0.72430  1.0000
  C   C1456     1.0  0.26317  0.93477  0.73521  1.0000
  C   C1457     1.0  0.23603  0.92307  0.76051  1.0000
  C   C1458     1.0  0.22259  0.90878  0.77788  1.0000
  C   C1459     1.0  0.25836  0.91459  0.79502  1.0000
  C   C1460     1.0  0.26069  0.94656  0.71027  1.0000
  C   C1461     1.0  0.26276  0.90897  0.70587  1.0000
  C   C1462     1.0  0.25868  0.90156  0.68281  1.0000
  C   C1463     1.0  0.23371  0.61632  0.94390  1.0000
  C   C1464     1.0  0.26321  0.90256  0.81533  1.0000
  C   C1465     1.0  0.27388  0.96135  0.70023  1.0000
  H   H2573     1.0  0.26733  0.90715  0.75874  1.0000
  H   H2574     1.0  0.24805  0.89714  0.77583  1.0000
  H   H2575     1.0  0.24003  0.90010  0.73378  1.0000
  H   H2576     1.0  0.24253  0.91832  0.70998  1.0000
  H   H2577     1.0  0.27468  0.93262  0.72830  1.0000
  H   H2578     1.0  0.26422  0.94094  0.75191  1.0000
  H   H2579     1.0  0.23807  0.93085  0.77449  1.0000
  H   H2580     1.0  0.23160  0.92969  0.74394  1.0000
  H   H2581     1.0  0.22561  0.90210  0.79629  1.0000
  H   H2582     1.0  0.34618  0.97666  0.68715  1.0000
  H   H2583     1.0  0.26764  0.92552  0.78883  1.0000
  H   H2584     1.0  0.24762  0.91660  0.80678  1.0000
  H   H2585     1.0  0.24983  0.95003  0.71673  1.0000
  H   H2586     1.0  0.26023  0.94164  0.69191  1.0000
  H   H2587     1.0  0.27178  0.91995  0.69524  1.0000
  H   H2588     1.0  0.26781  0.90092  0.71889  1.0000
  H   H2589     1.0  0.20159  0.59270  0.82202  1.0000
  C   C1466     1.0  0.26218  0.59830  0.90581  1.0000
  H   H2590     1.0  0.25433  0.90945  0.66802  1.0000
  H   H2591     1.0  0.35254  0.83511  0.58144  1.0000
  H   H2592     1.0  0.25267  0.52851  0.50245  1.0000
  H   H2593     1.0  0.23876  0.50763  0.95897  1.0000
  H   H2594     1.0  0.25414  0.89142  0.82310  1.0000
  H   H2595     1.0  0.27419  0.90044  0.80461  1.0000
  H   H2596     1.0  0.26507  0.90691  0.83379  1.0000
  C   C1467     1.0  0.23705  0.97554  0.75258  1.0000
  H   H2597     1.0  0.19379  0.76335  0.74263  1.0000
  H   H2598     1.0  0.27179  0.96967  0.68259  1.0000
  Fe  Fe163     1.0  0.32616  0.77289  0.97238  1.0000
  C   C1468     1.0  0.35253  0.53789  0.79817  1.0000
  C   C1469     1.0  0.35160  0.75475  0.50267  1.0000
  H   H2599     1.0  0.18478  0.98419  0.86301  1.0000
  C   C1470     1.0  0.19964  0.84199  0.65947  1.0000
  H   H2600     1.0  0.18650  0.96118  0.89722  1.0000
  C   C1471     1.0  0.34620  0.52870  0.77835  1.0000
  H   H2601     1.0  0.21846  0.57344  0.86361  1.0000
  C   C1472     1.0  0.36276  0.54694  0.84445  1.0000
  H   H2602     1.0  0.20910  0.71001  0.83880  1.0000
  C   C1473     1.0  0.19211  0.73341  0.79600  1.0000
  C   C1474     1.0  0.32879  0.52666  0.78310  1.0000
  C   C1475     1.0  0.27040  0.51001  0.83505  1.0000
  H   H2603     1.0  0.34864  0.54883  0.79542  1.0000
  H   H2604     1.0  0.34626  0.53091  0.81998  1.0000
  C   C1476     1.0  0.35723  0.50882  0.69074  1.0000
  C   C1477     1.0  0.37453  0.53018  0.95444  1.0000
  H   H2605     1.0  0.18627  0.86409  0.67229  1.0000
  H   H2606     1.0  0.35852  0.82936  0.65197  1.0000
  H   H2607     1.0  0.33364  0.89865  0.78780  1.0000
  H   H2608     1.0  0.28249  0.50569  0.88178  1.0000
  H   H2609     1.0  0.35723  0.51261  0.83500  1.0000
  C   C1478     1.0  0.36989  0.78459  0.95501  1.0000
  H   H2610     1.0  0.35151  0.53468  0.75567  1.0000
  H   H2611     1.0  0.34828  0.51695  0.78262  1.0000
  C   C1479     1.0  0.18690  0.76228  0.76420  1.0000
  H   H2612     1.0  0.29459  0.51831  0.81111  1.0000
  H   H2613     1.0  0.35214  0.55079  0.84255  1.0000
  H   H2614     1.0  0.18832  0.69461  0.57796  1.0000
  C   C1480     1.0  0.24633  0.77808  0.50278  1.0000
  H   H2615     1.0  0.23501  0.55388  0.49903  1.0000
  S   S331      1.0  0.28795  0.98304  0.83405  1.0000
  C   C1481     1.0  0.24870  0.58961  0.93221  1.0000
  H   H2616     1.0  0.30561  0.74648  0.49813  1.0000
  H   H2617     1.0  0.26160  0.49865  0.84239  1.0000
  H   H2618     1.0  0.32619  0.53807  0.77649  1.0000
  H   H2619     1.0  0.26155  0.59240  0.88870  1.0000
  C   C1482     1.0  0.37093  0.88670  0.57877  1.0000
  C   C1483     1.0  0.23111  0.60678  0.92227  1.0000
  S   S332      1.0  0.20708  0.74696  0.49564  1.0000
  H   H2620     1.0  0.33150  0.96549  0.96014  1.0000
  C   C1484     1.0  0.20297  0.75970  0.54063  1.0000
  S   S333      1.0  0.18803  0.81934  0.60772  1.0000
  N   N86       1.0  0.26703  0.77835  0.53142  1.0000
  C   C1485     1.0  0.28407  0.78493  0.52723  1.0000
  C   C1486     1.0  0.26397  0.76099  0.53573  1.0000
  H   H2621     1.0  0.38041  0.55160  0.86716  1.0000
  C   C1487     1.0  0.25709  0.78233  0.55567  1.0000
  C   C1488     1.0  0.26425  0.78479  0.58051  1.0000
  C   C1489     1.0  0.28981  0.80292  0.51686  1.0000
  H   H2622     1.0  0.22502  0.58692  0.97516  1.0000
  C   C1490     1.0  0.26737  0.75160  0.56229  1.0000
  C   C1491     1.0  0.26537  0.73456  0.56202  1.0000
  C   C1492     1.0  0.25266  0.78749  0.60448  1.0000
  H   H2623     1.0  0.21049  0.92158  0.80319  1.0000
  C   C1493     1.0  0.18793  0.86499  0.64923  1.0000
  H   H2624     1.0  0.29085  0.78028  0.51141  1.0000
  H   H2625     1.0  0.28771  0.78096  0.54675  1.0000
  H   H2626     1.0  0.25167  0.75580  0.53761  1.0000
  H   H2627     1.0  0.27057  0.75835  0.51676  1.0000
  H   H2628     1.0  0.33058  0.83526  0.54237  1.0000
  H   H2629     1.0  0.26735  0.51654  0.81650  1.0000
  H   H2630     1.0  0.25365  0.79321  0.54795  1.0000
  H   H2631     1.0  0.24596  0.77325  0.56479  1.0000
  H   H2632     1.0  0.27414  0.79521  0.57328  1.0000
  H   H2633     1.0  0.26844  0.77473  0.58947  1.0000
  C   C1494     1.0  0.28148  0.53388  0.84875  1.0000
  H   H2634     1.0  0.32523  0.77051  0.49496  1.0000
  H   H2635     1.0  0.23772  0.77744  0.52243  1.0000
  H   H2636     1.0  0.34703  0.75550  0.54659  1.0000
  H   H2637     1.0  0.27933  0.75603  0.56351  1.0000
  H   H2638     1.0  0.25908  0.75190  0.58166  1.0000
  H   H2639     1.0  0.26754  0.72791  0.58149  1.0000
  H   H2640     1.0  0.25345  0.72934  0.56129  1.0000
  H   H2641     1.0  0.27368  0.73352  0.54333  1.0000
  H   H2642     1.0  0.25846  0.79048  0.62075  1.0000
  H   H2643     1.0  0.24770  0.79718  0.59640  1.0000
  H   H2644     1.0  0.24321  0.77683  0.61488  1.0000
  H   H2645     1.0  0.20762  0.72658  0.70435  1.0000
  C   C1495     1.0  0.24220  0.53286  0.50738  1.0000
  C   C1496     1.0  0.19355  0.61915  0.91271  1.0000
  H   H2646     1.0  0.20929  0.96482  0.86690  1.0000
  C   C1497     1.0  0.23436  0.63339  0.93174  1.0000
  Fe  Fe164     1.0  0.31032  0.52258  0.97411  1.0000
  H   H2647     1.0  0.32715  0.82153  0.57648  1.0000
  H   H2648     1.0  0.33365  0.50000  0.82870  1.0000
  C   C1498     1.0  0.25651  0.79381  0.94298  1.0000
  H   H2649     1.0  0.23721  0.73900  0.97070  1.0000
  H   H2650     1.0  0.19774  0.74094  0.73916  1.0000
  H   H2651     1.0  0.29666  0.49517  0.79436  1.0000
  H   H2652     1.0  0.18355  0.70556  0.75832  1.0000
  C   C1499     1.0  0.19813  0.71612  0.71641  1.0000
  H   H2653     1.0  0.22804  0.52357  0.84057  1.0000
  H   H2654     1.0  0.27839  0.96309  0.90173  1.0000
  H   H2655     1.0  0.23066  0.56172  0.97229  1.0000
  H   H2656     1.0  0.22377  0.63451  0.92479  1.0000
  C   C1500     1.0  0.35953  0.72251  0.96805  1.0000
  H   H2657     1.0  0.19955  0.76956  0.57640  1.0000
  H   H2658     1.0  0.25604  0.53509  0.82017  1.0000
  H   H2659     1.0  0.37354  0.91542  0.69905  1.0000
  Fe  Fe165     1.0  0.37756  0.82911  0.49954  1.0000
  H   H2660     1.0  0.28716  0.58530  0.48523  1.0000
  H   H2661     1.0  0.28104  0.80862  0.52578  1.0000
  C   C1501     1.0  0.31572  0.93319  0.95290  1.0000
  H   H2662     1.0  0.20441  0.70926  0.59537  1.0000
  H   H2663     1.0  0.23900  0.61362  0.90150  1.0000
  H   H2664     1.0  0.19181  0.88036  0.59691  1.0000
  H   H2665     1.0  0.22815  0.53347  0.86818  1.0000
  C   C1502     1.0  0.30621  0.76369  0.86864  1.0000
  H   H2666     1.0  0.32110  0.54854  0.84032  1.0000
  Fe  Fe166     1.0  0.19066  0.79796  0.63699  1.0000
  H   H2667     1.0  0.27850  0.58599  0.92011  1.0000
  C   C1503     1.0  0.24481  0.73375  0.95856  1.0000
  H   H2668     1.0  0.37308  0.52114  0.78172  1.0000
  H   H2669     1.0  0.32779  0.84377  0.59716  1.0000
  H   H2670     1.0  0.20007  0.83057  0.65526  1.0000
  C   C1504     1.0  0.34243  0.91884  0.69425  1.0000
  H   H2671     1.0  0.36216  0.71207  0.96222  1.0000
  H   H2672     1.0  0.20096  0.89588  0.64564  1.0000
  H   H2673     1.0  0.24838  0.95801  0.76723  1.0000
  S   S334      1.0  0.31105  0.54805  0.96521  1.0000
  H   H2674     1.0  0.19494  0.76364  0.77785  1.0000
  H   H2675     1.0  0.31483  0.90872  0.96706  1.0000
  H   H2676     1.0  0.28123  0.79220  0.81170  1.0000
  H   H2677     1.0  0.18418  0.60079  0.79144  1.0000
  H   H2678     1.0  0.37978  0.72302  0.48118  1.0000
  H   H2679     1.0  0.26671  0.80285  0.94271  1.0000
  H   H2680     1.0  0.37554  0.56350  0.80567  1.0000
  H   H2681     1.0  0.27937  0.60440  0.92878  1.0000
  H   H2682     1.0  0.37821  0.88159  0.59146  1.0000
  C   C1505     1.0  0.22151  0.74410  0.56736  1.0000
  H   H2683     1.0  0.20366  0.74018  0.78188  1.0000
  H   H2684     1.0  0.28058  0.81979  0.80018  1.0000
  H   H2685     1.0  0.19213  0.72809  0.60928  1.0000
  H   H2686     1.0  0.22399  0.61183  0.96335  1.0000
  H   H2687     1.0  0.30279  0.75719  0.85354  1.0000
  C   C1506     1.0  0.32108  0.96798  0.95377  1.0000
  H   H2688     1.0  0.20294  0.71612  0.75631  1.0000
  H   H2689     1.0  0.33840  0.88380  0.58891  1.0000
  C   C1507     1.0  0.29267  0.76907  0.88323  1.0000
  H   H2690     1.0  0.25690  0.80395  0.90020  1.0000
  H   H2691     1.0  0.20555  0.95844  0.80984  1.0000
  Fe  Fe167     1.0  0.20414  0.97084  0.72582  1.0000
  S   S335      1.0  0.31676  0.95793  0.81863  1.0000
  H   H2692     1.0  0.31348  0.80274  0.51813  1.0000
  C   C1508     1.0  0.27125  0.50871  0.88507  1.0000
  C   C1509     1.0  0.32270  0.49342  0.84309  1.0000
  C   C1510     1.0  0.30553  0.75746  0.48474  1.0000
  C   C1511     1.0  0.36333  0.50082  0.74349  1.0000
  H   H2693     1.0  0.34295  0.82239  0.54750  1.0000
  C   C1512     1.0  0.27028  0.81049  0.80174  1.0000
  H   H2694     1.0  0.29786  0.96786  0.97655  1.0000
  C   C1513     1.0  0.21085  0.97511  0.84902  1.0000
  H   H2695     1.0  0.24978  0.89034  0.69234  1.0000
  H   H2696     1.0  0.21541  0.57695  0.91418  1.0000
  C   C1514     1.0  0.25104  0.53501  0.84233  1.0000
  H   H2697     1.0  0.19510  0.70935  0.80213  1.0000
  H   H2698     1.0  0.36475  0.76877  0.52418  1.0000
  H   H2699     1.0  0.20239  0.70563  0.71526  1.0000
  H   H2700     1.0  0.29650  0.77499  0.89875  1.0000
  H   H2701     1.0  0.35329  0.93401  0.65084  1.0000
  H   H2702     1.0  0.33019  0.91300  0.70615  1.0000
  H   H2703     1.0  0.18630  0.72389  0.56818  1.0000
  S   S336      1.0  0.33165  0.79858  0.95357  1.0000
  C   C1515     1.0  0.35252  0.76359  0.52525  1.0000
  C   C1516     1.0  0.26962  0.79652  0.85168  1.0000
  H   H2704     1.0  0.37252  0.88194  0.73936  1.0000
  C   C1517     1.0  0.26102  0.75738  0.85885  1.0000
  C   C1518     1.0  0.27137  0.78733  0.90004  1.0000
  C   C1519     1.0  0.34382  0.84054  0.93291  1.0000
  C   C1520     1.0  0.38072  0.88910  0.66769  1.0000
  C   C1521     1.0  0.34558  0.92353  0.73953  1.0000
  S   S337      1.0  0.18366  0.67775  0.84853  1.0000
  H   H2705     1.0  0.27220  0.77744  0.91660  1.0000
  H   H2706     1.0  0.26971  0.75112  0.86415  1.0000
  C   C1522     1.0  0.30470  0.80894  0.52488  1.0000
  H   H2707     1.0  0.32272  0.52118  0.80572  1.0000
  C   C1523     1.0  0.19400  0.71813  0.81413  1.0000
  C   C1524     1.0  0.21953  0.74207  0.54123  1.0000
  S   S338      1.0  0.19168  0.62822  0.96236  1.0000
  C   C1525     1.0  0.33802  0.85180  0.58096  1.0000
  H   H2708     1.0  0.34994  0.93213  0.75064  1.0000
  C   C1526     1.0  0.22814  0.58207  0.90826  1.0000
  C   C1527     1.0  0.34236  0.92526  0.66296  1.0000
  H   H2709     1.0  0.35264  0.97189  0.90343  1.0000
  C   C1528     1.0  0.35347  0.85477  0.61623  1.0000
  H   H2710     1.0  0.35787  0.54222  0.96772  1.0000
  C   C1529     1.0  0.33617  0.82945  0.55780  1.0000
  H   H2711     1.0  0.33282  0.91968  0.74836  1.0000
  H   H2712     1.0  0.36273  0.78766  0.94112  1.0000
  C   C1530     1.0  0.32135  0.91889  0.94897  1.0000
  C   C1531     1.0  0.37410  0.51275  0.72165  1.0000
  H   H2713     1.0  0.21888  0.72599  0.80813  1.0000
  S   S339      1.0  0.36826  0.58755  0.49178  1.0000
  C   C1532     1.0  0.35221  0.90957  0.74912  1.0000
  C   C1533     1.0  0.31932  0.86568  0.61596  1.0000
  H   H2714     1.0  0.27104  0.78325  0.48577  1.0000
  C   C1534     1.0  0.19305  0.60796  0.89720  1.0000
  C   C1535     1.0  0.33706  0.87288  0.60533  1.0000
  C   C1536     1.0  0.34979  0.83471  0.66224  1.0000
  H   H2715     1.0  0.19182  0.65052  0.76446  1.0000
  C   C1537     1.0  0.37436  0.50025  0.82619  1.0000
  S   S340      1.0  0.18390  0.53908  0.95112  1.0000
  H   H2716     1.0  0.24693  0.49485  0.90314  1.0000
  C   C1538     1.0  0.22156  0.58195  0.95824  1.0000
  H   H2717     1.0  0.21953  0.90091  0.76463  1.0000
  H   H2718     1.0  0.21527  0.72275  0.62826  1.0000
  H   H2719     1.0  0.29847  0.87100  0.63667  1.0000
  H   H2720     1.0  0.31525  0.87850  0.64775  1.0000
  H   H2721     1.0  0.19639  0.61170  0.87433  1.0000
  H   H2722     1.0  0.26460  0.79770  0.50040  1.0000
  Fe  Fe168     1.0  0.19111  0.67569  0.88966  1.0000
  H   H2723     1.0  0.24460  0.63889  0.91342  1.0000
  H   H2724     1.0  0.20427  0.92014  0.77154  1.0000
  C   C1539     1.0  0.37097  0.51681  0.69527  1.0000
  C   C1540     1.0  0.24565  0.55009  0.49234  1.0000
  C   C1541     1.0  0.25866  0.76855  0.87798  1.0000
  S   S341      1.0  0.26795  0.75283  0.97231  1.0000
  H   H2725     1.0  0.30242  0.80727  0.54813  1.0000
  C   C1542     1.0  0.31679  0.77107  0.48282  1.0000
  H   H2726     1.0  0.23270  0.52600  0.50090  1.0000
  C   C1543     1.0  0.35299  0.83108  0.97655  1.0000
  H   H2727     1.0  0.19880  0.58126  0.79729  1.0000
  H   H2728     1.0  0.31445  0.86387  0.59799  1.0000
  H   H2729     1.0  0.22372  0.59928  0.87504  1.0000
  C   C1544     1.0  0.34641  0.98116  0.90187  1.0000
  H   H2730     1.0  0.19724  0.63139  0.90179  1.0000
  H   H2731     1.0  0.34955  0.85428  0.96070  1.0000
  H   H2732     1.0  0.31309  0.88778  0.61359  1.0000
  H   H2733     1.0  0.35587  0.84865  0.54734  1.0000
  N   N87       1.0  0.34703  0.86301  0.59368  1.0000
  N   N88       1.0  0.23268  0.59031  0.92972  1.0000
  H   H2734     1.0  0.33316  0.84690  0.65261  1.0000
  C   C1545     1.0  0.31110  0.87645  0.62923  1.0000
  H   H2735     1.0  0.34828  0.90925  0.69537  1.0000
  H   H2736     1.0  0.24463  0.51080  0.86574  1.0000
  H   H2737     1.0  0.28288  0.53945  0.82598  1.0000
  H   H2738     1.0  0.25116  0.59378  0.95055  1.0000
  C   C1546     1.0  0.30958  0.54908  0.83692  1.0000
  H   H2739     1.0  0.24594  0.79724  0.95178  1.0000
  H   H2740     1.0  0.25488  0.55634  0.50014  1.0000
  H   H2741     1.0  0.37507  0.90549  0.54074  1.0000
  C   C1547     1.0  0.37571  0.52728  0.79771  1.0000
  N   N89       1.0  0.36980  0.54169  0.79442  1.0000
  H   H2742     1.0  0.23231  0.54448  0.83184  1.0000
  H   H2743     1.0  0.27747  0.54202  0.86065  1.0000
  S   S342      1.0  0.19336  0.53791  0.88426  1.0000
  C   C1548     1.0  0.26007  0.98034  0.77039  1.0000
  H   H2744     1.0  0.31945  0.91616  0.92914  1.0000
  H   H2745     1.0  0.19972  0.87260  0.63855  1.0000
  H   H2746     1.0  0.23852  0.53115  0.53063  1.0000
  H   H2747     1.0  0.34446  0.95021  0.68098  1.0000
  S   S343      1.0  0.29580  0.79297  0.94918  1.0000
  C   C1549     1.0  0.20023  0.98574  0.80913  1.0000
  C   C1550     1.0  0.36991  0.51546  0.82713  1.0000
  H   H2748     1.0  0.19377  0.72675  0.96335  1.0000
  C   C1551     1.0  0.20814  0.91386  0.78929  1.0000
  H   H2749     1.0  0.36415  0.89280  0.59152  1.0000
  C   C1552     1.0  0.23384  0.53405  0.84601  1.0000
  H   H2750     1.0  0.30633  0.55901  0.84406  1.0000
  C   C1553     1.0  0.23191  0.59184  0.87706  1.0000
  H   H2751     1.0  0.36576  0.57805  0.56178  1.0000
  H   H2752     1.0  0.36267  0.84966  0.60676  1.0000
  C   C1554     1.0  0.27773  0.59811  0.91243  1.0000
  H   H2753     1.0  0.26033  0.78623  0.82097  1.0000
  H   H2754     1.0  0.33914  0.91717  0.62625  1.0000
  H   H2755     1.0  0.36844  0.86715  0.56145  1.0000
  C   C1555     1.0  0.23024  0.58136  0.85711  1.0000
  S   S344      1.0  0.18842  0.57844  0.89058  1.0000
  H   H2756     1.0  0.35734  0.95988  0.71872  1.0000
  H   H2757     1.0  0.33272  0.93095  0.66225  1.0000
  C   C1556     1.0  0.29772  0.53389  0.85378  1.0000
  C   C1557     1.0  0.34135  0.94384  0.70378  1.0000
  H   H2758     1.0  0.36585  0.85034  0.93879  1.0000
  H   H2759     1.0  0.28505  0.95863  0.69257  1.0000
  S   S345      1.0  0.22254  0.96236  0.74480  1.0000
  H   H2760     1.0  0.19572  0.76571  0.53035  1.0000
  H   H2761     1.0  0.28311  0.75872  0.89505  1.0000
  C   C1558     1.0  0.28740  0.78043  0.86176  1.0000
  C   C1559     1.0  0.18424  0.58734  0.94065  1.0000
  H   H2762     1.0  0.27045  0.80915  0.78014  1.0000
  H   H2763     1.0  0.37169  0.56158  0.76016  1.0000
  Fe  Fe169     1.0  0.19514  0.65370  0.94080  1.0000
  H   H2764     1.0  0.19939  0.71325  0.53084  1.0000
  H   H2765     1.0  0.37931  0.82582  0.94718  1.0000
  H   H2766     1.0  0.36592  0.51917  0.95681  1.0000
  H   H2767     1.0  0.19673  0.90143  0.61179  1.0000
  N   N90       1.0  0.26951  0.51844  0.85801  1.0000
  C   C1560     1.0  0.34695  0.84149  0.56680  1.0000
  H   H2768     1.0  0.25641  0.78255  0.95705  1.0000
  C   C1561     1.0  0.36651  0.93753  0.69568  1.0000
  C   C1562     1.0  0.18565  0.71598  0.62066  1.0000
  C   C1563     1.0  0.19779  0.70638  0.61786  1.0000
  H   H2769     1.0  0.34637  0.77292  0.52236  1.0000
  C   C1564     1.0  0.37590  0.92684  0.68379  1.0000
  H   H2770     1.0  0.24467  0.61589  0.94978  1.0000
  H   H2771     1.0  0.36893  0.94808  0.67779  1.0000
  H   H2772     1.0  0.27786  0.49344  0.53073  1.0000
  C   C1565     1.0  0.28618  0.50711  0.82315  1.0000
  H   H2773     1.0  0.18861  0.78702  0.75294  1.0000
  H   H2774     1.0  0.32914  0.90328  0.65970  1.0000
  H   H2775     1.0  0.20728  0.72929  0.83925  1.0000
  H   H2776     1.0  0.20339  0.70697  0.65800  1.0000
  C   C1566     1.0  0.33996  0.91233  0.64803  1.0000
  C   C1567     1.0  0.19080  0.91513  0.64007  1.0000
  C   C1568     1.0  0.35387  0.84523  0.95215  1.0000
  H   H2777     1.0  0.29993  0.49053  0.90771  1.0000
  H   H2778     1.0  0.35031  0.91132  0.79249  1.0000
  H   H2779     1.0  0.18376  0.71292  0.83257  1.0000
  H   H2780     1.0  0.30573  0.96464  0.87970  1.0000
  C   C1569     1.0  0.38174  0.89889  0.55263  1.0000
  H   H2781     1.0  0.30222  0.52430  0.84804  1.0000
  C   C1570     1.0  0.27051  0.79514  0.82112  1.0000
  H   H2782     1.0  0.19052  0.93855  0.79204  1.0000
  H   H2783     1.0  0.22508  0.73438  0.53162  1.0000
  H   H2784     1.0  0.24775  0.77193  0.87661  1.0000
  N   N91       1.0  0.34930  0.93079  0.70806  1.0000
  H   H2785     1.0  0.33164  0.83514  0.94530  1.0000
  H   H2786     1.0  0.29058  0.50120  0.84029  1.0000
  C   C1571     1.0  0.36049  0.87373  0.57025  1.0000
  H   H2787     1.0  0.28163  0.79696  0.89735  1.0000
  H   H2788     1.0  0.35624  0.87929  0.55230  1.0000
  H   H2789     1.0  0.34865  0.90023  0.73911  1.0000
  H   H2790     1.0  0.33851  0.95134  0.74306  1.0000
  H   H2791     1.0  0.32861  0.93910  0.70968  1.0000
  Fe  Fe170     1.0  0.31176  0.98153  0.81436  1.0000
  H   H2792     1.0  0.18921  0.74017  0.81160  1.0000
  H   H2793     1.0  0.23218  0.58860  0.83522  1.0000
  H   H2794     1.0  0.25971  0.81413  0.80984  1.0000
  H   H2795     1.0  0.34720  0.98649  0.91968  1.0000
  C   C1572     1.0  0.18845  0.59202  0.91108  1.0000
  H   H2796     1.0  0.34099  0.87676  0.62292  1.0000
  C   C1573     1.0  0.23853  0.72221  0.94619  1.0000
  H   H2797     1.0  0.26508  0.76358  0.83610  1.0000
  H   H2798     1.0  0.24612  0.78384  0.91399  1.0000
  C   C1574     1.0  0.25686  0.79237  0.91299  1.0000
  H   H2799     1.0  0.31634  0.85437  0.63193  1.0000
  H   H2800     1.0  0.24372  0.59954  0.86958  1.0000
  C   C1575     1.0  0.19298  0.58421  0.81645  1.0000
  S   S346      1.0  0.23558  0.71897  0.48793  1.0000
  H   H2801     1.0  0.21932  0.60667  0.91963  1.0000
  C   C1576     1.0  0.22703  0.97745  0.82916  1.0000
  H   H2802     1.0  0.19632  0.94826  0.84547  1.0000
  H   H2803     1.0  0.25087  0.52400  0.88494  1.0000
  H   H2804     1.0  0.23715  0.75062  0.85646  1.0000
  H   H2805     1.0  0.33568  0.83250  0.63332  1.0000
  C   C1577     1.0  0.28509  0.49693  0.80267  1.0000
  C   C1578     1.0  0.34172  0.84195  0.64095  1.0000
  H   H2806     1.0  0.21661  0.55806  0.95257  1.0000
  C   C1579     1.0  0.24603  0.74511  0.86327  1.0000
  H   H2807     1.0  0.18839  0.71580  0.70633  1.0000
  H   H2808     1.0  0.27460  0.96699  0.71771  1.0000
  H   H2809     1.0  0.26888  0.97609  0.77877  1.0000
  H   H2810     1.0  0.22857  0.73790  0.57781  1.0000
  H   H2811     1.0  0.35938  0.86321  0.62609  1.0000
  H   H2812     1.0  0.26912  0.89916  0.67062  1.0000
  H   H2813     1.0  0.25620  0.76119  0.90009  1.0000
  H   H2814     1.0  0.24952  0.57735  0.93706  1.0000
  H   H2815     1.0  0.18980  0.98456  0.80084  1.0000
  C   C1580     1.0  0.19570  0.95768  0.82781  1.0000
  C   C1581     1.0  0.23961  0.97957  0.84495  1.0000
  C   C1582     1.0  0.18804  0.70478  0.53546  1.0000
  H   H2816     1.0  0.36943  0.58986  0.58555  1.0000
  C   C1583     1.0  0.21978  0.56415  0.96832  1.0000
  C   C1584     1.0  0.38030  0.58867  0.94092  1.0000
  H   H2817     1.0  0.18864  0.57341  0.83407  1.0000
  C   C1585     1.0  0.34958  0.49288  0.73901  1.0000
  H   H2818     1.0  0.18924  0.62486  0.79492  1.0000
  H   H2819     1.0  0.34819  0.83221  0.92212  1.0000
  S   S347      1.0  0.38179  0.83363  0.54116  1.0000
  C   C1586     1.0  0.37144  0.58980  0.56293  1.0000
  C   C1587     1.0  0.37420  0.55087  0.81479  1.0000
  C   C1588     1.0  0.19228  0.89949  0.63492  1.0000
  H   H2820     1.0  0.37910  0.52613  0.67840  1.0000
  C   C1589     1.0  0.26302  0.78493  0.50425  1.0000
  C   C1590     1.0  0.25877  0.49316  0.89941  1.0000
  H   H2821     1.0  0.38046  0.51534  0.63222  1.0000
  H   H2822     1.0  0.18586  0.91390  0.66290  1.0000
  H   H2823     1.0  0.24515  0.76623  0.49965  1.0000
  H   H2824     1.0  0.29215  0.80658  0.49339  1.0000
  H   H2825     1.0  0.30947  0.82153  0.51427  1.0000
  H   H2826     1.0  0.31754  0.93502  0.97333  1.0000
  H   H2827     1.0  0.36136  0.55182  0.88519  1.0000
  H   H2828     1.0  0.38115  0.68421  0.97335  1.0000
  H   H2829     1.0  0.37065  0.49225  0.84783  1.0000
  H   H2830     1.0  0.23764  0.96919  0.86282  1.0000
  C   C1591     1.0  0.19284  0.71630  0.74735  1.0000
  H   H2831     1.0  0.25922  0.49323  0.94280  1.0000
  H   H2832     1.0  0.36852  0.49451  0.81235  1.0000
  H   H2833     1.0  0.32317  0.98083  0.94854  1.0000
  C   C1592     1.0  0.37726  0.55181  0.76461  1.0000
  H   H2834     1.0  0.21117  0.98505  0.85874  1.0000
  C   C1593     1.0  0.18851  0.84876  0.64461  1.0000
  H   H2835     1.0  0.37530  0.52021  0.84247  1.0000
  H   H2836     1.0  0.38287  0.85104  0.96474  1.0000
  C   C1594     1.0  0.36981  0.55514  0.86418  1.0000
  H   H2837     1.0  0.33699  0.94977  0.93014  1.0000
  H   H2838     1.0  0.18746  0.89301  0.55157  1.0000
  C   C1595     1.0  0.18507  0.59855  0.95619  1.0000
  H   H2839     1.0  0.18330  0.91992  0.62763  1.0000
  C   C1596     1.0  0.18314  0.97311  0.85666  1.0000
  C   C1597     1.0  0.38034  0.83921  0.97919  1.0000
  S   S348      1.0  0.42547  0.18603  0.23671  1.0000
  S   S349      1.0  0.41613  0.20821  0.34919  1.0000
  S   S350      1.0  0.41501  0.21921  0.26929  1.0000
  Fe  Fe171     1.0  0.50450  0.05456  0.29085  1.0000
  S   S351      1.0  0.51938  0.06532  0.24659  1.0000
  S   S352      1.0  0.48802  0.03000  0.30449  1.0000
  Fe  Fe172     1.0  0.51861  0.08335  0.31161  1.0000
  S   S353      1.0  0.53384  0.09583  0.26815  1.0000
  S   S354      1.0  0.51962  0.09278  0.35073  1.0000
  Fe  Fe173     1.0  0.51313  0.08723  0.25252  1.0000
  S   S355      1.0  0.50776  0.10256  0.21579  1.0000
  Fe  Fe174     1.0  0.53856  0.07278  0.26646  1.0000
  S   S356      1.0  0.56259  0.06930  0.25391  1.0000
  S   S357      1.0  0.49724  0.07637  0.29610  1.0000
  S   S358      1.0  0.52429  0.06043  0.31064  1.0000
  Fe  Fe175     1.0  0.40330  0.20659  0.31463  1.0000
  H   H2840     1.0  0.39930  0.39604  0.18433  1.0000
  H   H2841     1.0  0.51137  0.10950  0.46954  1.0000
  S   S359      1.0  0.55277  0.15453  0.44905  1.0000
  H   H2842     1.0  0.39763  0.30301  0.09610  1.0000
  H   H2843     1.0  0.56535  0.48317  0.27694  1.0000
  H   H2844     1.0  0.55069  0.24152  0.46908  1.0000
  Fe  Fe176     1.0  0.56132  0.18026  0.44325  1.0000
  H   H2845     1.0  0.46462  0.17180  0.98219  1.0000
  Fe  Fe177     1.0  0.50542  0.26030  0.41183  1.0000
  S   S360      1.0  0.49964  0.28087  0.38603  1.0000
  S   S361      1.0  0.52586  0.25209  0.39167  1.0000
  Fe  Fe178     1.0  0.47864  0.25621  0.46184  1.0000
  S   S362      1.0  0.47089  0.27627  0.44000  1.0000
  Fe  Fe179     1.0  0.47493  0.26648  0.40205  1.0000
  S   S363      1.0  0.45811  0.26649  0.37359  1.0000
  Fe  Fe180     1.0  0.49623  0.28906  0.42590  1.0000
  S   S364      1.0  0.50243  0.31479  0.42680  1.0000
  S   S365      1.0  0.48099  0.24549  0.42510  1.0000
  S   S366      1.0  0.50365  0.26943  0.45049  1.0000
  Fe  Fe181     1.0  0.52632  0.43482  0.26427  1.0000
  S   S367      1.0  0.53399  0.43518  0.21829  1.0000
  S   S368      1.0  0.52774  0.41674  0.30196  1.0000
  Fe  Fe182     1.0  0.51224  0.46208  0.25157  1.0000
  S   S369      1.0  0.51875  0.46481  0.20481  1.0000
  S   S370      1.0  0.49938  0.47628  0.27514  1.0000
  Fe  Fe183     1.0  0.51065  0.43874  0.21550  1.0000
  S   S371      1.0  0.49751  0.42959  0.18587  1.0000
  Fe  Fe184     1.0  0.54158  0.46117  0.21072  1.0000
  S   S372      1.0  0.56291  0.47542  0.17583  1.0000
  S   S373      1.0  0.50232  0.43631  0.26200  1.0000
  S   S374      1.0  0.53574  0.46045  0.25693  1.0000
  H   H2846     1.0  0.40703  0.29949  0.19992  1.0000
  Fe  Fe185     1.0  0.41855  0.12703  0.14479  1.0000
  S   S375      1.0  0.40816  0.10312  0.17360  1.0000
  C   C1598     1.0  0.46756  0.99623  0.25592  1.0000
  Fe  Fe186     1.0  0.44011  0.11527  0.10468  1.0000
  S   S376      1.0  0.43106  0.09039  0.13080  1.0000
  S   S377      1.0  0.45852  0.11917  0.06431  1.0000
  Fe  Fe187     1.0  0.40766  0.09506  0.13447  1.0000
  Fe  Fe188     1.0  0.43241  0.10074  0.16741  1.0000
  S   S378      1.0  0.43865  0.08900  0.20657  1.0000
  S   S379      1.0  0.41655  0.11921  0.10569  1.0000
  S   S380      1.0  0.44307  0.12537  0.14127  1.0000
  Fe  Fe189     1.0  0.43330  0.32618  0.15784  1.0000
  S   S381      1.0  0.41890  0.33573  0.18831  1.0000
  S   S382      1.0  0.43787  0.30235  0.16690  1.0000
  Fe  Fe190     1.0  0.44381  0.35669  0.11239  1.0000
  S   S383      1.0  0.43032  0.36892  0.13922  1.0000
  S   S384      1.0  0.45857  0.36920  0.06827  1.0000
  Fe  Fe191     1.0  0.43906  0.35687  0.17439  1.0000
  S   S385      1.0  0.44627  0.36638  0.20953  1.0000
  Fe  Fe192     1.0  0.41132  0.34696  0.15069  1.0000
  C   C1599     1.0  0.47240  0.00177  0.29943  1.0000
  S   S386      1.0  0.45406  0.34639  0.14663  1.0000
  S   S387      1.0  0.42416  0.33566  0.12121  1.0000
  H   H2847     1.0  0.45168  0.99664  0.17928  1.0000
  H   H2848     1.0  0.47142  0.04113  0.19417  1.0000
  H   H2849     1.0  0.55733  0.15237  0.07609  1.0000
  C   C1600     1.0  0.46492  0.35695  0.04812  1.0000
  C   C1601     1.0  0.47407  0.36334  0.02021  1.0000
  C   C1602     1.0  0.48016  0.35380  0.00456  1.0000
  C   C1603     1.0  0.47694  0.33783  0.01674  1.0000
  C   C1604     1.0  0.46721  0.33138  0.04415  1.0000
  C   C1605     1.0  0.46138  0.34092  0.05995  1.0000
  H   H2850     1.0  0.47664  0.37571  0.01086  1.0000
  C   C1606     1.0  0.41630  0.11534  0.24874  1.0000
  H   H2851     1.0  0.46456  0.31899  0.05352  1.0000
  H   H2852     1.0  0.45436  0.33588  0.08143  1.0000
  H   H2853     1.0  0.54510  0.26698  0.45901  1.0000
  C   C1607     1.0  0.46854  0.13850  0.04649  1.0000
  S   S388      1.0  0.38513  0.19988  0.25181  1.0000
  C   C1608     1.0  0.43001  0.02069  0.26227  1.0000
  H   H2854     1.0  0.38860  0.15781  0.26150  1.0000
  C   C1609     1.0  0.47272  0.16624  0.04097  1.0000
  C   C1610     1.0  0.46464  0.15091  0.05599  1.0000
  H   H2855     1.0  0.49342  0.44531  0.31722  1.0000
  H   H2856     1.0  0.52474  0.44767  0.32523  1.0000
  H   H2857     1.0  0.46968  0.17583  0.04836  1.0000
  H   H2858     1.0  0.45540  0.14871  0.07486  1.0000
  H   H2859     1.0  0.41849  0.16175  0.29538  1.0000
  H   H2860     1.0  0.47162  0.33138  0.18622  1.0000
  C   C1611     1.0  0.39598  0.30695  0.26460  1.0000
  H   H2861     1.0  0.49575  0.45360  0.36044  1.0000
  H   H2862     1.0  0.55346  0.47633  0.34075  1.0000
  S   S389      1.0  0.49412  0.18855  0.99743  1.0000
  C   C1612     1.0  0.50414  0.48129  0.40184  1.0000
  H   H2863     1.0  0.50054  0.42860  0.32934  1.0000
  H   H2864     1.0  0.39446  0.33592  0.10693  1.0000
  H   H2865     1.0  0.42433  0.01717  0.21109  1.0000
  C   C1613     1.0  0.48414  0.41135  0.19300  1.0000
  C   C1614     1.0  0.47691  0.40221  0.22062  1.0000
  C   C1615     1.0  0.46552  0.38832  0.22534  1.0000
  C   C1616     1.0  0.46137  0.38336  0.20254  1.0000
  C   C1617     1.0  0.46886  0.39231  0.17490  1.0000
  C   C1618     1.0  0.48008  0.40631  0.17021  1.0000
  H   H2866     1.0  0.47989  0.40600  0.23833  1.0000
  H   H2867     1.0  0.45977  0.38147  0.24678  1.0000
  H   H2868     1.0  0.46573  0.38866  0.15718  1.0000
  H   H2869     1.0  0.48556  0.41333  0.14878  1.0000
  H   H2870     1.0  0.43738  0.02677  0.29824  1.0000
  H   H2871     1.0  0.41900  0.02396  0.26818  1.0000
  S   S390      1.0  0.54916  0.40103  0.44722  1.0000
  H   H2872     1.0  0.43520  0.14518  0.98948  1.0000
  C   C1619     1.0  0.52304  0.47483  0.36397  1.0000
  H   H2873     1.0  0.57742  0.10968  0.14738  1.0000
  C   C1620     1.0  0.53885  0.20942  0.43871  1.0000
  C   C1621     1.0  0.54543  0.21599  0.40969  1.0000
  C   C1622     1.0  0.54131  0.22903  0.39547  1.0000
  C   C1623     1.0  0.53041  0.23542  0.41000  1.0000
  C   C1624     1.0  0.52375  0.22876  0.43894  1.0000
  C   C1625     1.0  0.52802  0.21588  0.45322  1.0000
  H   H2874     1.0  0.55366  0.21103  0.39824  1.0000
  H   H2875     1.0  0.54650  0.23411  0.37306  1.0000
  H   H2876     1.0  0.51539  0.23360  0.45039  1.0000
  C   C1626     1.0  0.54509  0.45596  0.38840  1.0000
  C   C1627     1.0  0.56177  0.42780  0.35503  1.0000
  C   C1628     1.0  0.54830  0.41575  0.36651  1.0000
  C   C1629     1.0  0.53787  0.41272  0.35012  1.0000
  C   C1630     1.0  0.54079  0.42161  0.32213  1.0000
  C   C1631     1.0  0.55412  0.43383  0.31073  1.0000
  C   C1632     1.0  0.56458  0.43690  0.32716  1.0000
  H   H2877     1.0  0.54589  0.40881  0.38805  1.0000
  H   H2878     1.0  0.52739  0.40360  0.35934  1.0000
  H   H2879     1.0  0.55651  0.44075  0.28914  1.0000
  H   H2880     1.0  0.52286  0.21088  0.47565  1.0000
  H   H2881     1.0  0.57960  0.25776  0.41963  1.0000
  C   C1633     1.0  0.53136  0.32177  0.43825  1.0000
  C   C1634     1.0  0.51755  0.32600  0.43737  1.0000
  C   C1635     1.0  0.51604  0.34020  0.44309  1.0000
  C   C1636     1.0  0.52818  0.35014  0.44918  1.0000
  C   C1637     1.0  0.43533  0.02569  0.19822  1.0000
  H   H2882     1.0  0.39893  0.23339  0.42712  1.0000
  H   H2883     1.0  0.50541  0.34361  0.44266  1.0000
  H   H2884     1.0  0.56541  0.39378  0.36642  1.0000
  C   C1638     1.0  0.49432  0.43701  0.33618  1.0000
  C   C1639     1.0  0.48074  0.01718  0.28489  1.0000
  C   C1640     1.0  0.48260  0.02197  0.25561  1.0000
  C   C1641     1.0  0.47606  0.01158  0.24132  1.0000
  H   H2885     1.0  0.42266  0.47933  0.20470  1.0000
  S   S391      1.0  0.40696  0.14578  0.15428  1.0000
  H   H2886     1.0  0.49917  0.48545  0.21610  1.0000
  H   H2887     1.0  0.48897  0.03372  0.24404  1.0000
  H   H2888     1.0  0.47761  0.01548  0.21873  1.0000
  H   H2889     1.0  0.45041  0.06357  0.19375  1.0000
  C   C1642     1.0  0.51508  0.37635  0.02284  1.0000
  C   C1643     1.0  0.53282  0.10864  0.35610  1.0000
  C   C1644     1.0  0.53330  0.10917  0.38388  1.0000
  C   C1645     1.0  0.54369  0.12139  0.38905  1.0000
  C   C1646     1.0  0.55376  0.13336  0.36644  1.0000
  C   C1647     1.0  0.55306  0.13295  0.33872  1.0000
  C   C1648     1.0  0.54266  0.12076  0.33357  1.0000
  H   H2890     1.0  0.52568  0.09997  0.40157  1.0000
  H   H2891     1.0  0.54404  0.12142  0.41050  1.0000
  H   H2892     1.0  0.56064  0.14218  0.32103  1.0000
  H   H2893     1.0  0.54223  0.12075  0.31215  1.0000
  C   C1649     1.0  0.48877  0.09793  0.21217  1.0000
  C   C1650     1.0  0.48507  0.10649  0.18880  1.0000
  C   C1651     1.0  0.46978  0.10360  0.18634  1.0000
  C   C1652     1.0  0.45814  0.09220  0.20739  1.0000
  C   C1653     1.0  0.46194  0.08336  0.23027  1.0000
  C   C1654     1.0  0.47721  0.08617  0.23264  1.0000
  H   H2894     1.0  0.49397  0.11559  0.17286  1.0000
  H   H2895     1.0  0.46696  0.11041  0.16852  1.0000
  H   H2896     1.0  0.45300  0.07440  0.24643  1.0000
  H   H2897     1.0  0.47997  0.07940  0.25055  1.0000
  C   C1655     1.0  0.55387  0.26443  0.44294  1.0000
  H   H2898     1.0  0.39526  0.26990  0.15780  1.0000
  H   H2899     1.0  0.42622  0.05412  0.22844  1.0000
  H   H2900     1.0  0.56289  0.10052  0.22471  1.0000
  Fe  Fe193     1.0  0.57157  0.41708  0.41953  1.0000
  C   C1656     1.0  0.48053  0.14147  0.02204  1.0000
  H   H2901     1.0  0.39151  0.39928  0.13767  1.0000
  H   H2902     1.0  0.42880  0.15162  0.31689  1.0000
  C   C1657     1.0  0.42855  0.22475  0.35362  1.0000
  C   C1658     1.0  0.42732  0.23986  0.34335  1.0000
  C   C1659     1.0  0.43649  0.25249  0.34954  1.0000
  C   C1660     1.0  0.44714  0.25022  0.36575  1.0000
  C   C1661     1.0  0.44859  0.23515  0.37548  1.0000
  C   C1662     1.0  0.43927  0.22250  0.36964  1.0000
  H   H2903     1.0  0.41897  0.24176  0.33136  1.0000
  H   H2904     1.0  0.43520  0.26408  0.34200  1.0000
  H   H2905     1.0  0.45680  0.23321  0.38778  1.0000
  H   H2906     1.0  0.44027  0.21086  0.37783  1.0000
  C   C1663     1.0  0.42047  0.17528  0.21308  1.0000
  C   C1664     1.0  0.43046  0.16683  0.20238  1.0000
  C   C1665     1.0  0.42654  0.15779  0.18411  1.0000
  C   C1666     1.0  0.54209  0.34604  0.44952  1.0000
  H   H2907     1.0  0.44120  0.16722  0.20833  1.0000
  H   H2908     1.0  0.43421  0.15121  0.17605  1.0000
  C   C1667     1.0  0.41449  0.25839  0.21147  1.0000
  C   C1668     1.0  0.42589  0.27139  0.19326  1.0000
  C   C1669     1.0  0.42323  0.28625  0.18908  1.0000
  C   C1670     1.0  0.40913  0.28807  0.20310  1.0000
  H   H2909     1.0  0.41657  0.24695  0.21448  1.0000
  H   H2910     1.0  0.43679  0.26993  0.18239  1.0000
  H   H2911     1.0  0.45195  0.05257  0.16868  1.0000
  C   C1671     1.0  0.47188  0.33510  0.20590  1.0000
  H   H2912     1.0  0.51893  0.46636  0.41014  1.0000
  C   C1672     1.0  0.56668  0.16192  0.07721  1.0000
  H   H2913     1.0  0.40820  0.06798  0.20863  1.0000
  H   H2914     1.0  0.38695  0.23710  0.46853  1.0000
  H   H2915     1.0  0.57495  0.44629  0.31817  1.0000
  H   H2916     1.0  0.40293  0.36295  0.20478  1.0000
  C   C1673     1.0  0.41420  0.29453  0.11665  1.0000
  H   H2917     1.0  0.43310  0.27444  0.45217  1.0000
  H   H2918     1.0  0.43389  0.22019  0.43170  1.0000
  H   H2919     1.0  0.49820  0.46287  0.15564  1.0000
  C   C1674     1.0  0.42588  0.21771  0.45303  1.0000
  C   C1675     1.0  0.44650  0.47818  0.20198  1.0000
  C   C1676     1.0  0.50273  0.44574  0.35377  1.0000
  H   H2920     1.0  0.41980  0.28241  0.43521  1.0000
  H   H2921     1.0  0.58087  0.45013  0.13257  1.0000
  H   H2922     1.0  0.39538  0.30650  0.24284  1.0000
  H   H2923     1.0  0.40375  0.37753  0.22446  1.0000
  C   C1677     1.0  0.38510  0.26898  0.14868  1.0000
  C   C1678     1.0  0.40763  0.22656  0.42818  1.0000
  H   H2924     1.0  0.51707  0.46415  0.31909  1.0000
  H   H2925     1.0  0.39911  0.18167  0.21259  1.0000
  C   C1679     1.0  0.44446  0.20612  0.47715  1.0000
  S   S392      1.0  0.54402  0.19351  0.45818  1.0000
  H   H2926     1.0  0.41661  0.28336  0.12597  1.0000
  H   H2927     1.0  0.41449  0.30162  0.13205  1.0000
  C   C1680     1.0  0.41529  0.25729  0.44421  1.0000
  H   H2928     1.0  0.56451  0.24130  0.42338  1.0000
  H   H2929     1.0  0.39920  0.05244  0.06436  1.0000
  H   H2930     1.0  0.40876  0.25708  0.42789  1.0000
  H   H2931     1.0  0.57223  0.46013  0.08871  1.0000
  C   C1681     1.0  0.42749  0.30298  0.09039  1.0000
  H   H2932     1.0  0.43860  0.00579  0.16361  1.0000
  H   H2933     1.0  0.54813  0.26058  0.42719  1.0000
  H   H2934     1.0  0.56684  0.07734  0.18270  1.0000
  H   H2935     1.0  0.44498  0.23015  0.46679  1.0000
  Fe  Fe194     1.0  0.40762  0.19615  0.25985  1.0000
  C   C1682     1.0  0.43436  0.48492  0.19031  1.0000
  H   H2936     1.0  0.52680  0.36101  0.45342  1.0000
  N   N92       1.0  0.45485  0.45237  0.21478  1.0000
  C   C1683     1.0  0.44330  0.46047  0.20478  1.0000
  C   C1684     1.0  0.44989  0.43509  0.21731  1.0000
  C   C1685     1.0  0.45505  0.45441  0.24390  1.0000
  C   C1686     1.0  0.47096  0.45932  0.19580  1.0000
  C   C1687     1.0  0.47318  0.45912  0.16445  1.0000
  C   C1688     1.0  0.56054  0.25173  0.45732  1.0000
  C   C1689     1.0  0.46561  0.44617  0.25889  1.0000
  C   C1690     1.0  0.44045  0.42999  0.19684  1.0000
  C   C1691     1.0  0.43807  0.41266  0.19915  1.0000
  S   S393      1.0  0.38444  0.07939  0.13741  1.0000
  H   H2937     1.0  0.41010  0.14167  0.31448  1.0000
  C   C1692     1.0  0.46224  0.44606  0.29014  1.0000
  C   C1693     1.0  0.43531  0.01659  0.28933  1.0000
  H   H2938     1.0  0.44219  0.45903  0.18379  1.0000
  H   H2939     1.0  0.46013  0.43010  0.21485  1.0000
  H   H2940     1.0  0.44244  0.42869  0.23892  1.0000
  H   H2941     1.0  0.44308  0.45040  0.25801  1.0000
  H   H2942     1.0  0.45917  0.46688  0.24310  1.0000
  H   H2943     1.0  0.47530  0.47144  0.19669  1.0000
  H   H2944     1.0  0.47914  0.45300  0.20358  1.0000
  H   H2945     1.0  0.45957  0.11994  0.99899  1.0000
  H   H2946     1.0  0.47156  0.44697  0.16275  1.0000
  H   H2947     1.0  0.53333  0.13873  0.20351  1.0000
  H   H2948     1.0  0.52012  0.12823  0.44457  1.0000
  H   H2949     1.0  0.47789  0.45250  0.24892  1.0000
  H   H2950     1.0  0.46416  0.43396  0.25776  1.0000
  H   H2951     1.0  0.42882  0.43217  0.20223  1.0000
  H   H2952     1.0  0.44622  0.43635  0.17449  1.0000
  H   H2953     1.0  0.43211  0.40563  0.22116  1.0000
  H   H2954     1.0  0.43100  0.40930  0.18482  1.0000
  H   H2955     1.0  0.44937  0.41005  0.19268  1.0000
  H   H2956     1.0  0.48134  0.33156  0.21428  1.0000
  C   C1694     1.0  0.43027  0.11213  0.02509  1.0000
  H   H2957     1.0  0.56165  0.24219  0.98189  1.0000
  C   C1695     1.0  0.55798  0.17157  0.98710  1.0000
  H   H2958     1.0  0.57194  0.15576  0.02682  1.0000
  H   H2959     1.0  0.57922  0.03452  0.18151  1.0000
  H   H2960     1.0  0.46401  0.45810  0.29244  1.0000
  H   H2961     1.0  0.45021  0.43939  0.30144  1.0000
  H   H2962     1.0  0.47021  0.44047  0.30013  1.0000
  C   C1696     1.0  0.54351  0.33171  0.44430  1.0000
  H   H2963     1.0  0.51678  0.48057  0.34964  1.0000
  H   H2964     1.0  0.55386  0.03376  0.21148  1.0000
  C   C1697     1.0  0.48954  0.46804  0.14709  1.0000
  C   C1698     1.0  0.42418  0.24452  0.44638  1.0000
  H   H2965     1.0  0.56924  0.19130  0.99923  1.0000
  H   H2966     1.0  0.38638  0.38176  0.10690  1.0000
  H   H2967     1.0  0.39866  0.38139  0.16480  1.0000
  H   H2968     1.0  0.41811  0.38061  0.19192  1.0000
  C   C1699     1.0  0.43597  0.21896  0.47429  1.0000
  H   H2969     1.0  0.55135  0.08687  0.32141  1.0000
  C   C1700     1.0  0.41271  0.15735  0.17619  1.0000
  H   H2970     1.0  0.52165  0.44433  0.39057  1.0000
  C   C1701     1.0  0.54842  0.07183  0.36251  1.0000
  H   H2971     1.0  0.57173  0.38746  0.02116  1.0000
  C   C1702     1.0  0.48841  0.15678  0.00672  1.0000
  H   H2972     1.0  0.55017  0.14017  0.21710  1.0000
  C   C1703     1.0  0.39584  0.38343  0.18613  1.0000
  H   H2973     1.0  0.55336  0.44785  0.42516  1.0000
  H   H2974     1.0  0.45325  0.03024  0.23705  1.0000
  H   H2975     1.0  0.43333  0.02981  0.17705  1.0000
  H   H2976     1.0  0.49761  0.15897  0.98788  1.0000
  C   C1704     1.0  0.44793  0.01683  0.19342  1.0000
  H   H2977     1.0  0.49102  0.46742  0.12481  1.0000
  C   C1705     1.0  0.38982  0.05447  0.07898  1.0000
  H   H2978     1.0  0.41032  0.11509  0.27046  1.0000
  H   H2979     1.0  0.56199  0.21795  0.47236  1.0000
  H   H2980     1.0  0.39559  0.11376  0.23348  1.0000
  C   C1706     1.0  0.39772  0.27508  0.22119  1.0000
  C   C1707     1.0  0.45201  0.05214  0.19108  1.0000
  H   H2981     1.0  0.56779  0.10496  0.28357  1.0000
  H   H2982     1.0  0.45128  0.01278  0.21315  1.0000
  H   H2983     1.0  0.42920  0.06226  0.17501  1.0000
  H   H2984     1.0  0.41950  0.20528  0.45833  1.0000
  H   H2985     1.0  0.53626  0.35574  0.05849  1.0000
  C   C1708     1.0  0.54475  0.48488  0.30582  1.0000
  H   H2986     1.0  0.55764  0.08551  0.14053  1.0000
  H   H2987     1.0  0.55982  0.12730  0.11056  1.0000
  C   C1709     1.0  0.55507  0.07158  0.18201  1.0000
  C   C1710     1.0  0.48874  0.48732  0.25743  1.0000
  S   S394      1.0  0.57506  0.43205  0.37510  1.0000
  H   H2988     1.0  0.57250  0.14099  0.26033  1.0000
  H   H2989     1.0  0.41583  0.10312  0.24814  1.0000
  H   H2990     1.0  0.52109  0.38833  0.02240  1.0000
  H   H2991     1.0  0.57672  0.12974  0.14283  1.0000
  H   H2992     1.0  0.43160  0.45497  0.21949  1.0000
  H   H2993     1.0  0.38715  0.26191  0.13336  1.0000
  H   H2994     1.0  0.56307  0.02074  0.23017  1.0000
  H   H2995     1.0  0.57100  0.44404  0.17804  1.0000
  H   H2996     1.0  0.43002  0.24589  0.46332  1.0000
  C   C1711     1.0  0.46593  0.99135  0.28510  1.0000
  C   C1712     1.0  0.39308  0.06464  0.09584  1.0000
  H   H2997     1.0  0.47845  0.07651  0.16945  1.0000
  N   N93       1.0  0.41479  0.22799  0.45241  1.0000
  H   H2998     1.0  0.39845  0.31926  0.26547  1.0000
  H   H2999     1.0  0.56930  0.11906  0.30280  1.0000
  H   H3000     1.0  0.48057  0.06235  0.14941  1.0000
  H   H3001     1.0  0.40921  0.20450  0.41855  1.0000
  H   H3002     1.0  0.44611  0.01275  0.28497  1.0000
  H   H3003     1.0  0.53041  0.12030  0.46871  1.0000
  H   H3004     1.0  0.53862  0.06333  0.35991  1.0000
  H   H3005     1.0  0.56143  0.12623  0.18447  1.0000
  H   H3006     1.0  0.55664  0.45722  0.37438  1.0000
  H   H3007     1.0  0.55365  0.16247  0.00748  1.0000
  N   N94       1.0  0.44174  0.12452  0.26245  1.0000
  C   C1713     1.0  0.43369  0.13029  0.28612  1.0000
  C   C1714     1.0  0.44206  0.10795  0.27426  1.0000
  C   C1715     1.0  0.45783  0.13504  0.25001  1.0000
  C   C1716     1.0  0.43343  0.12491  0.23937  1.0000
  H   H3008     1.0  0.40548  0.13322  0.23235  1.0000
  C   C1717     1.0  0.42885  0.14561  0.27690  1.0000
  C   C1718     1.0  0.46870  0.12993  0.22767  1.0000
  C   C1719     1.0  0.45179  0.10553  0.29606  1.0000
  C   C1720     1.0  0.45102  0.08835  0.30714  1.0000
  H   H3009     1.0  0.53253  0.48438  0.36482  1.0000
  C   C1721     1.0  0.42111  0.15040  0.30258  1.0000
  C   C1722     1.0  0.48487  0.14092  0.21812  1.0000
  H   H3010     1.0  0.44124  0.13232  0.30051  1.0000
  H   H3011     1.0  0.42327  0.12130  0.30003  1.0000
  H   H3012     1.0  0.43012  0.10063  0.28485  1.0000
  H   H3013     1.0  0.44619  0.10272  0.25691  1.0000
  H   H3014     1.0  0.46368  0.13658  0.26702  1.0000
  H   H3015     1.0  0.45729  0.14691  0.23950  1.0000
  H   H3016     1.0  0.43427  0.13711  0.22828  1.0000
  H   H3017     1.0  0.43920  0.12022  0.22246  1.0000
  H   H3018     1.0  0.45198  0.20668  0.45628  1.0000
  C   C1723     1.0  0.57286  0.18351  0.98639  1.0000
  H   H3019     1.0  0.43902  0.15526  0.26436  1.0000
  H   H3020     1.0  0.42043  0.14431  0.26395  1.0000
  H   H3021     1.0  0.46430  0.13001  0.20860  1.0000
  H   H3022     1.0  0.46994  0.11813  0.23632  1.0000
  H   H3023     1.0  0.46413  0.11171  0.28646  1.0000
  H   H3024     1.0  0.44748  0.10982  0.31454  1.0000
  H   H3025     1.0  0.43892  0.08154  0.31754  1.0000
  H   H3026     1.0  0.45589  0.08361  0.28962  1.0000
  H   H3027     1.0  0.45794  0.08695  0.32292  1.0000
  H   H3028     1.0  0.57372  0.21867  0.42599  1.0000
  H   H3029     1.0  0.44766  0.33292  0.21926  1.0000
  C   C1724     1.0  0.57197  0.24698  0.43527  1.0000
  H   H3030     1.0  0.41648  0.23187  0.40761  1.0000
  C   C1725     1.0  0.40567  0.05880  0.19754  1.0000
  H   H3031     1.0  0.39923  0.28401  0.09457  1.0000
  H   H3032     1.0  0.48446  0.15295  0.20850  1.0000
  H   H3033     1.0  0.49010  0.14080  0.23631  1.0000
  H   H3034     1.0  0.49238  0.13706  0.20204  1.0000
  H   H3035     1.0  0.56320  0.07332  0.32244  1.0000
  C   C1726     1.0  0.46862  0.05240  0.19411  1.0000
  H   H3036     1.0  0.56180  0.16746  0.09350  1.0000
  H   H3037     1.0  0.57369  0.44735  0.22461  1.0000
  H   H3038     1.0  0.53228  0.37459  0.98624  1.0000
  H   H3039     1.0  0.49174  0.48044  0.14739  1.0000
  C   C1727     1.0  0.57314  0.17403  0.04858  1.0000
  H   H3040     1.0  0.46507  0.46456  0.15472  1.0000
  H   H3041     1.0  0.41477  0.09894  0.06586  1.0000
  H   H3042     1.0  0.40489  0.07033  0.09430  1.0000
  H   H3043     1.0  0.45822  0.02436  0.17677  1.0000
  H   H3044     1.0  0.38939  0.40188  0.08854  1.0000
  H   H3045     1.0  0.56274  0.03919  0.23804  1.0000
  H   H3046     1.0  0.54478  0.46734  0.39279  1.0000
  H   H3047     1.0  0.53262  0.44327  0.43199  1.0000
  H   H3048     1.0  0.39244  0.16614  0.17962  1.0000
  H   H3049     1.0  0.42796  0.10554  0.98682  1.0000
  H   H3050     1.0  0.43358  0.24749  0.42650  1.0000
  H   H3051     1.0  0.58014  0.34393  0.38413  1.0000
  H   H3052     1.0  0.56500  0.36974  0.01181  1.0000
  H   H3053     1.0  0.39564  0.04934  0.21135  1.0000
  H   H3054     1.0  0.53712  0.48113  0.29274  1.0000
  C   C1728     1.0  0.51909  0.45537  0.33608  1.0000
  H   H3055     1.0  0.42633  0.00695  0.30539  1.0000
  H   H3056     1.0  0.56888  0.12611  0.24195  1.0000
  H   H3057     1.0  0.54359  0.07939  0.37473  1.0000
  H   H3058     1.0  0.53484  0.17090  0.98203  1.0000
  H   H3059     1.0  0.43371  0.12264  0.03252  1.0000
  H   H3060     1.0  0.43830  0.10469  0.02866  1.0000
  Fe  Fe195     1.0  0.39146  0.22171  0.26600  1.0000
  Fe  Fe196     1.0  0.56316  0.38393  0.45729  1.0000
  H   H3061     1.0  0.45268  0.14337  0.99777  1.0000
  C   C1729     1.0  0.57600  0.43699  0.21784  1.0000
  H   H3062     1.0  0.41661  0.04377  0.17798  1.0000
  C   C1730     1.0  0.56024  0.11640  0.12508  1.0000
  H   H3063     1.0  0.56350  0.17878  0.04358  1.0000
  H   H3064     1.0  0.40580  0.10993  0.04281  1.0000
  C   C1731     1.0  0.51220  0.46897  0.39444  1.0000
  H   H3065     1.0  0.58283  0.21828  0.37526  1.0000
  H   H3066     1.0  0.50300  0.43693  0.37255  1.0000
  C   C1732     1.0  0.57750  0.08516  0.23175  1.0000
  Fe  Fe197     1.0  0.57146  0.15822  0.40933  1.0000
  N   N95       1.0  0.52957  0.46302  0.35167  1.0000
  N   N96       1.0  0.53031  0.36027  0.35411  1.0000
  C   C1733     1.0  0.51345  0.35704  0.36905  1.0000
  C   C1734     1.0  0.53450  0.34497  0.35517  1.0000
  C   C1735     1.0  0.53964  0.36867  0.37058  1.0000
  C   C1736     1.0  0.53441  0.37032  0.32401  1.0000
  C   C1737     1.0  0.52184  0.36861  0.30740  1.0000
  C   C1738     1.0  0.50793  0.37125  0.37538  1.0000
  C   C1739     1.0  0.55733  0.37044  0.36206  1.0000
  C   C1740     1.0  0.52527  0.33343  0.34225  1.0000
  C   C1741     1.0  0.52949  0.31786  0.34827  1.0000
  C   C1742     1.0  0.52842  0.37755  0.27623  1.0000
  C   C1743     1.0  0.49035  0.36742  0.38541  1.0000
  C   C1744     1.0  0.56587  0.38175  0.37572  1.0000
  H   H3067     1.0  0.51066  0.34814  0.38965  1.0000
  H   H3068     1.0  0.50592  0.35175  0.35705  1.0000
  H   H3069     1.0  0.54679  0.34689  0.34383  1.0000
  H   H3070     1.0  0.53330  0.33879  0.37762  1.0000
  H   H3071     1.0  0.53550  0.36263  0.39351  1.0000
  H   H3072     1.0  0.53797  0.38056  0.36875  1.0000
  H   H3073     1.0  0.53751  0.38290  0.32340  1.0000
  H   H3074     1.0  0.54501  0.36838  0.31131  1.0000
  H   H3075     1.0  0.51228  0.37346  0.31612  1.0000
  H   H3076     1.0  0.51677  0.35638  0.30842  1.0000
  H   H3077     1.0  0.51259  0.37482  0.39250  1.0000
  H   H3078     1.0  0.51183  0.38123  0.35630  1.0000
  H   H3079     1.0  0.56208  0.37474  0.33877  1.0000
  H   H3080     1.0  0.55986  0.35907  0.36952  1.0000
  H   H3081     1.0  0.51264  0.33097  0.35120  1.0000
  H   H3082     1.0  0.52818  0.33802  0.31893  1.0000
  H   H3083     1.0  0.52642  0.31243  0.37146  1.0000
  H   H3084     1.0  0.52297  0.30983  0.33842  1.0000
  H   H3085     1.0  0.54202  0.31939  0.33939  1.0000
  H   H3086     1.0  0.53324  0.39007  0.27418  1.0000
  H   H3087     1.0  0.53762  0.37276  0.26586  1.0000
  H   H3088     1.0  0.51911  0.37656  0.26507  1.0000
  H   H3089     1.0  0.48678  0.37766  0.39056  1.0000
  H   H3090     1.0  0.48504  0.36446  0.36854  1.0000
  H   H3091     1.0  0.48601  0.35750  0.40471  1.0000
  C   C1745     1.0  0.39843  0.29172  0.10899  1.0000
  H   H3092     1.0  0.56073  0.37856  0.39894  1.0000
  H   H3093     1.0  0.49236  0.06532  0.17358  1.0000
  S   S395      1.0  0.56797  0.14860  0.37122  1.0000
  H   H3094     1.0  0.42593  0.31443  0.08018  1.0000
  H   H3095     1.0  0.48248  0.43050  0.34897  1.0000
  H   H3096     1.0  0.56595  0.10197  0.34662  1.0000
  C   C1746     1.0  0.41977  0.05250  0.18961  1.0000
  C   C1747     1.0  0.57587  0.11995  0.13290  1.0000
  H   H3097     1.0  0.43854  0.30499  0.09664  1.0000
  H   H3098     1.0  0.49663  0.48383  0.38752  1.0000
  H   H3099     1.0  0.54727  0.06817  0.20365  1.0000
  S   S396      1.0  0.48533  0.32555  0.99920  1.0000
  H   H3100     1.0  0.39379  0.47209  0.20950  1.0000
  C   C1748     1.0  0.54348  0.44416  0.41628  1.0000
  H   H3101     1.0  0.54145  0.18444  0.00115  1.0000
  H   H3102     1.0  0.45795  0.48448  0.18735  1.0000
  H   H3103     1.0  0.53657  0.35766  0.02247  1.0000
  Fe  Fe198     1.0  0.57120  0.15208  0.47203  1.0000
  H   H3104     1.0  0.53276  0.31093  0.43386  1.0000
  H   H3105     1.0  0.48368  0.32254  0.08466  1.0000
  C   C1749     1.0  0.57185  0.09419  0.33658  1.0000
  N   N97       1.0  0.43885  0.03907  0.21119  1.0000
  H   H3106     1.0  0.41438  0.03578  0.22969  1.0000
  C   C1750     1.0  0.51987  0.37426  0.99256  1.0000
  H   H3107     1.0  0.49681  0.47697  0.42395  1.0000
  C   C1751     1.0  0.41426  0.10275  0.04356  1.0000
  N   N98       1.0  0.43791  0.30146  0.25852  1.0000
  C   C1752     1.0  0.45186  0.31003  0.23413  1.0000
  C   C1753     1.0  0.43375  0.28430  0.25988  1.0000
  C   C1754     1.0  0.42458  0.30802  0.25291  1.0000
  C   C1755     1.0  0.44032  0.30380  0.28641  1.0000
  C   C1756     1.0  0.45416  0.29877  0.29539  1.0000
  C   C1757     1.0  0.45639  0.32800  0.22797  1.0000
  C   C1758     1.0  0.40839  0.29936  0.27311  1.0000
  C   C1759     1.0  0.44715  0.27700  0.24991  1.0000
  C   C1760     1.0  0.44181  0.25929  0.25857  1.0000
  C   C1761     1.0  0.45578  0.30259  0.32312  1.0000
  N   N99       1.0  0.58155  0.23644  0.44625  1.0000
  H   H3108     1.0  0.41020  0.09221  0.03659  1.0000
  H   H3109     1.0  0.44985  0.30734  0.21427  1.0000
  H   H3110     1.0  0.46221  0.30600  0.23695  1.0000
  H   H3111     1.0  0.42704  0.27735  0.28168  1.0000
  H   H3112     1.0  0.42589  0.28193  0.24614  1.0000
  H   H3113     1.0  0.42379  0.30832  0.23088  1.0000
  H   H3114     1.0  0.42656  0.32029  0.25418  1.0000
  H   H3115     1.0  0.44138  0.31614  0.28674  1.0000
  H   H3116     1.0  0.43000  0.29711  0.30393  1.0000
  H   H3117     1.0  0.46519  0.30478  0.27926  1.0000
  H   H3118     1.0  0.45235  0.28602  0.29922  1.0000
  C   C1762     1.0  0.54504  0.17948  0.98315  1.0000
  H   H3119     1.0  0.45737  0.33180  0.24728  1.0000
  H   H3120     1.0  0.40809  0.29971  0.29522  1.0000
  H   H3121     1.0  0.40507  0.28703  0.27271  1.0000
  H   H3122     1.0  0.45127  0.28085  0.22641  1.0000
  H   H3123     1.0  0.45712  0.28038  0.25855  1.0000
  H   H3124     1.0  0.43140  0.25524  0.25140  1.0000
  H   H3125     1.0  0.45111  0.25450  0.24869  1.0000
  H   H3126     1.0  0.43908  0.25479  0.28192  1.0000
  H   H3127     1.0  0.44527  0.29630  0.34053  1.0000
  H   H3128     1.0  0.46576  0.29884  0.32910  1.0000
  H   H3129     1.0  0.45778  0.31528  0.32081  1.0000
  H   H3130     1.0  0.39430  0.20226  0.44976  1.0000
  H   H3131     1.0  0.57141  0.48141  0.22643  1.0000
  C   C1763     1.0  0.56377  0.03315  0.22090  1.0000
  H   H3132     1.0  0.56419  0.36938  0.04835  1.0000
  H   H3133     1.0  0.55558  0.06088  0.17499  1.0000
  C   C1764     1.0  0.54488  0.47120  0.33030  1.0000
  N   N100      1.0  0.46665  0.21455  0.26058  1.0000
  C   C1765     1.0  0.48350  0.21681  0.24662  1.0000
  C   C1766     1.0  0.46490  0.22858  0.27123  1.0000
  C   C1767     1.0  0.46134  0.19990  0.28452  1.0000
  C   C1768     1.0  0.45691  0.21298  0.23997  1.0000
  C   C1769     1.0  0.46154  0.22648  0.21259  1.0000
  C   C1770     1.0  0.48739  0.20475  0.23037  1.0000
  C   C1771     1.0  0.44426  0.19595  0.30172  1.0000
  C   C1772     1.0  0.47098  0.22999  0.29758  1.0000
  C   C1773     1.0  0.47135  0.24594  0.30297  1.0000
  C   C1774     1.0  0.45080  0.22351  0.19354  1.0000
  C   C1775     1.0  0.50474  0.20843  0.21703  1.0000
  C   C1776     1.0  0.44125  0.18372  0.32969  1.0000
  H   H3134     1.0  0.49030  0.21649  0.26268  1.0000
  H   H3135     1.0  0.48840  0.22857  0.23162  1.0000
  H   H3136     1.0  0.47101  0.23942  0.25420  1.0000
  H   H3137     1.0  0.45260  0.22906  0.27636  1.0000
  H   H3138     1.0  0.46893  0.20024  0.29927  1.0000
  H   H3139     1.0  0.46245  0.18963  0.27639  1.0000
  H   H3140     1.0  0.45660  0.20187  0.23392  1.0000
  H   H3141     1.0  0.44469  0.21213  0.25028  1.0000
  H   H3142     1.0  0.47348  0.22788  0.20020  1.0000
  H   H3143     1.0  0.46071  0.23759  0.21770  1.0000
  H   H3144     1.0  0.48388  0.19286  0.24476  1.0000
  H   H3145     1.0  0.48157  0.20471  0.21301  1.0000
  H   H3146     1.0  0.43651  0.19126  0.28941  1.0000
  H   H3147     1.0  0.44094  0.20627  0.30669  1.0000
  H   H3148     1.0  0.46333  0.22111  0.31677  1.0000
  H   H3149     1.0  0.48283  0.22841  0.29495  1.0000
  H   H3150     1.0  0.47512  0.24643  0.32257  1.0000
  H   H3151     1.0  0.47958  0.25526  0.28509  1.0000
  H   H3152     1.0  0.45970  0.24809  0.30578  1.0000
  H   H3153     1.0  0.45428  0.23328  0.17407  1.0000
  H   H3154     1.0  0.45136  0.21261  0.18725  1.0000
  H   H3155     1.0  0.43867  0.22255  0.20465  1.0000
  H   H3156     1.0  0.51120  0.20813  0.23358  1.0000
  H   H3157     1.0  0.50724  0.19965  0.20559  1.0000
  H   H3158     1.0  0.50884  0.22008  0.20162  1.0000
  H   H3159     1.0  0.42868  0.18003  0.34017  1.0000
  H   H3160     1.0  0.44518  0.17338  0.32610  1.0000
  H   H3161     1.0  0.44734  0.18866  0.34409  1.0000
  S   S397      1.0  0.57766  0.42813  0.45339  1.0000
  H   H3162     1.0  0.58245  0.43001  0.17945  1.0000
  H   H3163     1.0  0.42015  0.12138  0.99239  1.0000
  H   H3164     1.0  0.54353  0.43254  0.41278  1.0000
  N   N101      1.0  0.54591  0.11057  0.14951  1.0000
  C   C1777     1.0  0.54695  0.09695  0.17165  1.0000
  C   C1778     1.0  0.54286  0.12366  0.16246  1.0000
  C   C1779     1.0  0.53229  0.10493  0.13834  1.0000
  C   C1780     1.0  0.54919  0.08241  0.16141  1.0000
  C   C1781     1.0  0.52848  0.11740  0.11629  1.0000
  C   C1782     1.0  0.54893  0.12524  0.18873  1.0000
  C   C1783     1.0  0.54592  0.13953  0.19801  1.0000
  H   H3165     1.0  0.38454  0.30063  0.27936  1.0000
  C   C1784     1.0  0.51360  0.11069  0.10886  1.0000
  H   H3166     1.0  0.53628  0.09307  0.18949  1.0000
  C   C1785     1.0  0.40012  0.20973  0.42804  1.0000
  H   H3167     1.0  0.54737  0.13508  0.14631  1.0000
  H   H3168     1.0  0.53024  0.12250  0.16961  1.0000
  H   H3169     1.0  0.52172  0.09964  0.15632  1.0000
  H   H3170     1.0  0.53408  0.09555  0.12796  1.0000
  H   H3171     1.0  0.53798  0.07574  0.15975  1.0000
  C   C1786     1.0  0.40677  0.17502  0.20480  1.0000
  H   H3172     1.0  0.53789  0.12155  0.09643  1.0000
  H   H3173     1.0  0.52687  0.12756  0.12435  1.0000
  H   H3174     1.0  0.54291  0.11497  0.20691  1.0000
  H   H3175     1.0  0.55204  0.15031  0.18096  1.0000
  S   S398      1.0  0.57832  0.17749  0.46937  1.0000
  H   H3176     1.0  0.55412  0.32829  0.44477  1.0000
  C   C1787     1.0  0.44242  0.03409  0.23943  1.0000
  C   C1788     1.0  0.48453  0.16922  0.01619  1.0000
  H   H3177     1.0  0.53569  0.44136  0.36410  1.0000
  H   H3178     1.0  0.51107  0.11978  0.09310  1.0000
  H   H3179     1.0  0.51474  0.10079  0.09962  1.0000
  H   H3180     1.0  0.50368  0.10666  0.12800  1.0000
  N   N102      1.0  0.51770  0.36455  0.04630  1.0000
  C   C1789     1.0  0.51416  0.36960  0.07327  1.0000
  C   C1790     1.0  0.53421  0.36341  0.03989  1.0000
  C   C1791     1.0  0.40710  0.12192  0.22910  1.0000
  C   C1792     1.0  0.50730  0.34888  0.04925  1.0000
  C   C1793     1.0  0.50777  0.33544  0.07373  1.0000
  C   C1794     1.0  0.49692  0.36874  0.08594  1.0000
  H   H3181     1.0  0.56527  0.42742  0.22631  1.0000
  C   C1795     1.0  0.54676  0.37898  0.03208  1.0000
  C   C1796     1.0  0.56287  0.37616  0.02815  1.0000
  C   C1797     1.0  0.49531  0.32074  0.07718  1.0000
  C   C1798     1.0  0.49488  0.37478  0.11238  1.0000
  H   H3182     1.0  0.56310  0.27526  0.43212  1.0000
  H   H3183     1.0  0.52060  0.38187  0.06972  1.0000
  H   H3184     1.0  0.51836  0.36282  0.09000  1.0000
  H   H3185     1.0  0.47085  0.99790  0.32204  1.0000
  H   H3186     1.0  0.50318  0.45826  0.39743  1.0000
  H   H3187     1.0  0.55504  0.06533  0.37471  1.0000
  C   C1799     1.0  0.57449  0.09916  0.21973  1.0000
  H   H3188     1.0  0.49516  0.34963  0.05159  1.0000
  H   H3189     1.0  0.42829  0.29592  0.07484  1.0000
  H   H3190     1.0  0.50587  0.33841  0.09429  1.0000
  H   H3191     1.0  0.51910  0.33257  0.06920  1.0000
  H   H3192     1.0  0.49232  0.37591  0.07052  1.0000
  H   H3193     1.0  0.48966  0.35662  0.09220  1.0000
  H   H3194     1.0  0.56070  0.10812  0.11166  1.0000
  C   C1800     1.0  0.40569  0.37563  0.20295  1.0000
  H   H3195     1.0  0.54653  0.38683  0.01200  1.0000
  H   H3196     1.0  0.54515  0.38511  0.04894  1.0000
  H   H3197     1.0  0.57864  0.05302  0.18921  1.0000
  H   H3198     1.0  0.40248  0.06397  0.17805  1.0000
  H   H3199     1.0  0.47429  0.34798  0.20057  1.0000
  H   H3200     1.0  0.49669  0.31095  0.09314  1.0000
  C   C1801     1.0  0.44223  0.00250  0.18344  1.0000
  H   H3201     1.0  0.49616  0.31751  0.05680  1.0000
  H   H3202     1.0  0.49846  0.36743  0.12931  1.0000
  H   H3203     1.0  0.50174  0.38700  0.10739  1.0000
  H   H3204     1.0  0.48254  0.37445  0.12043  1.0000
  H   H3205     1.0  0.51027  0.34503  0.02961  1.0000
  H   H3206     1.0  0.42784  0.01004  0.25474  1.0000
  H   H3207     1.0  0.38358  0.24273  0.18945  1.0000
  H   H3208     1.0  0.44458  0.04425  0.24850  1.0000
  C   C1802     1.0  0.42461  0.04518  0.21639  1.0000
  C   C1803     1.0  0.58079  0.44071  0.18551  1.0000
  C   C1804     1.0  0.55872  0.08147  0.33345  1.0000
  C   C1805     1.0  0.57266  0.22537  0.47462  1.0000
  C   C1806     1.0  0.43035  0.11657  0.99333  1.0000
  S   S399      1.0  0.55800  0.35825  0.45642  1.0000
  H   H3209     1.0  0.50266  0.37620  0.02692  1.0000
  S   S400      1.0  0.39721  0.18328  0.30539  1.0000
  H   H3210     1.0  0.48376  0.13188  0.01502  1.0000
  H   H3211     1.0  0.41330  0.12384  0.20667  1.0000
  C   C1807     1.0  0.44667  0.14334  0.98051  1.0000
  H   H3212     1.0  0.56602  0.25607  0.47284  1.0000
  C   C1808     1.0  0.48070  0.06492  0.17009  1.0000
  C   C1809     1.0  0.57892  0.04087  0.19811  1.0000
  H   H3213     1.0  0.54983  0.46269  0.32076  1.0000
  H   H3214     1.0  0.46988  0.05511  0.21428  1.0000
  H   H3215     1.0  0.48731  0.35877  0.98315  1.0000
  H   H3216     1.0  0.55643  0.10040  0.18140  1.0000
  H   H3217     1.0  0.43455  0.27569  0.41510  1.0000
  C   C1810     1.0  0.53236  0.45052  0.37376  1.0000
  C   C1811     1.0  0.40041  0.26024  0.22560  1.0000
  C   C1812     1.0  0.40300  0.16620  0.18618  1.0000
  C   C1813     1.0  0.42640  0.27342  0.43619  1.0000
  H   H3218     1.0  0.39165  0.29262  0.16779  1.0000
  H   H3219     1.0  0.51320  0.36304  0.99102  1.0000
  C   C1814     1.0  0.57876  0.48820  0.18097  1.0000
  C   C1815     1.0  0.38826  0.20941  0.41052  1.0000
  C   C1816     1.0  0.38448  0.29556  0.15313  1.0000
  H   H3220     1.0  0.44595  0.48067  0.22285  1.0000
  H   H3221     1.0  0.58067  0.48017  0.08705  1.0000
  H   H3222     1.0  0.43241  0.99407  0.20007  1.0000
  C   C1817     1.0  0.51880  0.12129  0.46646  1.0000
  H   H3223     1.0  0.39343  0.21737  0.38897  1.0000
  H   H3224     1.0  0.57818  0.38147  0.37188  1.0000
  C   C1818     1.0  0.57799  0.13405  0.24746  1.0000
  C   C1819     1.0  0.58034  0.48862  0.20801  1.0000
  H   H3225     1.0  0.39020  0.30783  0.14085  1.0000
  H   H3226     1.0  0.40729  0.25589  0.46504  1.0000
  C   C1820     1.0  0.57623  0.11281  0.29078  1.0000
  S   S401      1.0  0.57913  0.18441  0.40218  1.0000
  C   C1821     1.0  0.38684  0.48038  0.20829  1.0000
  H   H3227     1.0  0.43450  0.48327  0.16891  1.0000
  H   H3228     1.0  0.58223  0.34541  0.43125  1.0000
  H   H3229     1.0  0.57734  0.08873  0.35258  1.0000
  H   H3230     1.0  0.57597  0.15706  0.08385  1.0000
  N   N103      1.0  0.38425  0.28489  0.13368  1.0000
  C   C1822     1.0  0.58029  0.16678  0.02544  1.0000
  H   H3231     1.0  0.55512  0.25801  0.99247  1.0000
  S   S402      1.0  0.38626  0.34785  0.15608  1.0000
  S   S403      1.0  0.38580  0.24432  0.24847  1.0000
  H   H3232     1.0  0.38430  0.19747  0.40840  1.0000
  H   H3233     1.0  0.38681  0.27652  0.23205  1.0000
  H   H3234     1.0  0.58225  0.08677  0.28474  1.0000
  H   H3235     1.0  0.48672  0.11664  0.98190  1.0000
  H   H3236     1.0  0.58214  0.18331  0.05129  1.0000
  H   H3237     1.0  0.58287  0.12159  0.35086  1.0000
  C   C1823     1.0  0.58303  0.46963  0.08111  1.0000
  H   H3238     1.0  0.44079  0.04892  0.81643  1.0000
  S   S404      1.0  0.39710  0.23324  0.56456  1.0000
  H   H3239     1.0  0.53495  0.16593  0.54853  1.0000
  S   S405      1.0  0.39907  0.21608  0.64163  1.0000
  Fe  Fe199     1.0  0.50851  0.02463  0.65674  1.0000
  S   S406      1.0  0.49478  0.04213  0.64788  1.0000
  S   S407      1.0  0.49947  0.99826  0.66310  1.0000
  Fe  Fe200     1.0  0.53487  0.04966  0.66593  1.0000
  S   S408      1.0  0.52277  0.06861  0.65735  1.0000
  S   S409      1.0  0.55807  0.05361  0.67738  1.0000
  Fe  Fe201     1.0  0.50128  0.05044  0.68401  1.0000
  S   S410      1.0  0.48493  0.05214  0.72300  1.0000
  Fe  Fe202     1.0  0.51762  0.05859  0.62184  1.0000
  S   S411      1.0  0.51971  0.07230  0.57711  1.0000
  S   S412      1.0  0.51372  0.03206  0.69478  1.0000
  S   S413      1.0  0.53113  0.04059  0.62850  1.0000
  Fe  Fe203     1.0  0.53280  0.45617  0.70459  1.0000
  Fe  Fe204     1.0  0.50686  0.42775  0.70814  1.0000
  S   S414      1.0  0.50840  0.43481  0.66163  1.0000
  S   S415      1.0  0.49278  0.40546  0.74114  1.0000
  Fe  Fe205     1.0  0.53407  0.44057  0.65554  1.0000
  S   S416      1.0  0.55085  0.43228  0.62573  1.0000
  C   C1824     1.0  0.45750  0.17268  0.96678  1.0000
  S   S417      1.0  0.53245  0.43187  0.70182  1.0000
  S   S418      1.0  0.50688  0.45147  0.71453  1.0000
  H   H3240     1.0  0.38865  0.17077  0.84269  1.0000
  H   H3241     1.0  0.53321  0.13799  0.55172  1.0000
  S   S419      1.0  0.53912  0.41845  0.51168  1.0000
  H   H3242     1.0  0.49064  0.39352  0.80212  1.0000
  H   H3243     1.0  0.42363  0.14455  0.73589  1.0000
  H   H3244     1.0  0.56291  0.16571  0.86813  1.0000
  C   C1825     1.0  0.40289  0.47722  0.69505  1.0000
  H   H3245     1.0  0.44404  0.41521  0.72734  1.0000
  Fe  Fe206     1.0  0.55634  0.41061  0.48202  1.0000
  Fe  Fe207     1.0  0.41576  0.12381  0.79451  1.0000
  S   S420      1.0  0.41252  0.10961  0.83884  1.0000
  S   S421      1.0  0.40067  0.14032  0.78825  1.0000
  Fe  Fe208     1.0  0.43830  0.10716  0.76920  1.0000
  S   S422      1.0  0.43673  0.09159  0.81156  1.0000
  S   S423      1.0  0.45165  0.10633  0.72642  1.0000
  Fe  Fe209     1.0  0.41119  0.08928  0.81989  1.0000
  Fe  Fe210     1.0  0.43834  0.11335  0.82668  1.0000
  S   S424      1.0  0.45340  0.11651  0.85723  1.0000
  S   S425      1.0  0.41269  0.10329  0.77646  1.0000
  S   S426      1.0  0.44168  0.12916  0.78350  1.0000
  Fe  Fe211     1.0  0.41071  0.30333  0.78845  1.0000
  S   S427      1.0  0.42420  0.28536  0.79243  1.0000
  H   H3246     1.0  0.57614  0.06433  0.60457  1.0000
  Fe  Fe212     1.0  0.43798  0.32745  0.74558  1.0000
  S   S428      1.0  0.45333  0.31102  0.74613  1.0000
  S   S429      1.0  0.44578  0.35180  0.71617  1.0000
  Fe  Fe213     1.0  0.43233  0.29333  0.74505  1.0000
  S   S430      1.0  0.43388  0.27655  0.71703  1.0000
  Fe  Fe214     1.0  0.44360  0.30464  0.79344  1.0000
  S   S431      1.0  0.45552  0.29949  0.82875  1.0000
  S   S432      1.0  0.41772  0.31033  0.74093  1.0000
  S   S433      1.0  0.42943  0.32211  0.79289  1.0000
  Fe  Fe215     1.0  0.50456  0.18998  0.89304  1.0000
  S   S434      1.0  0.51240  0.17615  0.92778  1.0000
  S   S435      1.0  0.48919  0.18258  0.86511  1.0000
  Fe  Fe216     1.0  0.52116  0.22139  0.90036  1.0000
  S   S436      1.0  0.53038  0.21017  0.93549  1.0000
  S   S437      1.0  0.52578  0.24720  0.87952  1.0000
  Fe  Fe217     1.0  0.53548  0.19377  0.90921  1.0000
  S   S438      1.0  0.55742  0.18542  0.90316  1.0000
  Fe  Fe218     1.0  0.50677  0.19353  0.95151  1.0000
  S   S439      1.0  0.52815  0.20624  0.87247  1.0000
  S   S440      1.0  0.49712  0.20610  0.91839  1.0000
  Fe  Fe219     1.0  0.51594  0.34192  0.89585  1.0000
  S   S441      1.0  0.54098  0.34424  0.89582  1.0000
  S   S442      1.0  0.50935  0.34637  0.85388  1.0000
  C   C1826     1.0  0.39517  0.46598  0.65849  1.0000
  C   C1827     1.0  0.48747  0.48557  0.66067  1.0000
  Fe  Fe220     1.0  0.53680  0.35748  0.92891  1.0000
  S   S443      1.0  0.55100  0.38171  0.92761  1.0000
  Fe  Fe221     1.0  0.53172  0.32255  0.93211  1.0000
  S   S444      1.0  0.54104  0.30111  0.93962  1.0000
  S   S445      1.0  0.51229  0.35676  0.92609  1.0000
  S   S446      1.0  0.50718  0.31951  0.92982  1.0000
  C   C1828     1.0  0.56672  0.38767  0.94218  1.0000
  H   H3247     1.0  0.56996  0.44109  0.86388  1.0000
  C   C1829     1.0  0.51694  0.38721  0.97092  1.0000
  H   H3248     1.0  0.50615  0.40031  0.86044  1.0000
  H   H3249     1.0  0.39565  0.01943  0.80198  1.0000
  H   H3250     1.0  0.56305  0.02123  0.71377  1.0000
  H   H3251     1.0  0.56003  0.25991  0.86307  1.0000
  C   C1830     1.0  0.51160  0.12929  0.48779  1.0000
  H   H3252     1.0  0.46357  0.18305  0.94882  1.0000
  H   H3253     1.0  0.56472  0.21474  0.91817  1.0000
  H   H3254     1.0  0.41393  0.34789  0.68532  1.0000
  C   C1831     1.0  0.52908  0.26187  0.89732  1.0000
  C   C1832     1.0  0.53317  0.27746  0.88158  1.0000
  C   C1833     1.0  0.53583  0.28957  0.89474  1.0000
  C   C1834     1.0  0.53507  0.28618  0.92366  1.0000
  C   C1835     1.0  0.53103  0.27057  0.93943  1.0000
  C   C1836     1.0  0.52781  0.25843  0.92642  1.0000
  H   H3255     1.0  0.53443  0.28020  0.85901  1.0000
  H   H3256     1.0  0.53906  0.30154  0.88232  1.0000
  S   S447      1.0  0.56841  0.13721  0.51645  1.0000
  H   H3257     1.0  0.52456  0.24646  0.93882  1.0000
  C   C1837     1.0  0.46925  0.31373  0.83607  1.0000
  C   C1838     1.0  0.47887  0.32657  0.81473  1.0000
  C   C1839     1.0  0.49100  0.33653  0.82056  1.0000
  C   C1840     1.0  0.49353  0.33389  0.84779  1.0000
  C   C1841     1.0  0.48361  0.32132  0.86929  1.0000
  C   C1842     1.0  0.47153  0.31130  0.86343  1.0000
  H   H3258     1.0  0.47730  0.32850  0.79353  1.0000
  H   H3259     1.0  0.49861  0.34615  0.80370  1.0000
  H   H3260     1.0  0.48532  0.31919  0.89038  1.0000
  H   H3261     1.0  0.46410  0.30144  0.88008  1.0000
  H   H3262     1.0  0.39471  0.34443  0.68038  1.0000
  C   C1843     1.0  0.46371  0.13496  0.85848  1.0000
  C   C1844     1.0  0.47398  0.13578  0.87587  1.0000
  C   C1845     1.0  0.48198  0.15026  0.87804  1.0000
  C   C1846     1.0  0.47967  0.16402  0.86302  1.0000
  C   C1847     1.0  0.46950  0.16318  0.84548  1.0000
  C   C1848     1.0  0.46159  0.14875  0.84316  1.0000
  H   H3263     1.0  0.47576  0.12518  0.88766  1.0000
  H   H3264     1.0  0.49000  0.15081  0.89116  1.0000
  H   H3265     1.0  0.46771  0.17377  0.83363  1.0000
  H   H3266     1.0  0.45373  0.14830  0.82972  1.0000
  H   H3267     1.0  0.51348  0.30522  0.79258  1.0000
  C   C1849     1.0  0.43872  0.40420  0.74426  1.0000
  H   H3268     1.0  0.39478  0.22301  0.81119  1.0000
  H   H3269     1.0  0.56681  0.00289  0.72913  1.0000
  C   C1850     1.0  0.56470  0.07584  0.57704  1.0000
  C   C1851     1.0  0.54742  0.42860  0.59406  1.0000
  C   C1852     1.0  0.53526  0.43262  0.58384  1.0000
  C   C1853     1.0  0.53290  0.42950  0.55848  1.0000
  C   C1854     1.0  0.54279  0.42255  0.54297  1.0000
  C   C1855     1.0  0.55505  0.41867  0.55307  1.0000
  C   C1856     1.0  0.55726  0.42157  0.57866  1.0000
  H   H3270     1.0  0.52768  0.43814  0.59544  1.0000
  H   H3271     1.0  0.52338  0.43252  0.55082  1.0000
  H   H3272     1.0  0.56267  0.41321  0.54137  1.0000
  H   H3273     1.0  0.56661  0.41833  0.58660  1.0000
  C   C1857     1.0  0.47968  0.39075  0.73378  1.0000
  C   C1858     1.0  0.47438  0.37598  0.75309  1.0000
  C   C1859     1.0  0.46388  0.36398  0.74807  1.0000
  C   C1860     1.0  0.45852  0.36670  0.72373  1.0000
  C   C1861     1.0  0.46361  0.38154  0.70461  1.0000
  C   C1862     1.0  0.47422  0.39352  0.70955  1.0000
  H   H3274     1.0  0.47850  0.37372  0.77190  1.0000
  H   H3275     1.0  0.46007  0.35258  0.76290  1.0000
  H   H3276     1.0  0.45948  0.38374  0.68576  1.0000
  H   H3277     1.0  0.47808  0.40492  0.69476  1.0000
  H   H3278     1.0  0.40121  0.21055  0.49119  1.0000
  H   H3279     1.0  0.42851  0.03729  0.85043  1.0000
  C   C1863     1.0  0.39398  0.44887  0.67352  1.0000
  C   C1864     1.0  0.39290  0.33603  0.82576  1.0000
  H   H3280     1.0  0.41727  0.39978  0.73241  1.0000
  H   H3281     1.0  0.43349  0.40706  0.76396  1.0000
  H   H3282     1.0  0.57376  0.14734  0.75515  1.0000
  H   H3283     1.0  0.39040  0.17416  0.79127  1.0000
  H   H3284     1.0  0.53196  0.38891  0.88513  1.0000
  C   C1865     1.0  0.53335  0.09029  0.56052  1.0000
  C   C1866     1.0  0.53756  0.09560  0.53085  1.0000
  H   H3285     1.0  0.48395  0.14422  0.56713  1.0000
  C   C1867     1.0  0.55035  0.11398  0.56237  1.0000
  C   C1868     1.0  0.53973  0.09957  0.57629  1.0000
  H   H3286     1.0  0.53261  0.08849  0.51854  1.0000
  H   H3287     1.0  0.55521  0.12119  0.57456  1.0000
  H   H3288     1.0  0.53644  0.09565  0.59915  1.0000
  C   C1869     1.0  0.47502  0.06673  0.72273  1.0000
  C   C1870     1.0  0.46598  0.06731  0.74852  1.0000
  C   C1871     1.0  0.45856  0.07927  0.74970  1.0000
  C   C1872     1.0  0.46014  0.09074  0.72509  1.0000
  C   C1873     1.0  0.46890  0.08997  0.69912  1.0000
  C   C1874     1.0  0.47637  0.07797  0.69791  1.0000
  H   H3289     1.0  0.46491  0.05860  0.76774  1.0000
  H   H3290     1.0  0.45177  0.07968  0.76970  1.0000
  H   H3291     1.0  0.47007  0.09880  0.67999  1.0000
  H   H3292     1.0  0.48326  0.07748  0.67794  1.0000
  C   C1875     1.0  0.56538  0.06901  0.69159  1.0000
  C   C1876     1.0  0.55773  0.08058  0.69485  1.0000
  C   C1877     1.0  0.56424  0.09302  0.70493  1.0000
  S   S448      1.0  0.54509  0.46563  0.73498  1.0000
  H   H3293     1.0  0.54693  0.08007  0.68910  1.0000
  H   H3294     1.0  0.55852  0.10219  0.70643  1.0000
  C   C1878     1.0  0.49338  0.09229  0.60941  1.0000
  C   C1879     1.0  0.41655  0.23506  0.54830  1.0000
  C   C1880     1.0  0.42418  0.24718  0.52388  1.0000
  C   C1881     1.0  0.44777  0.23865  0.52168  1.0000
  C   C1882     1.0  0.44013  0.22654  0.54610  1.0000
  C   C1883     1.0  0.42456  0.22473  0.55941  1.0000
  H   H3295     1.0  0.44629  0.21851  0.55477  1.0000
  H   H3296     1.0  0.41875  0.21533  0.57821  1.0000
  C   C1884     1.0  0.39253  0.16587  0.71902  1.0000
  H   H3297     1.0  0.41869  0.12764  0.69800  1.0000
  C   C1885     1.0  0.40259  0.15029  0.75313  1.0000
  C   C1886     1.0  0.41495  0.15048  0.73127  1.0000
  H   H3298     1.0  0.51569  0.99573  0.58969  1.0000
  H   H3299     1.0  0.47845  0.14093  0.96432  1.0000
  C   C1887     1.0  0.39176  0.24466  0.70301  1.0000
  C   C1888     1.0  0.40680  0.24461  0.68994  1.0000
  C   C1889     1.0  0.41957  0.25455  0.69415  1.0000
  C   C1890     1.0  0.41746  0.26465  0.71150  1.0000
  C   C1891     1.0  0.40241  0.26467  0.72464  1.0000
  H   H3300     1.0  0.39009  0.19701  0.81449  1.0000
  H   H3301     1.0  0.40856  0.23668  0.67708  1.0000
  H   H3302     1.0  0.43114  0.25423  0.68435  1.0000
  H   H3303     1.0  0.40065  0.27224  0.73830  1.0000
  H   H3304     1.0  0.39332  0.30253  0.86936  1.0000
  S   S449      1.0  0.40637  0.17554  0.66182  1.0000
  C   C1892     1.0  0.47810  0.13251  0.56620  1.0000
  N   N104      1.0  0.40553  0.36742  0.75356  1.0000
  C   C1893     1.0  0.40258  0.35171  0.77398  1.0000
  C   C1894     1.0  0.40924  0.36595  0.72355  1.0000
  C   C1895     1.0  0.41979  0.37769  0.75718  1.0000
  C   C1896     1.0  0.47435  0.13030  0.95771  1.0000
  C   C1897     1.0  0.39142  0.15800  0.74697  1.0000
  C   C1898     1.0  0.40140  0.35188  0.80533  1.0000
  C   C1899     1.0  0.42647  0.39375  0.73518  1.0000
  C   C1900     1.0  0.39720  0.35438  0.71545  1.0000
  C   C1901     1.0  0.40360  0.35262  0.68590  1.0000
  C   C1902     1.0  0.39903  0.23141  0.79000  1.0000
  H   H3305     1.0  0.57051  0.45530  0.53853  1.0000
  H   H3306     1.0  0.41192  0.34598  0.76746  1.0000
  H   H3307     1.0  0.38813  0.03598  0.79693  1.0000
  H   H3308     1.0  0.41108  0.37734  0.70813  1.0000
  H   H3309     1.0  0.42031  0.36263  0.71885  1.0000
  H   H3310     1.0  0.42929  0.37164  0.75638  1.0000
  H   H3311     1.0  0.41747  0.37998  0.77842  1.0000
  H   H3312     1.0  0.41500  0.47835  0.74213  1.0000
  H   H3313     1.0  0.39077  0.48361  0.73208  1.0000
  H   H3314     1.0  0.40954  0.17680  0.83470  1.0000
  H   H3315     1.0  0.39049  0.01193  0.96528  1.0000
  H   H3316     1.0  0.41319  0.35501  0.80846  1.0000
  H   H3317     1.0  0.57050  0.24441  0.93032  1.0000
  H   H3318     1.0  0.43216  0.39229  0.71439  1.0000
  H   H3319     1.0  0.56968  0.04291  0.78257  1.0000
  H   H3320     1.0  0.57571  0.11374  0.89327  1.0000
  C   C1903     1.0  0.57844  0.44163  0.87695  1.0000
  H   H3321     1.0  0.39256  0.33655  0.84783  1.0000
  H   H3322     1.0  0.40682  0.36399  0.66981  1.0000
  C   C1904     1.0  0.57048  0.40304  0.94456  1.0000
  H   H3323     1.0  0.41487  0.48104  0.68093  1.0000
  H   H3324     1.0  0.56314  0.48438  0.56242  1.0000
  C   C1905     1.0  0.57300  0.13455  0.86628  1.0000
  H   H3325     1.0  0.38723  0.31731  0.76478  1.0000
  C   C1906     1.0  0.40162  0.48817  0.71487  1.0000
  C   C1907     1.0  0.39608  0.26631  0.60412  1.0000
  C   C1908     1.0  0.56751  0.48569  0.74799  1.0000
  H   H3326     1.0  0.56622  0.16033  0.79405  1.0000
  H   H3327     1.0  0.57102  0.23160  0.85062  1.0000
  H   H3328     1.0  0.49746  0.09338  0.56523  1.0000
  H   H3329     1.0  0.39010  0.07563  0.78486  1.0000
  H   H3330     1.0  0.51772  0.48489  0.71076  1.0000
  H   H3331     1.0  0.52131  0.14923  0.87609  1.0000
  N   N105      1.0  0.39884  0.20754  0.76936  1.0000
  C   C1909     1.0  0.40657  0.20335  0.74338  1.0000
  H   H3332     1.0  0.38906  0.23525  0.78407  1.0000
  C   C1910     1.0  0.40675  0.22416  0.76720  1.0000
  C   C1911     1.0  0.39985  0.19735  0.79674  1.0000
  H   H3333     1.0  0.45187  0.20769  0.49189  1.0000
  C   C1912     1.0  0.42440  0.20659  0.73683  1.0000
  H   H3334     1.0  0.53382  0.00376  0.59664  1.0000
  H   H3335     1.0  0.39206  0.13105  0.71394  1.0000
  C   C1913     1.0  0.48375  0.99384  0.62176  1.0000
  H   H3336     1.0  0.55695  0.44608  0.92079  1.0000
  C   C1914     1.0  0.43056  0.19758  0.71646  1.0000
  C   C1915     1.0  0.41021  0.24558  0.79265  1.0000
  H   H3337     1.0  0.40386  0.20985  0.72421  1.0000
  H   H3338     1.0  0.38708  0.11620  0.76121  1.0000
  H   H3339     1.0  0.48842  0.47461  0.70259  1.0000
  H   H3340     1.0  0.38675  0.35871  0.71491  1.0000
  H   H3341     1.0  0.40752  0.23181  0.74619  1.0000
  H   H3342     1.0  0.41892  0.22517  0.76837  1.0000
  H   H3343     1.0  0.41046  0.20241  0.80270  1.0000
  H   H3344     1.0  0.46517  0.27623  0.51120  1.0000
  C   C1916     1.0  0.56123  0.48186  0.72623  1.0000
  H   H3345     1.0  0.54800  0.00622  0.74013  1.0000
  H   H3346     1.0  0.42970  0.21918  0.72668  1.0000
  H   H3347     1.0  0.42825  0.20336  0.75641  1.0000
  H   H3348     1.0  0.43886  0.14892  0.89616  1.0000
  H   H3349     1.0  0.42884  0.21815  0.49561  1.0000
  N   N106      1.0  0.44483  0.12787  0.97327  1.0000
  H   H3350     1.0  0.55160  0.11392  0.49405  1.0000
  Fe  Fe222     1.0  0.50550  0.33442  0.96025  1.0000
  H   H3351     1.0  0.47927  0.28276  0.52948  1.0000
  H   H3352     1.0  0.38986  0.31436  0.89341  1.0000
  H   H3353     1.0  0.44562  0.25846  0.49201  1.0000
  H   H3354     1.0  0.45595  0.10904  0.97435  1.0000
  C   C1917     1.0  0.55674  0.25215  0.97517  1.0000
  H   H3355     1.0  0.42672  0.18491  0.72685  1.0000
  H   H3356     1.0  0.44621  0.17432  0.97712  1.0000
  H   H3357     1.0  0.44338  0.20106  0.71028  1.0000
  H   H3358     1.0  0.55863  0.02682  0.76081  1.0000
  H   H3359     1.0  0.41488  0.25442  0.77198  1.0000
  H   H3360     1.0  0.58212  0.29287  0.91591  1.0000
  C   C1918     1.0  0.55468  0.11924  0.53270  1.0000
  H   H3361     1.0  0.53329  0.41718  0.83758  1.0000
  C   C1919     1.0  0.41609  0.15843  0.70328  1.0000
  H   H3362     1.0  0.45309  0.13766  0.92763  1.0000
  C   C1920     1.0  0.53339  0.40151  0.87604  1.0000
  C   C1921     1.0  0.53276  0.15716  0.87329  1.0000
  C   C1922     1.0  0.51318  0.14332  0.53722  1.0000
  N   N107      1.0  0.51107  0.39710  0.81798  1.0000
  H   H3363     1.0  0.44799  0.39841  0.74796  1.0000
  C   C1923     1.0  0.56060  0.01178  0.73350  1.0000
  S   S450      1.0  0.53654  0.46535  0.65772  1.0000
  H   H3364     1.0  0.50023  0.13025  0.48420  1.0000
  C   C1924     1.0  0.52009  0.38771  0.80300  1.0000
  C   C1925     1.0  0.48721  0.37345  0.83733  1.0000
  C   C1926     1.0  0.51656  0.38545  0.77493  1.0000
  C   C1927     1.0  0.52561  0.37478  0.76325  1.0000
  C   C1928     1.0  0.46973  0.36862  0.84175  1.0000
  H   H3365     1.0  0.53268  0.39317  0.79769  1.0000
  H   H3366     1.0  0.51847  0.37604  0.81726  1.0000
  H   H3367     1.0  0.51267  0.38358  0.85796  1.0000
  H   H3368     1.0  0.48957  0.37038  0.85840  1.0000
  H   H3369     1.0  0.49227  0.36646  0.82429  1.0000
  H   H3370     1.0  0.51989  0.39673  0.75865  1.0000
  H   H3371     1.0  0.52201  0.37235  0.74443  1.0000
  H   H3372     1.0  0.53819  0.38038  0.75697  1.0000
  H   H3373     1.0  0.52332  0.36354  0.77932  1.0000
  H   H3374     1.0  0.54525  0.40775  0.87536  1.0000
  H   H3375     1.0  0.46665  0.37134  0.82125  1.0000
  H   H3376     1.0  0.46545  0.35589  0.85146  1.0000
  H   H3377     1.0  0.46393  0.37466  0.85616  1.0000
  H   H3378     1.0  0.50530  0.09199  0.61058  1.0000
  H   H3379     1.0  0.48850  0.09833  0.62480  1.0000
  C   C1929     1.0  0.45523  0.15815  0.95593  1.0000
  H   H3380     1.0  0.43188  0.12894  0.89569  1.0000
  H   H3381     1.0  0.56290  0.13480  0.88264  1.0000
  C   C1930     1.0  0.57661  0.46731  0.56936  1.0000
  C   C1931     1.0  0.57595  0.37789  0.95005  1.0000
  H   H3382     1.0  0.39932  0.10403  0.72806  1.0000
  C   C1932     1.0  0.45824  0.12105  0.97710  1.0000
  H   H3383     1.0  0.53353  0.99968  0.56299  1.0000
  Fe  Fe223     1.0  0.51055  0.45903  0.66736  1.0000
  H   H3384     1.0  0.50948  0.40224  0.60081  1.0000
  H   H3385     1.0  0.57037  0.06536  0.54220  1.0000
  H   H3386     1.0  0.41100  0.17980  0.78336  1.0000
  H   H3387     1.0  0.51416  0.44297  0.77306  1.0000
  C   C1933     1.0  0.52994  0.37622  0.57366  1.0000
  C   C1934     1.0  0.56507  0.11501  0.63689  1.0000
  H   H3388     1.0  0.39190  0.34375  0.77336  1.0000
  H   H3389     1.0  0.39027  0.01646  0.75334  1.0000
  C   C1935     1.0  0.56501  0.24992  0.86907  1.0000
  H   H3390     1.0  0.56850  0.23158  0.49019  1.0000
  N   N108      1.0  0.51251  0.09505  0.73964  1.0000
  C   C1936     1.0  0.49904  0.10182  0.74816  1.0000
  C   C1937     1.0  0.51529  0.09521  0.70865  1.0000
  C   C1938     1.0  0.50834  0.07833  0.75704  1.0000
  C   C1939     1.0  0.52684  0.10347  0.74587  1.0000
  C   C1940     1.0  0.53372  0.12071  0.72929  1.0000
  C   C1941     1.0  0.49324  0.10065  0.78011  1.0000
  C   C1942     1.0  0.51919  0.06815  0.74764  1.0000
  C   C1943     1.0  0.51204  0.10893  0.68825  1.0000
  C   C1944     1.0  0.51692  0.10838  0.65748  1.0000
  C   C1945     1.0  0.54701  0.12822  0.74009  1.0000
  C   C1946     1.0  0.48051  0.10912  0.78517  1.0000
  C   C1947     1.0  0.51397  0.05174  0.76743  1.0000
  H   H3391     1.0  0.48901  0.09593  0.74167  1.0000
  H   H3392     1.0  0.50159  0.11425  0.73670  1.0000
  H   H3393     1.0  0.52733  0.09459  0.70014  1.0000
  H   H3394     1.0  0.50767  0.08466  0.70621  1.0000
  H   H3395     1.0  0.49648  0.07234  0.75702  1.0000
  H   H3396     1.0  0.50802  0.07776  0.77960  1.0000
  H   H3397     1.0  0.52489  0.10260  0.76887  1.0000
  H   H3398     1.0  0.53628  0.09772  0.74121  1.0000
  H   H3399     1.0  0.52501  0.12755  0.73131  1.0000
  H   H3400     1.0  0.53856  0.12157  0.70661  1.0000
  H   H3401     1.0  0.48827  0.08833  0.79244  1.0000
  H   H3402     1.0  0.50265  0.10593  0.78862  1.0000
  H   H3403     1.0  0.53124  0.07305  0.74785  1.0000
  H   H3404     1.0  0.51920  0.06699  0.72601  1.0000
  H   H3405     1.0  0.49949  0.10822  0.69321  1.0000
  H   H3406     1.0  0.51803  0.12040  0.68979  1.0000
  H   H3407     1.0  0.51055  0.09729  0.65483  1.0000
  H   H3408     1.0  0.51419  0.11809  0.64348  1.0000
  H   H3409     1.0  0.52950  0.10947  0.65083  1.0000
  H   H3410     1.0  0.55204  0.14045  0.72734  1.0000
  H   H3411     1.0  0.54285  0.12815  0.76260  1.0000
  H   H3412     1.0  0.55626  0.12195  0.73811  1.0000
  H   H3413     1.0  0.48505  0.12176  0.77485  1.0000
  H   H3414     1.0  0.47080  0.10445  0.77665  1.0000
  H   H3415     1.0  0.47597  0.10753  0.80825  1.0000
  H   H3416     1.0  0.52167  0.04466  0.75981  1.0000
  H   H3417     1.0  0.51451  0.05203  0.78928  1.0000
  H   H3418     1.0  0.50199  0.04604  0.76771  1.0000
  H   H3419     1.0  0.40408  0.25089  0.80808  1.0000
  C   C1948     1.0  0.56760  0.26368  0.94823  1.0000
  H   H3420     1.0  0.48045  0.11660  0.53964  1.0000
  H   H3421     1.0  0.52104  0.11772  0.52025  1.0000
  H   H3422     1.0  0.50156  0.28003  0.92563  1.0000
  H   H3423     1.0  0.50462  0.38746  0.97634  1.0000
  C   C1949     1.0  0.53921  0.16200  0.52954  1.0000
  H   H3424     1.0  0.56668  0.09911  0.59843  1.0000
  H   H3425     1.0  0.40275  0.44817  0.68577  1.0000
  H   H3426     1.0  0.51976  0.38517  0.94959  1.0000
  H   H3427     1.0  0.41804  0.25525  0.51531  1.0000
  H   H3428     1.0  0.56152  0.14195  0.81863  1.0000
  C   C1950     1.0  0.43976  0.24898  0.51059  1.0000
  C   C1951     1.0  0.46876  0.28475  0.52305  1.0000
  C   C1952     1.0  0.40302  0.22312  0.48085  1.0000
  H   H3429     1.0  0.45533  0.12135  0.56295  1.0000
  H   H3430     1.0  0.40715  0.47111  0.64463  1.0000
  H   H3431     1.0  0.48338  0.26596  0.94413  1.0000
  H   H3432     1.0  0.51915  0.14117  0.48296  1.0000
  C   C1953     1.0  0.57961  0.07002  0.69860  1.0000
  H   H3433     1.0  0.54520  0.14088  0.86160  1.0000
  C   C1954     1.0  0.44324  0.12892  0.94349  1.0000
  C   C1955     1.0  0.39220  0.37486  0.75886  1.0000
  H   H3434     1.0  0.53756  0.16970  0.51062  1.0000
  H   H3435     1.0  0.53531  0.15595  0.89431  1.0000
  H   H3436     1.0  0.40187  0.46566  0.70913  1.0000
  H   H3437     1.0  0.40749  0.22919  0.49575  1.0000
  N   N109      1.0  0.50354  0.12706  0.54163  1.0000
  S   S451      1.0  0.56868  0.39231  0.49443  1.0000
  N   N110      1.0  0.39126  0.47623  0.67752  1.0000
  H   H3438     1.0  0.52435  0.39865  0.97004  1.0000
  H   H3439     1.0  0.48746  0.13648  0.52147  1.0000
  H   H3440     1.0  0.40007  0.05757  0.75368  1.0000
  H   H3441     1.0  0.50928  0.14785  0.55567  1.0000
  C   C1956     1.0  0.57828  0.09387  0.71254  1.0000
  H   H3442     1.0  0.48627  0.08011  0.61540  1.0000
  H   H3443     1.0  0.55464  0.07374  0.59541  1.0000
  H   H3444     1.0  0.48492  0.28641  0.93963  1.0000
  H   H3445     1.0  0.51274  0.41426  0.77951  1.0000
  H   H3446     1.0  0.46670  0.15747  0.94468  1.0000
  H   H3447     1.0  0.47675  0.12412  0.58670  1.0000
  C   C1957     1.0  0.39684  0.43944  0.65199  1.0000
  H   H3448     1.0  0.49593  0.42262  0.81453  1.0000
  C   C1958     1.0  0.57460  0.19668  0.90687  1.0000
  H   H3449     1.0  0.39368  0.08652  0.92947  1.0000
  N   N111      1.0  0.48565  0.26678  0.85880  1.0000
  C   C1959     1.0  0.46837  0.26280  0.86299  1.0000
  C   C1960     1.0  0.48902  0.26642  0.88717  1.0000
  C   C1961     1.0  0.49245  0.28264  0.83832  1.0000
  C   C1962     1.0  0.49277  0.25526  0.84666  1.0000
  C   C1963     1.0  0.48592  0.23794  0.86329  1.0000
  C   C1964     1.0  0.46262  0.26025  0.83682  1.0000
  C   C1965     1.0  0.50983  0.28984  0.83460  1.0000
  C   C1966     1.0  0.48426  0.27888  0.90146  1.0000
  C   C1967     1.0  0.48882  0.27768  0.92941  1.0000
  C   C1968     1.0  0.49328  0.22740  0.84786  1.0000
  C   C1969     1.0  0.44498  0.25594  0.84385  1.0000
  C   C1970     1.0  0.51529  0.30590  0.81360  1.0000
  H   H3450     1.0  0.46360  0.27227  0.86918  1.0000
  H   H3451     1.0  0.46265  0.25233  0.88103  1.0000
  H   H3452     1.0  0.48299  0.25499  0.90254  1.0000
  H   H3453     1.0  0.50147  0.26736  0.88554  1.0000
  H   H3454     1.0  0.48600  0.29101  0.84443  1.0000
  H   H3455     1.0  0.49105  0.28232  0.81689  1.0000
  H   H3456     1.0  0.49225  0.25652  0.82429  1.0000
  H   H3457     1.0  0.50529  0.25776  0.84568  1.0000
  H   H3458     1.0  0.47330  0.23425  0.86599  1.0000
  H   H3459     1.0  0.48819  0.23585  0.88455  1.0000
  H   H3460     1.0  0.46688  0.27099  0.81913  1.0000
  H   H3461     1.0  0.46651  0.25073  0.82931  1.0000
  H   H3462     1.0  0.51698  0.28247  0.82642  1.0000
  H   H3463     1.0  0.51212  0.29132  0.85488  1.0000
  H   H3464     1.0  0.48996  0.29080  0.88788  1.0000
  H   H3465     1.0  0.47158  0.27733  0.90620  1.0000
  H   H3466     1.0  0.56815  0.06470  0.80288  1.0000
  H   H3467     1.0  0.57187  0.01987  0.80814  1.0000
  C   C1971     1.0  0.41595  0.08784  0.90413  1.0000
  H   H3468     1.0  0.50590  0.23004  0.84586  1.0000
  H   H3469     1.0  0.48811  0.21511  0.86010  1.0000
  H   H3470     1.0  0.49119  0.22878  0.82648  1.0000
  H   H3471     1.0  0.44010  0.24478  0.86050  1.0000
  H   H3472     1.0  0.44038  0.26518  0.85127  1.0000
  H   H3473     1.0  0.44118  0.25469  0.82458  1.0000
  H   H3474     1.0  0.52778  0.31072  0.81111  1.0000
  C   C1972     1.0  0.39501  0.06279  0.92680  1.0000
  N   N112      1.0  0.43901  0.26365  0.59649  1.0000
  C   C1973     1.0  0.45111  0.26660  0.56908  1.0000
  C   C1974     1.0  0.43503  0.24668  0.61254  1.0000
  C   C1975     1.0  0.42460  0.26711  0.58916  1.0000
  C   C1976     1.0  0.44394  0.27409  0.61446  1.0000
  C   C1977     1.0  0.45897  0.27308  0.62342  1.0000
  C   C1978     1.0  0.45574  0.28321  0.54896  1.0000
  C   C1979     1.0  0.40993  0.26276  0.61431  1.0000
  C   C1980     1.0  0.44821  0.23820  0.61047  1.0000
  C   C1981     1.0  0.44288  0.22197  0.63095  1.0000
  C   C1982     1.0  0.46365  0.28575  0.63800  1.0000
  H   H3475     1.0  0.44702  0.25845  0.55693  1.0000
  H   H3476     1.0  0.46193  0.26396  0.57291  1.0000
  H   H3477     1.0  0.42968  0.24517  0.63534  1.0000
  H   H3478     1.0  0.42618  0.23975  0.60468  1.0000
  H   H3479     1.0  0.42157  0.26097  0.57323  1.0000
  H   H3480     1.0  0.42659  0.27971  0.57913  1.0000
  H   H3481     1.0  0.44496  0.28642  0.60380  1.0000
  H   H3482     1.0  0.43491  0.27147  0.63460  1.0000
  H   H3483     1.0  0.46875  0.27448  0.60509  1.0000
  H   H3484     1.0  0.45707  0.26179  0.63905  1.0000
  H   H3485     1.0  0.44587  0.28590  0.54099  1.0000
  H   H3486     1.0  0.45986  0.29202  0.55979  1.0000
  H   H3487     1.0  0.41167  0.26943  0.63002  1.0000
  H   H3488     1.0  0.40670  0.25023  0.62533  1.0000
  H   H3489     1.0  0.45177  0.23676  0.58879  1.0000
  H   H3490     1.0  0.45858  0.24462  0.61505  1.0000
  H   H3491     1.0  0.45248  0.21618  0.62908  1.0000
  H   H3492     1.0  0.43927  0.22267  0.65313  1.0000
  H   H3493     1.0  0.43308  0.21472  0.62584  1.0000
  H   H3494     1.0  0.45429  0.28476  0.65689  1.0000
  H   H3495     1.0  0.47416  0.28449  0.64511  1.0000
  H   H3496     1.0  0.46621  0.29745  0.62320  1.0000
  H   H3497     1.0  0.44375  0.11776  0.93797  1.0000
  H   H3498     1.0  0.52498  0.36930  0.56037  1.0000
  C   C1983     1.0  0.46190  0.13297  0.56317  1.0000
  C   C1984     1.0  0.57071  0.20281  0.51600  1.0000
  C   C1985     1.0  0.57789  0.28046  0.88343  1.0000
  C   C1986     1.0  0.54518  0.15308  0.85272  1.0000
  H   H3499     1.0  0.41839  0.12217  0.94688  1.0000
  C   C1987     1.0  0.38391  0.02159  0.76875  1.0000
  C   C1988     1.0  0.48893  0.40772  0.62038  1.0000
  C   C1989     1.0  0.39455  0.02910  0.78533  1.0000
  H   H3500     1.0  0.39832  0.27892  0.59401  1.0000
  C   C1990     1.0  0.42817  0.13273  0.93785  1.0000
  H   H3501     1.0  0.44845  0.15998  0.94007  1.0000
  S   S452      1.0  0.39341  0.06627  0.84215  1.0000
  H   H3502     1.0  0.54887  0.18891  0.96317  1.0000
  C   C1991     1.0  0.51561  0.44190  0.79484  1.0000
  H   H3503     1.0  0.45557  0.13636  0.58136  1.0000
  H   H3504     1.0  0.53212  0.16928  0.86502  1.0000
  C   C1992     1.0  0.51588  0.41365  0.79999  1.0000
  H   H3505     1.0  0.52810  0.44545  0.79374  1.0000
  H   H3506     1.0  0.41846  0.14049  0.90288  1.0000
  S   S453      1.0  0.38635  0.29546  0.81664  1.0000
  C   C1993     1.0  0.50398  0.11717  0.56964  1.0000
  H   H3507     1.0  0.51008  0.42490  0.83457  1.0000
  C   C1994     1.0  0.39736  0.10956  0.70765  1.0000
  C   C1995     1.0  0.42947  0.13810  0.90619  1.0000
  H   H3508     1.0  0.40192  0.19095  0.74467  1.0000
  H   H3509     1.0  0.39405  0.34265  0.73012  1.0000
  H   H3510     1.0  0.56306  0.48825  0.68152  1.0000
  H   H3511     1.0  0.54170  0.15387  0.83255  1.0000
  C   C1996     1.0  0.57958  0.30902  0.88028  1.0000
  H   H3512     1.0  0.48101  0.39911  0.61373  1.0000
  H   H3513     1.0  0.48121  0.10024  0.57939  1.0000
  H   H3514     1.0  0.47425  0.13360  0.93529  1.0000
  H   H3515     1.0  0.55990  0.17593  0.83625  1.0000
  C   C1997     1.0  0.56108  0.06323  0.56180  1.0000
  C   C1998     1.0  0.57882  0.45616  0.88853  1.0000
  H   H3516     1.0  0.42528  0.14193  0.94778  1.0000
  H   H3517     1.0  0.56125  0.19538  0.51034  1.0000
  C   C1999     1.0  0.56254  0.45660  0.90286  1.0000
  H   H3518     1.0  0.40298  0.06060  0.94040  1.0000
  H   H3519     1.0  0.57739  0.19106  0.96437  1.0000
  H   H3520     1.0  0.39894  0.32709  0.82115  1.0000
  H   H3521     1.0  0.50208  0.10826  0.52133  1.0000
  H   H3522     1.0  0.55186  0.46437  0.57421  1.0000
  C   C2000     1.0  0.58275  0.12565  0.88145  1.0000
  H   H3523     1.0  0.52867  0.41814  0.79393  1.0000
  H   H3524     1.0  0.38577  0.26286  0.62246  1.0000
  C   C2001     1.0  0.40021  0.18030  0.79768  1.0000
  H   H3525     1.0  0.53036  0.26788  0.96184  1.0000
  H   H3526     1.0  0.38744  0.29368  0.90690  1.0000
  H   H3527     1.0  0.40850  0.44451  0.63713  1.0000
  H   H3528     1.0  0.42567  0.15859  0.68636  1.0000
  N   N113      1.0  0.51403  0.38111  0.64927  1.0000
  C   C2002     1.0  0.50018  0.38676  0.64417  1.0000
  C   C2003     1.0  0.50851  0.36444  0.66680  1.0000
  C   C2004     1.0  0.52234  0.39139  0.66440  1.0000
  C   C2005     1.0  0.52509  0.38196  0.62175  1.0000
  C   C2006     1.0  0.50371  0.40269  0.62228  1.0000
  C   C2007     1.0  0.53547  0.38585  0.67562  1.0000
  C   C2008     1.0  0.49818  0.36170  0.69709  1.0000
  C   C2009     1.0  0.49395  0.34462  0.71359  1.0000
  Fe  Fe224     1.0  0.38983  0.19022  0.65331  1.0000
  C   C2010     1.0  0.54289  0.39701  0.69075  1.0000
  H   H3529     1.0  0.49322  0.38788  0.66423  1.0000
  H   H3530     1.0  0.49223  0.37808  0.63761  1.0000
  H   H3531     1.0  0.50151  0.35725  0.65621  1.0000
  H   H3532     1.0  0.51843  0.35925  0.66830  1.0000
  H   H3533     1.0  0.51407  0.39315  0.68243  1.0000
  H   H3534     1.0  0.52769  0.40324  0.65011  1.0000
  H   H3535     1.0  0.53486  0.37710  0.62587  1.0000
  H   H3536     1.0  0.51127  0.41178  0.62836  1.0000
  H   H3537     1.0  0.54473  0.38525  0.65802  1.0000
  H   H3538     1.0  0.53107  0.37426  0.69101  1.0000
  H   H3539     1.0  0.50390  0.36860  0.70956  1.0000
  H   H3540     1.0  0.48726  0.36490  0.69588  1.0000
  H   H3541     1.0  0.48643  0.34305  0.73500  1.0000
  H   H3542     1.0  0.48750  0.33721  0.70264  1.0000
  H   H3543     1.0  0.50448  0.34077  0.71608  1.0000
  H   H3544     1.0  0.54067  0.37298  0.57673  1.0000
  H   H3545     1.0  0.41179  0.12526  0.66737  1.0000
  H   H3546     1.0  0.49185  0.41913  0.60448  1.0000
  H   H3547     1.0  0.53406  0.39849  0.70810  1.0000
  H   H3548     1.0  0.55163  0.39237  0.69991  1.0000
  H   H3549     1.0  0.54879  0.40852  0.67569  1.0000
  N   N114      1.0  0.41034  0.03904  0.76798  1.0000
  C   C2011     1.0  0.41772  0.04718  0.78705  1.0000
  C   C2012     1.0  0.40803  0.05111  0.74449  1.0000
  H   H3550     1.0  0.56568  0.08710  0.56232  1.0000
  C   C2013     1.0  0.41948  0.02869  0.75611  1.0000
  C   C2014     1.0  0.43732  0.03383  0.75014  1.0000
  C   C2015     1.0  0.41793  0.03655  0.81554  1.0000
  C   C2016     1.0  0.42271  0.06319  0.72462  1.0000
  C   C2017     1.0  0.41855  0.07635  0.70566  1.0000
  C   C2018     1.0  0.44493  0.02356  0.73431  1.0000
  C   C2019     1.0  0.42875  0.04512  0.82996  1.0000
  H   H3551     1.0  0.41161  0.05604  0.79237  1.0000
  H   H3552     1.0  0.42975  0.05390  0.77619  1.0000
  H   H3553     1.0  0.40233  0.04555  0.73027  1.0000
  H   H3554     1.0  0.38771  0.46554  0.64368  1.0000
  H   H3555     1.0  0.41598  0.01678  0.77072  1.0000
  H   H3556     1.0  0.41670  0.02706  0.73610  1.0000
  H   H3557     1.0  0.44085  0.03283  0.77024  1.0000
  H   H3558     1.0  0.44215  0.04598  0.73731  1.0000
  H   H3559     1.0  0.42497  0.05543  0.83428  1.0000
  H   H3560     1.0  0.42162  0.02602  0.81243  1.0000
  H   H3561     1.0  0.43016  0.06866  0.73646  1.0000
  H   H3562     1.0  0.42939  0.05759  0.71054  1.0000
  H   H3563     1.0  0.56503  0.08527  0.63014  1.0000
  H   H3564     1.0  0.41125  0.07177  0.69257  1.0000
  H   H3565     1.0  0.41232  0.08273  0.71876  1.0000
  H   H3566     1.0  0.44264  0.02491  0.71307  1.0000
  H   H3567     1.0  0.45762  0.02700  0.73130  1.0000
  H   H3568     1.0  0.44061  0.01116  0.74649  1.0000
  H   H3569     1.0  0.39290  0.10022  0.69810  1.0000
  H   H3570     1.0  0.49984  0.48262  0.75709  1.0000
  H   H3571     1.0  0.57446  0.39840  0.84303  1.0000
  H   H3572     1.0  0.56023  0.16595  0.96955  1.0000
  H   H3573     1.0  0.39874  0.05797  0.90864  1.0000
  H   H3574     1.0  0.39616  0.42731  0.66319  1.0000
  C   C2020     1.0  0.40487  0.16610  0.69710  1.0000
  H   H3575     1.0  0.42638  0.19992  0.69703  1.0000
  H   H3576     1.0  0.51493  0.36037  0.61190  1.0000
  H   H3577     1.0  0.38346  0.00389  0.93896  1.0000
  H   H3578     1.0  0.46253  0.14163  0.54336  1.0000
  N   N115      1.0  0.58118  0.26522  0.89614  1.0000
  C   C2021     1.0  0.56122  0.16445  0.84726  1.0000
  H   H3579     1.0  0.51584  0.11578  0.56885  1.0000
  C   C2022     1.0  0.58046  0.07029  0.79167  1.0000
  H   H3580     1.0  0.39414  0.07005  0.97745  1.0000
  C   C2023     1.0  0.54826  0.11001  0.51693  1.0000
  H   H3581     1.0  0.38375  0.17158  0.71441  1.0000
  C   C2024     1.0  0.48730  0.12785  0.54104  1.0000
  H   H3582     1.0  0.53589  0.14179  0.51401  1.0000
  C   C2025     1.0  0.48623  0.12073  0.95964  1.0000
  H   H3583     1.0  0.51152  0.15151  0.51878  1.0000
  C   C2026     1.0  0.48403  0.48303  0.69006  1.0000
  H   H3584     1.0  0.51628  0.47511  0.76099  1.0000
  C   C2027     1.0  0.38591  0.30278  0.88977  1.0000
  C   C2028     1.0  0.50849  0.42527  0.81311  1.0000
  H   H3585     1.0  0.47173  0.29661  0.50859  1.0000
  H   H3586     1.0  0.58157  0.46293  0.82758  1.0000
  H   H3587     1.0  0.56877  0.99318  0.83547  1.0000
  C   C2029     1.0  0.57093  0.15270  0.80876  1.0000
  C   C2030     1.0  0.49334  0.10041  0.57937  1.0000
  H   H3588     1.0  0.42929  0.08467  0.69137  1.0000
  C   C2031     1.0  0.51447  0.39598  0.84654  1.0000
  H   H3589     1.0  0.52500  0.40564  0.89010  1.0000
  H   H3590     1.0  0.50137  0.12305  0.58674  1.0000
  C   C2032     1.0  0.50974  0.11992  0.51858  1.0000
  C   C2033     1.0  0.49391  0.39100  0.82254  1.0000
  C   C2034     1.0  0.51819  0.37308  0.60208  1.0000
  H   H3591     1.0  0.48296  0.40901  0.64112  1.0000
  H   H3592     1.0  0.53055  0.39428  0.60955  1.0000
  H   H3593     1.0  0.50418  0.38010  0.77793  1.0000
  H   H3594     1.0  0.53285  0.38868  0.56209  1.0000
  C   C2035     1.0  0.56186  0.47274  0.57647  1.0000
  H   H3595     1.0  0.48748  0.39719  0.83581  1.0000
  H   H3596     1.0  0.53985  0.40029  0.83316  1.0000
  C   C2036     1.0  0.53078  0.14517  0.53313  1.0000
  H   H3597     1.0  0.50783  0.37655  0.59759  1.0000
  H   H3598     1.0  0.39245  0.38346  0.73917  1.0000
  C   C2037     1.0  0.53105  0.40444  0.84617  1.0000
  H   H3599     1.0  0.55945  0.47350  0.59873  1.0000
  H   H3600     1.0  0.55727  0.25454  0.91905  1.0000
  H   H3601     1.0  0.55677  0.24122  0.88785  1.0000
  H   H3602     1.0  0.50893  0.31392  0.82154  1.0000
  H   H3603     1.0  0.49783  0.12801  0.94689  1.0000
  H   H3604     1.0  0.56900  0.12791  0.85184  1.0000
  H   H3605     1.0  0.57329  0.36607  0.94830  1.0000
  S   S454      1.0  0.46744  0.24089  0.50628  1.0000
  H   H3606     1.0  0.50983  0.44996  0.80411  1.0000
  H   H3607     1.0  0.55177  0.16299  0.52655  1.0000
  C   C2038     1.0  0.57505  0.21063  0.91447  1.0000
  H   H3608     1.0  0.54525  0.24768  0.97171  1.0000
  H   H3609     1.0  0.41995  0.24221  0.80023  1.0000
  H   H3610     1.0  0.57330  0.43146  0.89570  1.0000
  H   H3611     1.0  0.48326  0.11052  0.95114  1.0000
  H   H3612     1.0  0.58201  0.28374  0.85990  1.0000
  H   H3613     1.0  0.39305  0.03241  0.92160  1.0000
  H   H3614     1.0  0.48917  0.00592  0.61085  1.0000
  H   H3615     1.0  0.58156  0.18985  0.84528  1.0000
  C   C2039     1.0  0.41306  0.11906  0.68809  1.0000
  H   H3616     1.0  0.40017  0.15922  0.82780  1.0000
  H   H3617     1.0  0.56925  0.12874  0.78118  1.0000
  C   C2040     1.0  0.52805  0.99559  0.58611  1.0000
  H   H3618     1.0  0.39385  0.08292  0.89525  1.0000
  C   C2041     1.0  0.39960  0.17129  0.82758  1.0000
  C   C2042     1.0  0.38965  0.25470  0.72046  1.0000
  H   H3619     1.0  0.57309  0.40954  0.88422  1.0000
  H   H3620     1.0  0.42073  0.11128  0.68435  1.0000
  H   H3621     1.0  0.55518  0.10565  0.65136  1.0000
  H   H3622     1.0  0.56519  0.27917  0.88787  1.0000
  C   C2043     1.0  0.39853  0.08054  0.91405  1.0000
  C   C2044     1.0  0.56542  0.01832  0.75698  1.0000
  H   H3623     1.0  0.56131  0.12097  0.61876  1.0000
  H   H3624     1.0  0.42139  0.08312  0.88698  1.0000
  H   H3625     1.0  0.57588  0.36106  0.50775  1.0000
  H   H3626     1.0  0.39528  0.36052  0.81124  1.0000
  H   H3627     1.0  0.41824  0.10061  0.89579  1.0000
  H   H3628     1.0  0.56689  0.30676  0.88818  1.0000
  H   H3629     1.0  0.57435  0.25016  0.82512  1.0000
  S   S455      1.0  0.49938  0.47560  0.64322  1.0000
  C   C2045     1.0  0.58082  0.25540  0.87529  1.0000
  C   C2046     1.0  0.56654  0.24200  0.84498  1.0000
  C   C2047     1.0  0.56890  0.25628  0.92301  1.0000
  H   H3630     1.0  0.58274  0.11604  0.56124  1.0000
  H   H3631     1.0  0.56327  0.41062  0.93898  1.0000
  H   H3632     1.0  0.57840  0.47572  0.52520  1.0000
  H   H3633     1.0  0.38799  0.43915  0.63974  1.0000
  H   H3634     1.0  0.39343  0.38181  0.77448  1.0000
  H   H3635     1.0  0.56216  0.00857  0.77641  1.0000
  S   S456      1.0  0.52953  0.33594  0.96528  1.0000
  H   H3636     1.0  0.55499  0.23819  0.84122  1.0000
  C   C2048     1.0  0.57857  0.10836  0.62646  1.0000
  N   N116      1.0  0.57519  0.16071  0.83065  1.0000
  H   H3637     1.0  0.56246  0.47870  0.76956  1.0000
  H   H3638     1.0  0.56313  0.46700  0.91125  1.0000
  H   H3639     1.0  0.55537  0.45732  0.88743  1.0000
  H   H3640     1.0  0.39348  0.25965  0.58874  1.0000
  H   H3641     1.0  0.42142  0.08562  0.92195  1.0000
  H   H3642     1.0  0.55007  0.06337  0.55578  1.0000
  H   H3643     1.0  0.40618  0.03281  0.83028  1.0000
  C   C2049     1.0  0.38662  0.22542  0.48107  1.0000
  H   H3644     1.0  0.58122  0.07802  0.77078  1.0000
  C   C2050     1.0  0.58156  0.99555  0.83005  1.0000
  H   H3645     1.0  0.56268  0.27385  0.94371  1.0000
  H   H3646     1.0  0.57499  0.45621  0.58521  1.0000
  C   C2051     1.0  0.38585  0.11988  0.71115  1.0000
  C   C2052     1.0  0.57991  0.46512  0.53893  1.0000
  H   H3647     1.0  0.55980  0.05157  0.57580  1.0000
  H   H3648     1.0  0.57811  0.38591  0.87264  1.0000
  C   C2053     1.0  0.57347  0.09497  0.61301  1.0000
  C   C2054     1.0  0.51256  0.48584  0.75393  1.0000
  H   H3649     1.0  0.43613  0.19452  0.48582  1.0000
  C   C2055     1.0  0.57834  0.13961  0.76975  1.0000
  H   H3650     1.0  0.38700  0.03778  0.96969  1.0000
  Fe  Fe225     1.0  0.38661  0.21611  0.60755  1.0000
  H   H3651     1.0  0.56871  0.12359  0.64857  1.0000
  H   H3652     1.0  0.57885  0.26738  0.95296  1.0000
  C   C2056     1.0  0.57949  0.07543  0.58749  1.0000
  H   H3653     1.0  0.56565  0.20870  0.53150  1.0000
  C   C2057     1.0  0.58274  0.39723  0.85629  1.0000
  H   H3654     1.0  0.58012  0.15718  0.97806  1.0000
  H   H3655     1.0  0.57998  0.47171  0.48117  1.0000
  H   H3656     1.0  0.57725  0.19520  0.52609  1.0000
  C   C2058     1.0  0.58243  0.15132  0.85029  1.0000
  C   C2059     1.0  0.58153  0.21473  0.48950  1.0000
  C   C2060     1.0  0.58222  0.04709  0.77183  1.0000
  H   H3657     1.0  0.58274  0.31192  0.85679  1.0000
  H   H3658     1.0  0.58287  0.10409  0.64506  1.0000
  H   H3659     1.0  0.58240  0.42734  0.83604  1.0000
  H   H3660     1.0  0.58275  0.18251  0.79804  1.0000
  H   H3661     1.0  0.58280  0.05428  0.75056  1.0000
  H   H3662     1.0  0.38317  0.12282  0.69026  1.0000
  C   C2061     1.0  0.58300  0.02612  0.74842  1.0000
  H   H3663     1.0  0.47239  0.48954  0.72605  1.0000
  C   C2062     1.0  0.56437  0.80018  0.47529  1.0000
  S   S457      1.0  0.38510  0.60974  0.00443  1.0000
  H   H3664     1.0  0.40202  0.57213  0.22456  1.0000
  S   S458      1.0  0.55353  0.76668  0.26995  1.0000
  H   H3665     1.0  0.49612  0.66360  0.01524  1.0000
  H   H3666     1.0  0.45047  0.86389  0.42112  1.0000
  H   H3667     1.0  0.45742  0.67731  0.38197  1.0000
  Fe  Fe226     1.0  0.56598  0.76603  0.30426  1.0000
  S   S459      1.0  0.55483  0.75123  0.34918  1.0000
  C   C2063     1.0  0.56817  0.96834  0.13470  1.0000
  H   H3668     1.0  0.43983  0.81366  0.44016  1.0000
  Fe  Fe227     1.0  0.44728  0.95822  0.24225  1.0000
  S   S460      1.0  0.44007  0.95360  0.20355  1.0000
  H   H3669     1.0  0.43682  0.49758  0.18865  1.0000
  Fe  Fe228     1.0  0.43913  0.92326  0.27054  1.0000
  S   S461      1.0  0.43202  0.91622  0.23379  1.0000
  S   S462      1.0  0.43989  0.90385  0.30667  1.0000
  Fe  Fe229     1.0  0.45279  0.93497  0.20715  1.0000
  S   S463      1.0  0.46731  0.93279  0.16665  1.0000
  Fe  Fe230     1.0  0.41967  0.93509  0.23280  1.0000
  S   S464      1.0  0.39555  0.93132  0.22506  1.0000
  S   S465      1.0  0.46130  0.94049  0.24365  1.0000
  S   S466      1.0  0.42540  0.94119  0.27174  1.0000
  Fe  Fe231     1.0  0.44322  0.52656  0.23253  1.0000
  S   S467      1.0  0.43210  0.53937  0.20222  1.0000
  Fe  Fe232     1.0  0.42569  0.53554  0.28236  1.0000
  S   S468      1.0  0.41323  0.54888  0.25607  1.0000
  S   S469      1.0  0.42234  0.53356  0.32922  1.0000
  Fe  Fe233     1.0  0.41011  0.52887  0.23634  1.0000
  H   H3670     1.0  0.50211  0.52108  0.15157  1.0000
  Fe  Fe234     1.0  0.43614  0.55828  0.22399  1.0000
  S   S470      1.0  0.44308  0.58317  0.19721  1.0000
  S   S471      1.0  0.42078  0.51449  0.26534  1.0000
  S   S472      1.0  0.44904  0.54642  0.25175  1.0000
  S   S473      1.0  0.40461  0.59464  0.45599  1.0000
  S   S474      1.0  0.40791  0.58972  0.37704  1.0000
  H   H3671     1.0  0.53140  0.80525  0.39068  1.0000
  S   S475      1.0  0.40511  0.80082  0.43566  1.0000
  H   H3672     1.0  0.39563  0.74744  0.99978  1.0000
  S   S476      1.0  0.48686  0.75343  0.40535  1.0000
  Fe  Fe235     1.0  0.54208  0.86176  0.11424  1.0000
  S   S477      1.0  0.54665  0.87520  0.06904  1.0000
  S   S478      1.0  0.55784  0.84609  0.12208  1.0000
  Fe  Fe236     1.0  0.51719  0.87739  0.13369  1.0000
  S   S479      1.0  0.52007  0.89212  0.08988  1.0000
  S   S480      1.0  0.50073  0.87825  0.17338  1.0000
  Fe  Fe237     1.0  0.52086  0.87002  0.07673  1.0000
  S   S481      1.0  0.50997  0.86421  0.04186  1.0000
  Fe  Fe238     1.0  0.54552  0.89583  0.08642  1.0000
  S   S482      1.0  0.56332  0.91886  0.06451  1.0000
  S   S483      1.0  0.51632  0.85500  0.12095  1.0000
  S   S484      1.0  0.54259  0.88269  0.13118  1.0000
  Fe  Fe239     1.0  0.50876  0.67442  0.12206  1.0000
  S   S485      1.0  0.52059  0.65514  0.12190  1.0000
  S   S486      1.0  0.49466  0.68094  0.09075  1.0000
  Fe  Fe240     1.0  0.52291  0.68439  0.16823  1.0000
  S   S487      1.0  0.53574  0.66574  0.17144  1.0000
  S   S488      1.0  0.52156  0.69934  0.19946  1.0000
  Fe  Fe241     1.0  0.54149  0.67218  0.12397  1.0000
  S   S489      1.0  0.56351  0.67083  0.09537  1.0000
  Fe  Fe242     1.0  0.51396  0.65015  0.16910  1.0000
  S   S490      1.0  0.50694  0.62552  0.19690  1.0000
  S   S491      1.0  0.53031  0.69214  0.12053  1.0000
  S   S492      1.0  0.50041  0.66816  0.16954  1.0000
  Fe  Fe243     1.0  0.45403  0.79281  0.01518  1.0000
  S   S493      1.0  0.46056  0.80146  0.05181  1.0000
  S   S494      1.0  0.43400  0.73590  0.02178  1.0000
  S   S495      1.0  0.43021  0.77787  0.01999  1.0000
  C   C2064     1.0  0.54175  0.80106  0.38381  1.0000
  H   H3673     1.0  0.41334  0.95477  0.16461  1.0000
  H   H3674     1.0  0.49206  0.71675  0.40706  1.0000
  Fe  Fe244     1.0  0.43419  0.63776  0.02375  1.0000
  S   S496      1.0  0.44183  0.63323  0.06461  1.0000
  S   S497      1.0  0.41319  0.64563  0.01623  1.0000
  C   C2065     1.0  0.38757  0.91631  0.21062  1.0000
  C   C2066     1.0  0.42881  0.69483  0.00123  1.0000
  C   C2067     1.0  0.42907  0.70622  0.01626  1.0000
  H   H3675     1.0  0.42543  0.68265  0.01251  1.0000
  H   H3676     1.0  0.42585  0.70274  0.03915  1.0000
  C   C2068     1.0  0.47998  0.66740  0.08404  1.0000
  C   C2069     1.0  0.47368  0.65234  0.10178  1.0000
  C   C2070     1.0  0.46183  0.64206  0.09583  1.0000
  C   C2071     1.0  0.45621  0.64673  0.07210  1.0000
  C   C2072     1.0  0.46245  0.66180  0.05450  1.0000
  C   C2073     1.0  0.47432  0.67203  0.06039  1.0000
  H   H3677     1.0  0.47791  0.64865  0.12010  1.0000
  H   H3678     1.0  0.45718  0.63039  0.10945  1.0000
  H   H3679     1.0  0.45816  0.66556  0.03628  1.0000
  H   H3680     1.0  0.47920  0.68357  0.04645  1.0000
  S   S498      1.0  0.44953  0.68143  0.47615  1.0000
  H   H3681     1.0  0.54106  0.96256  0.08596  1.0000
  H   H3682     1.0  0.41071  0.55925  0.40498  1.0000
  H   H3683     1.0  0.53767  0.96083  0.16352  1.0000
  H   H3684     1.0  0.57299  0.68912  0.13299  1.0000
  H   H3685     1.0  0.50894  0.61891  0.10105  1.0000
  C   C2074     1.0  0.39137  0.49424  0.21603  1.0000
  C   C2075     1.0  0.47455  0.81886  0.04839  1.0000
  C   C2076     1.0  0.47927  0.82143  0.07243  1.0000
  C   C2077     1.0  0.49020  0.83514  0.07075  1.0000
  C   C2078     1.0  0.49643  0.84656  0.04500  1.0000
  C   C2079     1.0  0.49165  0.84403  0.02099  1.0000
  C   C2080     1.0  0.48082  0.83025  0.02261  1.0000
  H   H3686     1.0  0.47444  0.81273  0.09247  1.0000
  H   H3687     1.0  0.49373  0.83693  0.08939  1.0000
  H   H3688     1.0  0.49633  0.85282  0.00103  1.0000
  H   H3689     1.0  0.47721  0.82849  0.00401  1.0000
  H   H3690     1.0  0.44444  0.59979  0.04563  1.0000
  C   C2081     1.0  0.39461  0.87518  0.27107  1.0000
  H   H3691     1.0  0.43061  0.85842  0.41999  1.0000
  H   H3692     1.0  0.42851  0.78491  0.42229  1.0000
  H   H3693     1.0  0.55115  0.78140  0.39325  1.0000
  C   C2082     1.0  0.41535  0.54777  0.37165  1.0000
  C   C2083     1.0  0.40524  0.90201  0.43315  1.0000
  C   C2084     1.0  0.41749  0.54887  0.34262  1.0000
  C   C2085     1.0  0.43506  0.65560  0.46198  1.0000
  C   C2086     1.0  0.41078  0.57350  0.36472  1.0000
  C   C2087     1.0  0.41264  0.57449  0.33582  1.0000
  C   C2088     1.0  0.41593  0.56222  0.32479  1.0000
  H   H3694     1.0  0.41151  0.58480  0.32195  1.0000
  H   H3695     1.0  0.41753  0.56321  0.30243  1.0000
  C   C2089     1.0  0.46102  0.59479  0.19658  1.0000
  C   C2090     1.0  0.46625  0.61003  0.17909  1.0000
  C   C2091     1.0  0.48041  0.61959  0.17883  1.0000
  C   C2092     1.0  0.48935  0.61390  0.19611  1.0000
  C   C2093     1.0  0.48412  0.59867  0.21350  1.0000
  C   C2094     1.0  0.47003  0.58913  0.21368  1.0000
  H   H3696     1.0  0.45932  0.61450  0.16583  1.0000
  H   H3697     1.0  0.48438  0.63136  0.16539  1.0000
  H   H3698     1.0  0.49088  0.59435  0.22724  1.0000
  H   H3699     1.0  0.46602  0.57751  0.22739  1.0000
  C   C2095     1.0  0.53265  0.58894  0.20511  1.0000
  H   H3700     1.0  0.43415  0.70125  0.42826  1.0000
  C   C2096     1.0  0.39613  0.57692  0.18415  1.0000
  H   H3701     1.0  0.48398  0.50086  0.19184  1.0000
  C   C2097     1.0  0.41053  0.89979  0.33958  1.0000
  C   C2098     1.0  0.42312  0.89343  0.33362  1.0000
  C   C2099     1.0  0.42264  0.87874  0.35021  1.0000
  C   C2100     1.0  0.40966  0.87045  0.37270  1.0000
  H   H3702     1.0  0.42362  0.93061  0.44327  1.0000
  H   H3703     1.0  0.41091  0.91118  0.32709  1.0000
  H   H3704     1.0  0.43238  0.87379  0.34572  1.0000
  H   H3705     1.0  0.40942  0.85918  0.38550  1.0000
  C   C2101     1.0  0.47635  0.91749  0.16909  1.0000
  C   C2102     1.0  0.47586  0.90795  0.19529  1.0000
  C   C2103     1.0  0.48353  0.89601  0.19644  1.0000
  C   C2104     1.0  0.49163  0.89356  0.17143  1.0000
  C   C2105     1.0  0.49202  0.90309  0.14532  1.0000
  C   C2106     1.0  0.48440  0.91501  0.14415  1.0000
  H   H3706     1.0  0.46969  0.90984  0.21465  1.0000
  H   H3707     1.0  0.48320  0.88867  0.21675  1.0000
  H   H3708     1.0  0.49802  0.90119  0.12598  1.0000
  H   H3709     1.0  0.48473  0.92234  0.12383  1.0000
  H   H3710     1.0  0.57192  0.81141  0.19557  1.0000
  H   H3711     1.0  0.43626  0.93482  0.39891  1.0000
  Fe  Fe245     1.0  0.39445  0.58712  0.42202  1.0000
  C   C2107     1.0  0.53586  0.75172  0.36441  1.0000
  C   C2108     1.0  0.52812  0.74228  0.39173  1.0000
  C   C2109     1.0  0.51316  0.74283  0.40473  1.0000
  C   C2110     1.0  0.50574  0.75262  0.39023  1.0000
  C   C2111     1.0  0.51345  0.76201  0.36287  1.0000
  C   C2112     1.0  0.52846  0.76156  0.34996  1.0000
  H   H3712     1.0  0.53379  0.73460  0.40290  1.0000
  H   H3713     1.0  0.52134  0.52968  0.12901  1.0000
  H   H3714     1.0  0.50782  0.76970  0.35161  1.0000
  H   H3715     1.0  0.53435  0.76893  0.32893  1.0000
  C   C2113     1.0  0.56157  0.73624  0.20797  1.0000
  C   C2114     1.0  0.56367  0.72935  0.18533  1.0000
  C   C2115     1.0  0.55167  0.71779  0.18275  1.0000
  C   C2116     1.0  0.53734  0.71314  0.20268  1.0000
  C   C2117     1.0  0.53521  0.72008  0.22528  1.0000
  C   C2118     1.0  0.54727  0.73154  0.22800  1.0000
  C   C2119     1.0  0.50805  0.78043  0.43630  1.0000
  H   H3716     1.0  0.55343  0.71264  0.16514  1.0000
  H   H3717     1.0  0.52415  0.71660  0.24073  1.0000
  H   H3718     1.0  0.54549  0.73673  0.24554  1.0000
  C   C2120     1.0  0.55275  0.81975  0.21333  1.0000
  C   C2121     1.0  0.54301  0.82940  0.20745  1.0000
  C   C2122     1.0  0.54464  0.83780  0.17954  1.0000
  C   C2123     1.0  0.55598  0.83648  0.15742  1.0000
  C   C2124     1.0  0.56593  0.82711  0.16337  1.0000
  C   C2125     1.0  0.56431  0.81873  0.19124  1.0000
  H   H3719     1.0  0.53408  0.83026  0.22451  1.0000
  H   H3720     1.0  0.53697  0.84510  0.17512  1.0000
  H   H3721     1.0  0.39016  0.59798  0.13494  1.0000
  S   S499      1.0  0.46104  0.51577  0.21130  1.0000
  N   N117      1.0  0.47770  0.72751  0.05765  1.0000
  C   C2126     1.0  0.47630  0.73130  0.02753  1.0000
  C   C2127     1.0  0.47402  0.74021  0.07093  1.0000
  C   C2128     1.0  0.49438  0.72771  0.05662  1.0000
  C   C2129     1.0  0.46763  0.71172  0.07534  1.0000
  C   C2130     1.0  0.45234  0.70555  0.06774  1.0000
  C   C2131     1.0  0.48289  0.72132  0.00889  1.0000
  C   C2132     1.0  0.49867  0.72579  0.08541  1.0000
  C   C2133     1.0  0.45803  0.74346  0.07149  1.0000
  C   C2134     1.0  0.45650  0.75748  0.08307  1.0000
  C   C2135     1.0  0.44238  0.69076  0.08994  1.0000
  C   C2136     1.0  0.54812  0.75787  0.43961  1.0000
  H   H3722     1.0  0.56904  0.49703  0.29738  1.0000
  H   H3723     1.0  0.48235  0.74369  0.01649  1.0000
  H   H3724     1.0  0.46413  0.73040  0.02686  1.0000
  H   H3725     1.0  0.47452  0.73754  0.09341  1.0000
  H   H3726     1.0  0.48290  0.75137  0.05982  1.0000
  H   H3727     1.0  0.50220  0.73872  0.04188  1.0000
  H   H3728     1.0  0.49757  0.71813  0.04801  1.0000
  H   H3729     1.0  0.47404  0.70259  0.07426  1.0000
  H   H3730     1.0  0.46473  0.71154  0.09816  1.0000
  H   H3731     1.0  0.45479  0.70263  0.04714  1.0000
  H   H3732     1.0  0.44539  0.71417  0.06605  1.0000
  H   H3733     1.0  0.39073  0.53411  0.43319  1.0000
  H   H3734     1.0  0.48008  0.70897  0.02092  1.0000
  H   H3735     1.0  0.49070  0.71543  0.10154  1.0000
  H   H3736     1.0  0.49825  0.73622  0.09335  1.0000
  H   H3737     1.0  0.45623  0.74621  0.05002  1.0000
  H   H3738     1.0  0.44872  0.73338  0.08546  1.0000
  H   H3739     1.0  0.45761  0.75536  0.10516  1.0000
  H   H3740     1.0  0.46543  0.76807  0.06964  1.0000
  H   H3741     1.0  0.44500  0.75968  0.08290  1.0000
  H   H3742     1.0  0.43189  0.68623  0.08332  1.0000
  H   H3743     1.0  0.44883  0.68165  0.09223  1.0000
  H   H3744     1.0  0.43874  0.69323  0.11075  1.0000
  H   H3745     1.0  0.47916  0.60572  0.04459  1.0000
  H   H3746     1.0  0.42410  0.63483  0.45176  1.0000
  C   C2137     1.0  0.53388  0.94650  0.06269  1.0000
  H   H3747     1.0  0.49228  0.69311  0.35739  1.0000
  H   H3748     1.0  0.48975  0.96667  0.19482  1.0000
  C   C2138     1.0  0.49545  0.96624  0.17323  1.0000
  H   H3749     1.0  0.42580  0.69965  0.39903  1.0000
  H   H3750     1.0  0.47273  0.64403  0.01973  1.0000
  H   H3751     1.0  0.52358  0.73420  0.06711  1.0000
  C   C2139     1.0  0.50512  0.95435  0.17531  1.0000
  H   H3752     1.0  0.58103  0.89436  0.10531  1.0000
  H   H3753     1.0  0.40703  0.86912  0.30359  1.0000
  C   C2140     1.0  0.39607  0.90635  0.20142  1.0000
  H   H3754     1.0  0.45629  0.58619  0.04255  1.0000
  H   H3755     1.0  0.56937  0.63785  0.11195  1.0000
  C   C2141     1.0  0.52807  0.94009  0.11622  1.0000
  C   C2142     1.0  0.52230  0.93127  0.16854  1.0000
  H   H3756     1.0  0.40021  0.89905  0.41588  1.0000
  H   H3757     1.0  0.49221  0.73845  0.30114  1.0000
  C   C2143     1.0  0.55537  0.95389  0.13812  1.0000
  H   H3758     1.0  0.43576  0.76281  0.45032  1.0000
  H   H3759     1.0  0.39618  0.57468  0.99841  1.0000
  C   C2144     1.0  0.53039  0.91811  0.16473  1.0000
  C   C2145     1.0  0.52818  0.90651  0.19311  1.0000
  C   C2146     1.0  0.54020  0.78439  0.40161  1.0000
  H   H3760     1.0  0.54081  0.49417  0.31418  1.0000
  H   H3761     1.0  0.47167  0.66911  0.34191  1.0000
  H   H3762     1.0  0.51779  0.93079  0.11743  1.0000
  H   H3763     1.0  0.53791  0.93466  0.11333  1.0000
  H   H3764     1.0  0.51560  0.69887  0.41957  1.0000
  H   H3765     1.0  0.50975  0.92530  0.17494  1.0000
  H   H3766     1.0  0.55811  0.94987  0.11872  1.0000
  H   H3767     1.0  0.51413  0.95834  0.18576  1.0000
  H   H3768     1.0  0.47102  0.67328  0.40154  1.0000
  H   H3769     1.0  0.51623  0.71333  0.07529  1.0000
  H   H3770     1.0  0.47400  0.60477  0.99909  1.0000
  H   H3771     1.0  0.55575  0.94496  0.15669  1.0000
  H   H3772     1.0  0.46403  0.71662  0.98907  1.0000
  H   H3773     1.0  0.40021  0.89087  0.47891  1.0000
  C   C2147     1.0  0.57432  0.88541  0.99270  1.0000
  H   H3774     1.0  0.42873  0.82800  0.44060  1.0000
  H   H3775     1.0  0.52528  0.91160  0.15100  1.0000
  H   H3776     1.0  0.54290  0.92254  0.15477  1.0000
  H   H3777     1.0  0.53275  0.89650  0.18948  1.0000
  H   H3778     1.0  0.53442  0.91206  0.20668  1.0000
  H   H3779     1.0  0.51574  0.90199  0.20434  1.0000
  C   C2148     1.0  0.40773  0.94961  0.14988  1.0000
  H   H3780     1.0  0.56314  0.81223  0.46890  1.0000
  H   H3781     1.0  0.50257  0.70450  0.44553  1.0000
  H   H3782     1.0  0.47455  0.72204  0.34683  1.0000
  H   H3783     1.0  0.39604  0.88701  0.18290  1.0000
  C   C2149     1.0  0.45258  0.59589  0.03060  1.0000
  H   H3784     1.0  0.43960  0.83613  0.47811  1.0000
  H   H3785     1.0  0.45121  0.71812  0.38083  1.0000
  H   H3786     1.0  0.44301  0.91354  0.43558  1.0000
  H   H3787     1.0  0.49567  0.72564  0.00153  1.0000
  H   H3788     1.0  0.53376  0.73402  0.45409  1.0000
  H   H3789     1.0  0.39805  0.60053  0.18441  1.0000
  Fe  Fe246     1.0  0.38870  0.81397  0.45365  1.0000
  C   C2150     1.0  0.45088  0.70559  0.38764  1.0000
  H   H3790     1.0  0.53117  0.77616  0.39644  1.0000
  N   N118      1.0  0.52578  0.94516  0.14330  1.0000
  H   H3791     1.0  0.43525  0.86115  0.45240  1.0000
  H   H3792     1.0  0.54005  0.59281  0.18304  1.0000
  H   H3793     1.0  0.50829  0.54962  0.14123  1.0000
  H   H3794     1.0  0.38880  0.72797  0.44350  1.0000
  N   N119      1.0  0.46109  0.61441  0.28901  1.0000
  C   C2151     1.0  0.44541  0.61225  0.28287  1.0000
  C   C2152     1.0  0.46050  0.61866  0.31686  1.0000
  C   C2153     1.0  0.47205  0.62788  0.26572  1.0000
  C   C2154     1.0  0.46731  0.60030  0.28890  1.0000
  C   C2155     1.0  0.45703  0.58479  0.30945  1.0000
  C   C2156     1.0  0.44417  0.60734  0.25536  1.0000
  C   C2157     1.0  0.48875  0.63283  0.26892  1.0000
  C   C2158     1.0  0.44530  0.61165  0.34077  1.0000
  C   C2159     1.0  0.44733  0.61496  0.36868  1.0000
  C   C2160     1.0  0.46325  0.57106  0.30390  1.0000
  C   C2161     1.0  0.42770  0.60510  0.25203  1.0000
  C   C2162     1.0  0.49763  0.64847  0.24807  1.0000
  H   H3795     1.0  0.44155  0.62316  0.28194  1.0000
  H   H3796     1.0  0.43649  0.60332  0.30025  1.0000
  H   H3797     1.0  0.47004  0.61558  0.32568  1.0000
  H   H3798     1.0  0.46246  0.63148  0.31353  1.0000
  H   H3799     1.0  0.46720  0.63824  0.26369  1.0000
  H   H3800     1.0  0.47346  0.62520  0.24481  1.0000
  H   H3801     1.0  0.46990  0.59870  0.26721  1.0000
  H   H3802     1.0  0.47861  0.60203  0.29435  1.0000
  H   H3803     1.0  0.44511  0.58256  0.30712  1.0000
  H   H3804     1.0  0.45684  0.58491  0.33164  1.0000
  H   H3805     1.0  0.45176  0.61625  0.23626  1.0000
  H   H3806     1.0  0.44724  0.59613  0.25580  1.0000
  H   H3807     1.0  0.49514  0.62410  0.26437  1.0000
  H   H3808     1.0  0.48895  0.63400  0.29042  1.0000
  H   H3809     1.0  0.43603  0.61692  0.33507  1.0000
  H   H3810     1.0  0.44126  0.59893  0.34457  1.0000
  H   H3811     1.0  0.45099  0.62766  0.36617  1.0000
  H   H3812     1.0  0.47507  0.57231  0.30692  1.0000
  H   H3813     1.0  0.45560  0.56010  0.31893  1.0000
  H   H3814     1.0  0.46343  0.57018  0.28205  1.0000
  H   H3815     1.0  0.42727  0.60206  0.23180  1.0000
  H   H3816     1.0  0.41965  0.59547  0.26960  1.0000
  H   H3817     1.0  0.42385  0.61594  0.25166  1.0000
  H   H3818     1.0  0.49769  0.64804  0.22608  1.0000
  H   H3819     1.0  0.49234  0.65789  0.25289  1.0000
  H   H3820     1.0  0.50978  0.65131  0.24945  1.0000
  S   S500      1.0  0.47916  0.71854  0.47498  1.0000
  C   C2163     1.0  0.48338  0.64301  0.00570  1.0000
  H   H3821     1.0  0.52061  0.95769  0.08839  1.0000
  C   C2164     1.0  0.38400  0.94646  0.13069  1.0000
  H   H3822     1.0  0.55236  0.86649  0.20618  1.0000
  H   H3823     1.0  0.53541  0.95576  0.04316  1.0000
  H   H3824     1.0  0.56946  0.90769  0.98712  1.0000
  C   C2165     1.0  0.49472  0.78689  0.44835  1.0000
  C   C2166     1.0  0.57320  0.87477  0.17170  1.0000
  Fe  Fe247     1.0  0.57547  0.76473  0.24293  1.0000
  H   H3825     1.0  0.55066  0.75782  0.41698  1.0000
  H   H3826     1.0  0.40569  0.93680  0.15698  1.0000
  H   H3827     1.0  0.41573  0.95393  0.12834  1.0000
  C   C2167     1.0  0.55100  0.78863  0.47108  1.0000
  C   C2168     1.0  0.39450  0.56862  0.02098  1.0000
  H   H3828     1.0  0.39177  0.95048  0.10881  1.0000
  S   S501      1.0  0.46587  0.77556  0.00030  1.0000
  H   H3829     1.0  0.44763  0.88931  0.42820  1.0000
  H   H3830     1.0  0.50311  0.68448  0.45073  1.0000
  C   C2169     1.0  0.38749  0.68638  0.98940  1.0000
  N   N120      1.0  0.41260  0.60157  0.14352  1.0000
  C   C2170     1.0  0.40162  0.59579  0.12703  1.0000
  C   C2171     1.0  0.40593  0.59403  0.17494  1.0000
  C   C2172     1.0  0.41430  0.61885  0.13883  1.0000
  C   C2173     1.0  0.42843  0.59913  0.13347  1.0000
  C   C2174     1.0  0.42931  0.58257  0.13178  1.0000
  C   C2175     1.0  0.40677  0.60290  0.09445  1.0000
  C   C2176     1.0  0.42390  0.62695  0.15635  1.0000
  H   H3831     1.0  0.50558  0.64415  0.03565  1.0000
  H   H3832     1.0  0.43057  0.89903  0.46474  1.0000
  C   C2177     1.0  0.44573  0.58261  0.11726  1.0000
  S   S502      1.0  0.39053  0.63192  0.46905  1.0000
  C   C2178     1.0  0.42552  0.64447  0.14845  1.0000
  H   H3833     1.0  0.40413  0.73161  0.00254  1.0000
  C   C2179     1.0  0.56093  0.49206  0.28595  1.0000
  H   H3834     1.0  0.41530  0.59473  0.18613  1.0000
  H   H3835     1.0  0.41748  0.92934  0.39218  1.0000
  H   H3836     1.0  0.40271  0.62131  0.14337  1.0000
  H   H3837     1.0  0.41991  0.62509  0.11633  1.0000
  H   H3838     1.0  0.43447  0.60723  0.11233  1.0000
  H   H3839     1.0  0.43581  0.60220  0.14754  1.0000
  H   H3840     1.0  0.42163  0.57781  0.11953  1.0000
  H   H3841     1.0  0.42637  0.57469  0.15334  1.0000
  H   H3842     1.0  0.50628  0.61563  0.05409  1.0000
  H   H3843     1.0  0.41835  0.60150  0.08524  1.0000
  H   H3844     1.0  0.43573  0.62529  0.15237  1.0000
  H   H3845     1.0  0.41835  0.62237  0.17939  1.0000
  C   C2180     1.0  0.38877  0.77668  0.99051  1.0000
  C   C2181     1.0  0.39768  0.89164  0.36234  1.0000
  H   H3846     1.0  0.56378  0.91328  0.12409  1.0000
  C   C2182     1.0  0.58258  0.93147  0.12557  1.0000
  H   H3847     1.0  0.44932  0.59009  0.09521  1.0000
  H   H3848     1.0  0.45391  0.58696  0.12912  1.0000
  H   H3849     1.0  0.44623  0.57060  0.11669  1.0000
  H   H3850     1.0  0.44657  0.65408  0.45558  1.0000
  H   H3851     1.0  0.48939  0.53317  0.29533  1.0000
  H   H3852     1.0  0.38966  0.54601  0.01385  1.0000
  H   H3853     1.0  0.41383  0.88903  0.28270  1.0000
  H   H3854     1.0  0.41400  0.64697  0.15276  1.0000
  H   H3855     1.0  0.38501  0.92485  0.09566  1.0000
  N   N121      1.0  0.53707  0.78213  0.43319  1.0000
  H   H3856     1.0  0.45463  0.61089  0.46702  1.0000
  H   H3857     1.0  0.53325  0.79457  0.34923  1.0000
  H   H3858     1.0  0.54052  0.96858  0.12700  1.0000
  H   H3859     1.0  0.56054  0.50150  0.26815  1.0000
  H   H3860     1.0  0.39591  0.77381  0.00458  1.0000
  C   C2183     1.0  0.40936  0.87692  0.28206  1.0000
  H   H3861     1.0  0.49748  0.94316  0.18951  1.0000
  C   C2184     1.0  0.53086  0.95295  0.08854  1.0000
  H   H3862     1.0  0.44640  0.59152  0.01580  1.0000
  H   H3863     1.0  0.40178  0.49661  0.22314  1.0000
  H   H3864     1.0  0.41827  0.87844  0.45259  1.0000
  C   C2185     1.0  0.48227  0.49881  0.21448  1.0000
  C   C2186     1.0  0.47797  0.49348  0.27284  1.0000
  H   H3865     1.0  0.56762  0.61940  0.13546  1.0000
  H   H3866     1.0  0.40003  0.68834  0.97998  1.0000
  S   S503      1.0  0.44857  0.72605  0.45458  1.0000
  H   H3867     1.0  0.46114  0.69221  0.41643  1.0000
  H   H3868     1.0  0.40709  0.61544  0.08899  1.0000
  H   H3869     1.0  0.46530  0.71208  0.41449  1.0000
  H   H3870     1.0  0.41286  0.91556  0.47442  1.0000
  C   C2187     1.0  0.42232  0.64458  0.45992  1.0000
  H   H3871     1.0  0.55382  0.79719  0.34452  1.0000
  C   C2188     1.0  0.56736  0.77927  0.16229  1.0000
  C   C2189     1.0  0.43054  0.90843  0.44652  1.0000
  C   C2190     1.0  0.48022  0.69407  0.36439  1.0000
  H   H3872     1.0  0.48787  0.61295  0.07877  1.0000
  S   S504      1.0  0.39711  0.83763  0.46018  1.0000
  H   H3873     1.0  0.49770  0.79973  0.44019  1.0000
  H   H3874     1.0  0.43244  0.65001  0.16115  1.0000
  H   H3875     1.0  0.45162  0.70097  0.36874  1.0000
  H   H3876     1.0  0.56606  0.97298  0.15356  1.0000
  H   H3877     1.0  0.42516  0.88038  0.24088  1.0000
  H   H3878     1.0  0.57460  0.73301  0.16958  1.0000
  H   H3879     1.0  0.49912  0.63421  0.09783  1.0000
  H   H3880     1.0  0.38524  0.57610  0.17737  1.0000
  H   H3881     1.0  0.56426  0.76657  0.16545  1.0000
  H   H3882     1.0  0.47379  0.53179  0.27846  1.0000
  S   S505      1.0  0.42866  0.61737  0.00567  1.0000
  H   H3883     1.0  0.43663  0.94756  0.35024  1.0000
  H   H3884     1.0  0.53195  0.59941  0.21286  1.0000
  H   H3885     1.0  0.45107  0.82209  0.47739  1.0000
  H   H3886     1.0  0.48311  0.55030  0.28277  1.0000
  H   H3887     1.0  0.48634  0.63926  0.05684  1.0000
  C   C2191     1.0  0.40727  0.64608  0.46887  1.0000
  S   S506      1.0  0.54990  0.80880  0.24830  1.0000
  Fe  Fe248     1.0  0.56477  0.79231  0.25730  1.0000
  H   H3888     1.0  0.53802  0.58160  0.21880  1.0000
  Fe  Fe249     1.0  0.47320  0.73874  0.44919  1.0000
  H   H3889     1.0  0.51784  0.72256  0.10333  1.0000
  H   H3890     1.0  0.52459  0.75816  0.44157  1.0000
  N   N122      1.0  0.42208  0.90190  0.42688  1.0000
  H   H3891     1.0  0.57132  0.88259  0.01613  1.0000
  C   C2192     1.0  0.42981  0.91075  0.39641  1.0000
  C   C2193     1.0  0.42281  0.88521  0.43000  1.0000
  H   H3892     1.0  0.46689  0.61828  0.05049  1.0000
  H   H3893     1.0  0.51983  0.78399  0.46820  1.0000
  C   C2194     1.0  0.43903  0.88260  0.41967  1.0000
  C   C2195     1.0  0.42943  0.92799  0.38770  1.0000
  C   C2196     1.0  0.43671  0.93512  0.35596  1.0000
  H   H3894     1.0  0.38506  0.80025  0.38983  1.0000
  H   H3895     1.0  0.47669  0.69754  0.34443  1.0000
  C   C2197     1.0  0.51509  0.72387  0.08247  1.0000
  H   H3896     1.0  0.44226  0.91090  0.39097  1.0000
  H   H3897     1.0  0.42464  0.90473  0.38213  1.0000
  H   H3898     1.0  0.41516  0.87949  0.41856  1.0000
  C   C2198     1.0  0.53435  0.76510  0.44721  1.0000
  C   C2199     1.0  0.49864  0.62162  0.06544  1.0000
  H   H3899     1.0  0.50236  0.94473  0.14028  1.0000
  H   H3900     1.0  0.40377  0.91378  0.43320  1.0000
  C   C2200     1.0  0.46976  0.67747  0.37992  1.0000
  C   C2201     1.0  0.43346  0.72207  0.00189  1.0000
  H   H3901     1.0  0.44287  0.88623  0.39616  1.0000
  H   H3902     1.0  0.52404  0.93671  0.06419  1.0000
  C   C2202     1.0  0.43994  0.82448  0.47511  1.0000
  H   H3903     1.0  0.44887  0.93435  0.35015  1.0000
  H   H3904     1.0  0.43014  0.92906  0.34339  1.0000
  H   H3905     1.0  0.38372  0.67586  0.00757  1.0000
  H   H3906     1.0  0.46995  0.55111  0.19109  1.0000
  S   S507      1.0  0.57708  0.75073  0.21015  1.0000
  H   H3907     1.0  0.48168  0.57043  0.12909  1.0000
  H   H3908     1.0  0.39211  0.86130  0.14041  1.0000
  C   C2203     1.0  0.56130  0.87753  0.19512  1.0000
  C   C2204     1.0  0.39251  0.73223  0.05535  1.0000
  H   H3909     1.0  0.39793  0.74491  0.04966  1.0000
  H   H3910     1.0  0.51207  0.74628  0.30034  1.0000
  C   C2205     1.0  0.43305  0.66847  0.47241  1.0000
  H   H3911     1.0  0.40598  0.56809  0.02457  1.0000
  H   H3912     1.0  0.50553  0.82649  0.98120  1.0000
  H   H3913     1.0  0.51780  0.63687  0.07394  1.0000
  C   C2206     1.0  0.39726  0.87702  0.37911  1.0000
  H   H3914     1.0  0.48542  0.66485  0.36194  1.0000
  H   H3915     1.0  0.41879  0.86043  0.26242  1.0000
  H   H3916     1.0  0.49689  0.75128  0.32296  1.0000
  H   H3917     1.0  0.48188  0.73117  0.37104  1.0000
  N   N123      1.0  0.47989  0.70637  0.38044  1.0000
  Fe  Fe250     1.0  0.44240  0.76185  0.00119  1.0000
  H   H3918     1.0  0.39931  0.58301  0.13058  1.0000
  H   H3919     1.0  0.50431  0.76761  0.44471  1.0000
  H   H3920     1.0  0.49343  0.68302  0.40873  1.0000
  C   C2207     1.0  0.42226  0.87278  0.26275  1.0000
  C   C2208     1.0  0.49934  0.72782  0.33806  1.0000
  C   C2209     1.0  0.57279  0.92353  0.11201  1.0000
  H   H3921     1.0  0.38939  0.57551  0.03446  1.0000
  C   C2210     1.0  0.43877  0.86544  0.42894  1.0000
  H   H3922     1.0  0.48434  0.78192  0.44179  1.0000
  H   H3923     1.0  0.39452  0.89778  0.30085  1.0000
  H   H3924     1.0  0.43276  0.87456  0.27077  1.0000
  H   H3925     1.0  0.48013  0.68825  0.43503  1.0000
  C   C2211     1.0  0.47335  0.66570  0.36352  1.0000
  C   C2212     1.0  0.46448  0.70378  0.40109  1.0000
  C   C2213     1.0  0.47539  0.61572  0.03379  1.0000
  H   H3926     1.0  0.57837  0.86583  0.18206  1.0000
  H   H3927     1.0  0.50836  0.73161  0.34872  1.0000
  H   H3928     1.0  0.50229  0.71857  0.32838  1.0000
  H   H3929     1.0  0.50390  0.71011  0.38171  1.0000
  C   C2214     1.0  0.48318  0.72207  0.35957  1.0000
  H   H3930     1.0  0.50288  0.97799  0.16143  1.0000
  H   H3931     1.0  0.52542  0.54994  0.15377  1.0000
  C   C2215     1.0  0.53946  0.95764  0.14309  1.0000
  H   H3932     1.0  0.39556  0.96703  0.14244  1.0000
  C   C2216     1.0  0.57472  0.92891  0.08286  1.0000
  H   H3933     1.0  0.55200  0.80926  0.38562  1.0000
  H   H3934     1.0  0.39015  0.70145  0.01651  1.0000
  H   H3935     1.0  0.44951  0.83402  0.42973  1.0000
  H   H3936     1.0  0.57504  0.63587  0.17109  1.0000
  S   S508      1.0  0.57554  0.79188  0.29395  1.0000
  C   C2217     1.0  0.43526  0.69723  0.40865  1.0000
  C   C2218     1.0  0.52290  0.78726  0.44465  1.0000
  H   H3937     1.0  0.55142  0.80434  0.43192  1.0000
  C   C2219     1.0  0.50663  0.62836  0.08572  1.0000
  H   H3938     1.0  0.48100  0.54567  0.16237  1.0000
  C   C2220     1.0  0.50010  0.74181  0.31419  1.0000
  H   H3939     1.0  0.55552  0.88626  0.18604  1.0000
  C   C2221     1.0  0.51199  0.95208  0.14573  1.0000
  H   H3940     1.0  0.53061  0.76283  0.47060  1.0000
  H   H3941     1.0  0.46545  0.65408  0.37479  1.0000
  C   C2222     1.0  0.47141  0.50484  0.22984  1.0000
  H   H3942     1.0  0.51490  0.96357  0.12996  1.0000
  H   H3943     1.0  0.43156  0.64969  0.12567  1.0000
  N   N124      1.0  0.53824  0.77989  0.17180  1.0000
  C   C2223     1.0  0.53815  0.77364  0.20235  1.0000
  C   C2224     1.0  0.55467  0.78685  0.15369  1.0000
  C   C2225     1.0  0.53001  0.79275  0.17076  1.0000
  C   C2226     1.0  0.52982  0.76773  0.16007  1.0000
  C   C2227     1.0  0.53458  0.75223  0.16356  1.0000
  C   C2228     1.0  0.52202  0.76661  0.22395  1.0000
  C   C2229     1.0  0.53049  0.80229  0.14072  1.0000
  H   H3944     1.0  0.38533  0.95057  0.17217  1.0000
  C   C2230     1.0  0.40985  0.78508  0.45636  1.0000
  C   C2231     1.0  0.52417  0.74065  0.15299  1.0000
  C   C2232     1.0  0.51800  0.77700  0.24322  1.0000
  C   C2233     1.0  0.52033  0.81367  0.14238  1.0000
  H   H3945     1.0  0.54495  0.78291  0.20965  1.0000
  H   H3946     1.0  0.54442  0.76440  0.20467  1.0000
  H   H3947     1.0  0.55529  0.78729  0.13106  1.0000
  H   H3948     1.0  0.55864  0.79914  0.15392  1.0000
  H   H3949     1.0  0.53496  0.80121  0.18176  1.0000
  H   H3950     1.0  0.51763  0.78805  0.18248  1.0000
  H   H3951     1.0  0.51713  0.76499  0.16914  1.0000
  H   H3952     1.0  0.53144  0.77231  0.13695  1.0000
  H   H3953     1.0  0.53363  0.74675  0.18599  1.0000
  H   H3954     1.0  0.54651  0.75411  0.15073  1.0000
  H   H3955     1.0  0.51252  0.76387  0.21386  1.0000
  H   H3956     1.0  0.52212  0.75534  0.23783  1.0000
  H   H3957     1.0  0.52622  0.79472  0.12789  1.0000
  H   H3958     1.0  0.54243  0.80916  0.12919  1.0000
  H   H3959     1.0  0.56922  0.78160  0.18241  1.0000
  C   C2234     1.0  0.38941  0.89470  0.18977  1.0000
  H   H3960     1.0  0.46076  0.50663  0.27115  1.0000
  H   H3961     1.0  0.52523  0.80015  0.43833  1.0000
  C   C2235     1.0  0.39552  0.59501  0.07994  1.0000
  H   H3962     1.0  0.52428  0.74566  0.13067  1.0000
  H   H3963     1.0  0.52840  0.73000  0.15399  1.0000
  H   H3964     1.0  0.51214  0.73727  0.16650  1.0000
  H   H3965     1.0  0.52636  0.77838  0.25630  1.0000
  H   H3966     1.0  0.51813  0.78869  0.23078  1.0000
  H   H3967     1.0  0.50631  0.77161  0.25774  1.0000
  H   H3968     1.0  0.50802  0.80733  0.15188  1.0000
  H   H3969     1.0  0.52390  0.82160  0.15521  1.0000
  H   H3970     1.0  0.52149  0.82083  0.12074  1.0000
  C   C2236     1.0  0.46652  0.60939  0.01378  1.0000
  H   H3971     1.0  0.45599  0.60933  0.37612  1.0000
  H   H3972     1.0  0.43617  0.61018  0.38514  1.0000
  H   H3973     1.0  0.52474  0.93508  0.18726  1.0000
  H   H3974     1.0  0.38565  0.55810  0.22240  1.0000
  N   N125      1.0  0.44214  0.87428  0.15572  1.0000
  C   C2237     1.0  0.45019  0.86749  0.13365  1.0000
  C   C2238     1.0  0.42529  0.86555  0.16565  1.0000
  C   C2239     1.0  0.44412  0.89131  0.14263  1.0000
  C   C2240     1.0  0.44893  0.87273  0.18086  1.0000
  C   C2241     1.0  0.44896  0.85597  0.19578  1.0000
  C   C2242     1.0  0.46811  0.87310  0.12423  1.0000
  C   C2243     1.0  0.43595  0.90008  0.16206  1.0000
  C   C2244     1.0  0.41545  0.86884  0.14430  1.0000
  C   C2245     1.0  0.39906  0.85831  0.15559  1.0000
  C   C2246     1.0  0.45664  0.85588  0.22017  1.0000
  C   C2247     1.0  0.47482  0.86518  0.10229  1.0000
  C   C2248     1.0  0.43496  0.91571  0.14492  1.0000
  H   H3975     1.0  0.44614  0.87016  0.11411  1.0000
  H   H3976     1.0  0.44705  0.85458  0.14096  1.0000
  H   H3977     1.0  0.42415  0.85280  0.17110  1.0000
  H   H3978     1.0  0.41957  0.86778  0.18574  1.0000
  H   H3979     1.0  0.44040  0.89300  0.12261  1.0000
  H   H3980     1.0  0.45653  0.89764  0.13611  1.0000
  H   H3981     1.0  0.46089  0.88019  0.17482  1.0000
  H   H3982     1.0  0.44250  0.87725  0.19733  1.0000
  H   H3983     1.0  0.45535  0.85056  0.18096  1.0000
  H   H3984     1.0  0.43698  0.84858  0.20476  1.0000
  H   H3985     1.0  0.47200  0.88580  0.11447  1.0000
  H   H3986     1.0  0.47326  0.87033  0.14230  1.0000
  H   H3987     1.0  0.44255  0.90234  0.17772  1.0000
  H   H3988     1.0  0.42408  0.89342  0.17395  1.0000
  H   H3989     1.0  0.41447  0.88102  0.14045  1.0000
  H   H3990     1.0  0.42061  0.86684  0.12374  1.0000
  H   H3991     1.0  0.39920  0.84592  0.15822  1.0000
  H   H3992     1.0  0.39332  0.85989  0.17622  1.0000
  H   H3993     1.0  0.48634  0.96304  0.16238  1.0000
  H   H3994     1.0  0.45588  0.84372  0.23133  1.0000
  H   H3995     1.0  0.46904  0.86214  0.21198  1.0000
  H   H3996     1.0  0.45090  0.86142  0.23561  1.0000
  H   H3997     1.0  0.48761  0.86931  0.09598  1.0000
  H   H3998     1.0  0.47168  0.85238  0.11118  1.0000
  H   H3999     1.0  0.47060  0.86798  0.08299  1.0000
  H   H4000     1.0  0.44655  0.92270  0.13159  1.0000
  H   H4001     1.0  0.42703  0.91394  0.13116  1.0000
  H   H4002     1.0  0.43047  0.92237  0.15952  1.0000
  H   H4003     1.0  0.40778  0.90765  0.20322  1.0000
  S   S509      1.0  0.45853  0.98414  0.23683  1.0000
  H   H4004     1.0  0.41653  0.53747  0.38558  1.0000
  H   H4005     1.0  0.46221  0.61845  0.00158  1.0000
  C   C2249     1.0  0.55077  0.79176  0.43945  1.0000
  H   H4006     1.0  0.58010  0.89933  0.15017  1.0000
  H   H4007     1.0  0.43392  0.68448  0.41431  1.0000
  Fe  Fe251     1.0  0.40908  0.62641  0.99418  1.0000
  H   H4008     1.0  0.47089  0.57611  0.15809  1.0000
  C   C2250     1.0  0.56726  0.63152  0.13456  1.0000
  C   C2251     1.0  0.55089  0.63137  0.14964  1.0000
  S   S510      1.0  0.38735  0.52224  0.22524  1.0000
  H   H4009     1.0  0.39789  0.88247  0.24878  1.0000
  H   H4010     1.0  0.51866  0.52071  0.16603  1.0000
  C   C2252     1.0  0.49223  0.70721  0.39639  1.0000
  H   H4011     1.0  0.39297  0.90332  0.26584  1.0000
  H   H4012     1.0  0.56392  0.88042  0.98622  1.0000
  C   C2253     1.0  0.42212  0.77950  0.44411  1.0000
  H   H4013     1.0  0.54457  0.94236  0.06091  1.0000
  H   H4014     1.0  0.56686  0.87013  0.15746  1.0000
  H   H4015     1.0  0.51277  0.49217  0.40007  1.0000
  C   C2254     1.0  0.42627  0.76701  0.45994  1.0000
  H   H4016     1.0  0.56687  0.88162  0.21086  1.0000
  C   C2255     1.0  0.49139  0.69234  0.41898  1.0000
  C   C2256     1.0  0.43942  0.82505  0.44459  1.0000
  H   H4017     1.0  0.54581  0.81380  0.33989  1.0000
  H   H4018     1.0  0.45943  0.97966  0.29675  1.0000
  H   H4019     1.0  0.54245  0.62563  0.13959  1.0000
  H   H4020     1.0  0.54794  0.62499  0.17235  1.0000
  H   H4021     1.0  0.54983  0.64342  0.14793  1.0000
  H   H4022     1.0  0.40234  0.56917  0.17506  1.0000
  C   C2257     1.0  0.50396  0.69528  0.43458  1.0000
  H   H4023     1.0  0.55874  0.76432  0.44351  1.0000
  C   C2258     1.0  0.41199  0.56004  0.38270  1.0000
  H   H4024     1.0  0.46222  0.55939  0.14773  1.0000
  H   H4025     1.0  0.50739  0.73569  0.42594  1.0000
  N   N126      1.0  0.50139  0.55541  0.19598  1.0000
  C   C2259     1.0  0.49055  0.55064  0.22524  1.0000
  C   C2260     1.0  0.49424  0.56464  0.17588  1.0000
  C   C2261     1.0  0.50383  0.54092  0.18772  1.0000
  C   C2262     1.0  0.51685  0.56539  0.19512  1.0000
  C   C2263     1.0  0.51643  0.58002  0.20617  1.0000
  C   C2264     1.0  0.49669  0.54266  0.24968  1.0000
  C   C2265     1.0  0.51335  0.54332  0.15697  1.0000
  C   C2266     1.0  0.47918  0.55559  0.17104  1.0000
  C   C2267     1.0  0.47320  0.56609  0.15013  1.0000
  C   C2268     1.0  0.54379  0.80163  0.35249  1.0000
  C   C2269     1.0  0.48500  0.53931  0.27825  1.0000
  C   C2270     1.0  0.51388  0.52772  0.15062  1.0000
  H   H4026     1.0  0.47979  0.54219  0.22589  1.0000
  H   H4027     1.0  0.48670  0.56073  0.23064  1.0000
  H   H4028     1.0  0.49127  0.57448  0.18376  1.0000
  H   H4029     1.0  0.50268  0.57021  0.15492  1.0000
  H   H4030     1.0  0.49258  0.53251  0.19113  1.0000
  H   H4031     1.0  0.50987  0.53471  0.20179  1.0000
  H   H4032     1.0  0.52333  0.55841  0.20691  1.0000
  H   H4033     1.0  0.52420  0.56970  0.17298  1.0000
  H   H4034     1.0  0.50945  0.57690  0.22841  1.0000
  H   H4035     1.0  0.51155  0.58811  0.19288  1.0000
  H   H4036     1.0  0.49868  0.53138  0.24695  1.0000
  H   H4037     1.0  0.50761  0.55006  0.25085  1.0000
  H   H4038     1.0  0.40167  0.72586  0.05497  1.0000
  C   C2271     1.0  0.49485  0.63452  0.04427  1.0000
  C   C2272     1.0  0.43504  0.92724  0.47669  1.0000
  H   H4039     1.0  0.50981  0.78331  0.41301  1.0000
  C   C2273     1.0  0.46922  0.50213  0.25910  1.0000
  H   H4040     1.0  0.57480  0.82619  0.14629  1.0000
  C   C2274     1.0  0.57943  0.63985  0.14760  1.0000
  H   H4041     1.0  0.58081  0.87461  0.11473  1.0000
  H   H4042     1.0  0.50669  0.65865  0.98550  1.0000
  C   C2275     1.0  0.58167  0.68074  0.09736  1.0000
  H   H4043     1.0  0.38373  0.59631  0.08800  1.0000
  H   H4044     1.0  0.39265  0.87841  0.45890  1.0000
  C   C2276     1.0  0.49085  0.49003  0.22820  1.0000
  H   H4045     1.0  0.39930  0.60054  0.05677  1.0000
  C   C2277     1.0  0.39252  0.95418  0.14997  1.0000
  C   C2278     1.0  0.38419  0.70036  0.99953  1.0000
  H   H4046     1.0  0.57718  0.60576  0.16594  1.0000
  C   C2279     1.0  0.38781  0.73223  0.46285  1.0000
  H   H4047     1.0  0.50194  0.61358  0.00916  1.0000
  C   C2280     1.0  0.42448  0.92076  0.45963  1.0000
  H   H4048     1.0  0.55256  0.77687  0.47891  1.0000
  H   H4049     1.0  0.49188  0.78366  0.47186  1.0000
  H   H4050     1.0  0.39090  0.75599  0.44093  1.0000
  H   H4051     1.0  0.38493  0.72872  0.07723  1.0000
  H   H4052     1.0  0.56896  0.97749  0.11545  1.0000
  H   H4053     1.0  0.38903  0.92732  0.28611  1.0000
  H   H4054     1.0  0.58100  0.92730  0.14814  1.0000
  N   N127      1.0  0.38571  0.72963  0.98111  1.0000
  H   H4055     1.0  0.39518  0.58248  0.08348  1.0000
  H   H4056     1.0  0.44682  0.93315  0.46287  1.0000
  H   H4057     1.0  0.39148  0.86302  0.26967  1.0000
  H   H4058     1.0  0.39091  0.53172  0.32145  1.0000
  C   C2281     1.0  0.54439  0.74103  0.45719  1.0000
  H   H4059     1.0  0.56178  0.79028  0.42730  1.0000
  C   C2282     1.0  0.39282  0.73458  0.00366  1.0000
  H   H4060     1.0  0.56297  0.94448  0.98472  1.0000
  H   H4061     1.0  0.55409  0.73588  0.45048  1.0000
  H   H4062     1.0  0.38461  0.51329  0.44046  1.0000
  N   N128      1.0  0.48894  0.62977  0.02047  1.0000
  C   C2283     1.0  0.39476  0.89048  0.46120  1.0000
  H   H4063     1.0  0.57913  0.65230  0.14168  1.0000
  H   H4064     1.0  0.43645  0.61183  0.45913  1.0000
  H   H4065     1.0  0.38812  0.89678  0.36727  1.0000
  H   H4066     1.0  0.38787  0.84047  0.99382  1.0000
  H   H4067     1.0  0.57943  0.96535  0.13243  1.0000
  Fe  Fe252     1.0  0.38632  0.60778  0.46014  1.0000
  C   C2284     1.0  0.39160  0.57067  0.21634  1.0000
  H   H4068     1.0  0.38479  0.91687  0.32295  1.0000
  H   H4069     1.0  0.47625  0.49139  0.29550  1.0000
  C   C2285     1.0  0.44192  0.60737  0.47594  1.0000
  H   H4070     1.0  0.57559  0.79943  0.46278  1.0000
  S   S511      1.0  0.45011  0.65328  0.98316  1.0000
  C   C2286     1.0  0.38633  0.89627  0.28754  1.0000
  H   H4071     1.0  0.38582  0.87289  0.32907  1.0000
  H   H4072     1.0  0.57578  0.70533  0.22195  1.0000
  H   H4073     1.0  0.58180  0.78347  0.11956  1.0000
  H   H4074     1.0  0.47907  0.67334  0.98835  1.0000
  H   H4075     1.0  0.39938  0.73464  0.46713  1.0000
  C   C2287     1.0  0.38407  0.55218  0.02817  1.0000
  C   C2288     1.0  0.47662  0.72216  0.98271  1.0000
  H   H4076     1.0  0.58053  0.88763  0.05690  1.0000
  H   H4077     1.0  0.57814  0.69003  0.20515  1.0000
  H   H4078     1.0  0.47971  0.64072  0.98687  1.0000
  C   C2289     1.0  0.57942  0.90298  0.97989  1.0000
  C   C2290     1.0  0.50177  0.62590  0.00103  1.0000
  H   H4079     1.0  0.51327  0.63284  0.00103  1.0000
  C   C2291     1.0  0.40532  0.65914  0.47870  1.0000
  C   C2292     1.0  0.49507  0.65923  0.99643  1.0000
  C   C2293     1.0  0.58280  0.78597  0.13998  1.0000
  H   H4080     1.0  0.38368  0.57691  0.22630  1.0000
  H   H4081     1.0  0.38349  0.54644  0.05039  1.0000
  H   H4082     1.0  0.38322  0.93386  0.13806  1.0000
  S   S512      1.0  0.56960  0.79638  0.65110  1.0000
  Fe  Fe253     1.0  0.55355  0.77956  0.59369  1.0000
  S   S513      1.0  0.53862  0.77650  0.63713  1.0000
  S   S514      1.0  0.54646  0.77035  0.55764  1.0000
  Fe  Fe254     1.0  0.55026  0.80143  0.63257  1.0000
  S   S515      1.0  0.53635  0.81808  0.64471  1.0000
  Fe  Fe255     1.0  0.55899  0.77161  0.65247  1.0000
  S   S516      1.0  0.55410  0.75315  0.69354  1.0000
  S   S517      1.0  0.56365  0.80508  0.58768  1.0000
  S   S518      1.0  0.57348  0.77300  0.60938  1.0000
  H   H4083     1.0  0.49672  0.65337  0.68034  1.0000
  H   H4084     1.0  0.40129  0.54972  0.75624  1.0000
  H   H4085     1.0  0.45826  0.78305  0.54750  1.0000
  Fe  Fe256     1.0  0.44583  0.93070  0.61643  1.0000
  S   S519      1.0  0.44417  0.91539  0.65883  1.0000
  S   S520      1.0  0.45688  0.95701  0.60474  1.0000
  Fe  Fe257     1.0  0.43041  0.90253  0.59596  1.0000
  S   S521      1.0  0.42831  0.88558  0.63713  1.0000
  S   S522      1.0  0.42284  0.89533  0.55824  1.0000
  Fe  Fe258     1.0  0.42053  0.90336  0.65742  1.0000
  S   S523      1.0  0.40169  0.89585  0.69820  1.0000
  Fe  Fe259     1.0  0.45216  0.89908  0.63498  1.0000
  S   S524      1.0  0.46981  0.88641  0.64641  1.0000
  S   S525      1.0  0.42121  0.91989  0.61654  1.0000
  S   S526      1.0  0.45518  0.91487  0.59204  1.0000
  Fe  Fe260     1.0  0.44669  0.53075  0.68495  1.0000
  S   S527      1.0  0.43290  0.53927  0.71821  1.0000
  S   S528      1.0  0.45871  0.51350  0.70504  1.0000
  Fe  Fe261     1.0  0.43608  0.54999  0.63833  1.0000
  S   S529      1.0  0.42141  0.55949  0.66866  1.0000
  S   S530      1.0  0.43999  0.55861  0.59066  1.0000
  Fe  Fe262     1.0  0.44169  0.56283  0.68780  1.0000
  S   S531      1.0  0.44822  0.58523  0.70081  1.0000
  Fe  Fe263     1.0  0.41389  0.53504  0.69656  1.0000
  H   H4086     1.0  0.52333  0.94703  0.60812  1.0000
  S   S532      1.0  0.45695  0.55482  0.65579  1.0000
  S   S533      1.0  0.42715  0.52509  0.66489  1.0000
  H   H4087     1.0  0.42191  0.58181  0.61068  1.0000
  H   H4088     1.0  0.48223  0.93507  0.60636  1.0000
  C   C2294     1.0  0.38561  0.79253  0.94786  1.0000
  H   H4089     1.0  0.51456  0.93343  0.64128  1.0000
  S   S534      1.0  0.44715  0.71421  0.52195  1.0000
  S   S535      1.0  0.42249  0.74386  0.50857  1.0000
  Fe  Fe264     1.0  0.47185  0.72840  0.51187  1.0000
  S   S536      1.0  0.48227  0.73047  0.54940  1.0000
  H   H4090     1.0  0.39365  0.61838  0.53300  1.0000
  H   H4091     1.0  0.52843  0.98179  0.63957  1.0000
  C   C2295     1.0  0.48625  0.98753  0.64796  1.0000
  S   S537      1.0  0.38640  0.55782  0.52723  1.0000
  Fe  Fe265     1.0  0.52301  0.89382  0.74550  1.0000
  S   S538      1.0  0.51792  0.86889  0.74458  1.0000
  S   S539      1.0  0.51286  0.91109  0.72042  1.0000
  Fe  Fe266     1.0  0.54005  0.88855  0.79186  1.0000
  S   S540      1.0  0.53579  0.86298  0.79495  1.0000
  H   H4092     1.0  0.53509  0.93094  0.65610  1.0000
  Fe  Fe267     1.0  0.54220  0.87028  0.74747  1.0000
  S   S541      1.0  0.55785  0.85778  0.72560  1.0000
  Fe  Fe268     1.0  0.51192  0.86369  0.79183  1.0000
  S   S542      1.0  0.48924  0.84640  0.81541  1.0000
  S   S543      1.0  0.54818  0.89593  0.74426  1.0000
  S   S544      1.0  0.51542  0.88858  0.79292  1.0000
  Fe  Fe269     1.0  0.53005  0.66402  0.73101  1.0000
  S   S545      1.0  0.54024  0.64353  0.74017  1.0000
  S   S546      1.0  0.54089  0.68286  0.69011  1.0000
  Fe  Fe270     1.0  0.50354  0.65079  0.78374  1.0000
  S   S547      1.0  0.51147  0.62935  0.79701  1.0000
  S   S548      1.0  0.48169  0.65478  0.80781  1.0000
  Fe  Fe271     1.0  0.53520  0.64556  0.78493  1.0000
  S   S549      1.0  0.54940  0.64265  0.81705  1.0000
  Fe  Fe272     1.0  0.51563  0.62916  0.75135  1.0000
  S   S550      1.0  0.50905  0.60604  0.74094  1.0000
  S   S551      1.0  0.52682  0.66718  0.77498  1.0000
  S   S552      1.0  0.50592  0.64951  0.73882  1.0000
  H   H4093     1.0  0.39662  0.49077  0.61605  1.0000
  C   C2296     1.0  0.39031  0.71543  0.97507  1.0000
  H   H4094     1.0  0.49857  0.95756  0.61493  1.0000
  H   H4095     1.0  0.54704  0.51913  0.71530  1.0000
  H   H4096     1.0  0.40179  0.49995  0.70308  1.0000
  S   S553      1.0  0.48820  0.79453  0.92240  1.0000
  C   C2297     1.0  0.53894  0.95650  0.64233  1.0000
  S   S554      1.0  0.46755  0.74948  0.48529  1.0000
  H   H4097     1.0  0.40454  0.63420  0.57304  1.0000
  H   H4098     1.0  0.53327  0.49597  0.72038  1.0000
  H   H4099     1.0  0.41865  0.86278  0.69559  1.0000
  H   H4100     1.0  0.53701  0.94053  0.68355  1.0000
  S   S555      1.0  0.46268  0.62598  0.93999  1.0000
  S   S556      1.0  0.42346  0.64141  0.95132  1.0000
  H   H4101     1.0  0.38841  0.84171  0.59107  1.0000
  S   S557      1.0  0.43179  0.68520  0.95210  1.0000
  C   C2298     1.0  0.41075  0.87669  0.52728  1.0000
  C   C2299     1.0  0.48985  0.67123  0.97681  1.0000
  H   H4102     1.0  0.43962  0.71851  0.93436  1.0000
  C   C2300     1.0  0.47578  0.64512  0.84400  1.0000
  C   C2301     1.0  0.46139  0.64529  0.86005  1.0000
  C   C2302     1.0  0.45716  0.63926  0.88955  1.0000
  C   C2303     1.0  0.46714  0.63263  0.90299  1.0000
  C   C2304     1.0  0.48115  0.63165  0.88675  1.0000
  C   C2305     1.0  0.48556  0.63806  0.85733  1.0000
  H   H4103     1.0  0.45367  0.65046  0.84970  1.0000
  H   H4104     1.0  0.44619  0.63976  0.90187  1.0000
  H   H4105     1.0  0.48888  0.62645  0.89706  1.0000
  H   H4106     1.0  0.49676  0.63803  0.84522  1.0000
  C   C2306     1.0  0.56961  0.65024  0.80789  1.0000
  H   H4107     1.0  0.39235  0.61209  0.56946  1.0000
  C   C2307     1.0  0.51865  0.96283  0.69308  1.0000
  C   C2308     1.0  0.48910  0.83171  0.84456  1.0000
  C   C2309     1.0  0.47506  0.82366  0.86434  1.0000
  C   C2310     1.0  0.47470  0.81221  0.88833  1.0000
  C   C2311     1.0  0.48835  0.80847  0.89214  1.0000
  C   C2312     1.0  0.50233  0.81618  0.87188  1.0000
  C   C2313     1.0  0.50273  0.82797  0.84836  1.0000
  H   H4108     1.0  0.46446  0.82652  0.86148  1.0000
  H   H4109     1.0  0.46386  0.80628  0.90387  1.0000
  H   H4110     1.0  0.51290  0.81330  0.87479  1.0000
  H   H4111     1.0  0.51359  0.83419  0.83326  1.0000
  C   C2314     1.0  0.56590  0.92658  0.79341  1.0000
  H   H4112     1.0  0.55899  0.92454  0.77880  1.0000
  H   H4113     1.0  0.39883  0.60381  0.95063  1.0000
  H   H4114     1.0  0.48084  0.96670  0.68194  1.0000
  H   H4115     1.0  0.40761  0.60971  0.60180  1.0000
  H   H4116     1.0  0.57614  0.83492  0.61376  1.0000
  H   H4117     1.0  0.49888  0.68240  0.96936  1.0000
  C   C2315     1.0  0.40570  0.76538  0.50027  1.0000
  C   C2316     1.0  0.47915  0.97171  0.66156  1.0000
  H   H4118     1.0  0.49680  0.95554  0.72552  1.0000
  H   H4119     1.0  0.54492  0.88248  0.88463  1.0000
  H   H4120     1.0  0.38579  0.54752  0.58574  1.0000
  C   C2317     1.0  0.42488  0.55896  0.57361  1.0000
  C   C2318     1.0  0.42856  0.56539  0.54417  1.0000
  C   C2319     1.0  0.41687  0.56544  0.52974  1.0000
  C   C2320     1.0  0.40141  0.55893  0.54463  1.0000
  C   C2321     1.0  0.39773  0.55261  0.57409  1.0000
  C   C2322     1.0  0.40939  0.55279  0.58860  1.0000
  H   H4121     1.0  0.44053  0.57015  0.53243  1.0000
  H   H4122     1.0  0.41980  0.57003  0.50702  1.0000
  H   H4123     1.0  0.40643  0.54792  0.61128  1.0000
  H   H4124     1.0  0.51562  0.49377  0.76711  1.0000
  C   C2323     1.0  0.46550  0.59088  0.71092  1.0000
  C   C2324     1.0  0.47453  0.58055  0.71712  1.0000
  C   C2325     1.0  0.48788  0.58535  0.72617  1.0000
  C   C2326     1.0  0.49235  0.60052  0.72901  1.0000
  C   C2327     1.0  0.48341  0.61087  0.72254  1.0000
  C   C2328     1.0  0.47002  0.60605  0.71367  1.0000
  H   H4125     1.0  0.47116  0.56883  0.71512  1.0000
  H   H4126     1.0  0.49476  0.57728  0.73103  1.0000
  H   H4127     1.0  0.48683  0.62262  0.72424  1.0000
  H   H4128     1.0  0.46314  0.61412  0.70879  1.0000
  C   C2329     1.0  0.41175  0.87766  0.55456  1.0000
  C   C2330     1.0  0.40362  0.86488  0.57755  1.0000
  Fe  Fe273     1.0  0.38624  0.57417  0.48605  1.0000
  H   H4129     1.0  0.47300  0.98939  0.58864  1.0000
  H   H4130     1.0  0.51128  0.87838  0.91674  1.0000
  C   C2331     1.0  0.55378  0.85120  0.86058  1.0000
  H   H4131     1.0  0.40421  0.86537  0.59873  1.0000
  H   H4132     1.0  0.38593  0.51228  0.59758  1.0000
  C   C2332     1.0  0.48190  0.89362  0.66645  1.0000
  C   C2333     1.0  0.48069  0.90686  0.67572  1.0000
  C   C2334     1.0  0.49001  0.91196  0.69268  1.0000
  C   C2335     1.0  0.50090  0.90407  0.69997  1.0000
  C   C2336     1.0  0.50230  0.89097  0.69032  1.0000
  C   C2337     1.0  0.49277  0.88573  0.67374  1.0000
  H   H4133     1.0  0.47256  0.91318  0.66987  1.0000
  H   H4134     1.0  0.48862  0.92193  0.70041  1.0000
  H   H4135     1.0  0.51091  0.88504  0.69511  1.0000
  H   H4136     1.0  0.49392  0.87560  0.66629  1.0000
  C   C2338     1.0  0.46998  0.96226  0.64895  1.0000
  C   C2339     1.0  0.39462  0.85147  0.57311  1.0000
  C   C2340     1.0  0.39512  0.78861  0.96553  1.0000
  H   H4137     1.0  0.44015  0.80063  0.55438  1.0000
  H   H4138     1.0  0.41181  0.58906  0.63782  1.0000
  C   C2341     1.0  0.39500  0.55890  0.75708  1.0000
  H   H4139     1.0  0.56020  0.70162  0.81470  1.0000
  C   C2342     1.0  0.47251  0.50503  0.65795  1.0000
  H   H4140     1.0  0.54720  0.85861  0.89814  1.0000
  H   H4141     1.0  0.55590  0.81417  0.68328  1.0000
  H   H4142     1.0  0.46821  0.51358  0.64545  1.0000
  H   H4143     1.0  0.56825  0.61846  0.80868  1.0000
  H   H4144     1.0  0.57489  0.92954  0.95360  1.0000
  H   H4145     1.0  0.41564  0.81623  0.49350  1.0000
  H   H4146     1.0  0.53773  0.87647  0.92281  1.0000
  H   H4147     1.0  0.46473  0.95013  0.65962  1.0000
  C   C2343     1.0  0.52822  0.75999  0.55547  1.0000
  C   C2344     1.0  0.51455  0.75727  0.57650  1.0000
  C   C2345     1.0  0.50051  0.74853  0.57402  1.0000
  C   C2346     1.0  0.49985  0.74278  0.55017  1.0000
  C   C2347     1.0  0.51349  0.74564  0.52904  1.0000
  C   C2348     1.0  0.52757  0.75403  0.53188  1.0000
  H   H4148     1.0  0.51482  0.76179  0.59476  1.0000
  H   H4149     1.0  0.49007  0.74624  0.59067  1.0000
  H   H4150     1.0  0.51326  0.74085  0.51108  1.0000
  H   H4151     1.0  0.53812  0.75561  0.51605  1.0000
  C   C2349     1.0  0.54978  0.73374  0.69195  1.0000
  C   C2350     1.0  0.55473  0.72978  0.66672  1.0000
  C   C2351     1.0  0.55198  0.71409  0.66646  1.0000
  C   C2352     1.0  0.54388  0.70236  0.69116  1.0000
  C   C2353     1.0  0.53859  0.70635  0.71620  1.0000
  C   C2354     1.0  0.54172  0.72201  0.71667  1.0000
  H   H4152     1.0  0.56103  0.73878  0.64761  1.0000
  H   H4153     1.0  0.55628  0.71104  0.64715  1.0000
  H   H4154     1.0  0.53221  0.69739  0.73524  1.0000
  H   H4155     1.0  0.53784  0.72506  0.73619  1.0000
  C   C2355     1.0  0.54136  0.82829  0.66906  1.0000
  C   C2356     1.0  0.53518  0.84089  0.67246  1.0000
  C   C2357     1.0  0.53971  0.84975  0.69061  1.0000
  C   C2358     1.0  0.55047  0.84602  0.70534  1.0000
  C   C2359     1.0  0.55610  0.83304  0.70288  1.0000
  C   C2360     1.0  0.55151  0.82416  0.68492  1.0000
  H   H4156     1.0  0.52720  0.84408  0.66044  1.0000
  H   H4157     1.0  0.53532  0.85977  0.69236  1.0000
  H   H4158     1.0  0.56401  0.82983  0.71501  1.0000
  H   H4159     1.0  0.44772  0.85714  0.54327  1.0000
  H   H4160     1.0  0.54817  0.51232  0.59291  1.0000
  C   C2361     1.0  0.46862  0.68588  0.86150  1.0000
  H   H4161     1.0  0.43529  0.65885  0.54423  1.0000
  H   H4162     1.0  0.47001  0.71950  0.91565  1.0000
  H   H4163     1.0  0.51211  0.94037  0.68457  1.0000
  C   C2362     1.0  0.41055  0.59956  0.59542  1.0000
  C   C2363     1.0  0.56779  0.49106  0.69845  1.0000
  C   C2364     1.0  0.50169  0.62867  0.96931  1.0000
  H   H4164     1.0  0.43153  0.85508  0.52793  1.0000
  C   C2365     1.0  0.48021  0.71681  0.87407  1.0000
  H   H4165     1.0  0.50291  0.55394  0.65527  1.0000
  H   H4166     1.0  0.43575  0.91779  0.49417  1.0000
  H   H4167     1.0  0.39448  0.80265  0.52468  1.0000
  H   H4168     1.0  0.39517  0.80770  0.55729  1.0000
  H   H4169     1.0  0.50103  0.68669  0.83329  1.0000
  C   C2366     1.0  0.55464  0.69202  0.80677  1.0000
  H   H4170     1.0  0.49450  0.92299  0.61697  1.0000
  C   C2367     1.0  0.49916  0.94580  0.62555  1.0000
  C   C2368     1.0  0.50731  0.71232  0.78864  1.0000
  H   H4171     1.0  0.51880  0.49929  0.66341  1.0000
  H   H4172     1.0  0.45966  0.77504  0.51743  1.0000
  H   H4173     1.0  0.38700  0.71307  0.95593  1.0000
  C   C2369     1.0  0.51964  0.87598  0.89972  1.0000
  H   H4174     1.0  0.41592  0.59697  0.51653  1.0000
  H   H4175     1.0  0.50090  0.95326  0.67507  1.0000
  C   C2370     1.0  0.43262  0.69921  0.97165  1.0000
  C   C2371     1.0  0.54161  0.85093  0.88678  1.0000
  N   N129      1.0  0.48422  0.69025  0.86744  1.0000
  H   H4176     1.0  0.46625  0.69591  0.84780  1.0000
  H   H4177     1.0  0.41756  0.63730  0.51990  1.0000
  H   H4178     1.0  0.48461  0.69722  0.80656  1.0000
  C   C2372     1.0  0.43677  0.71505  0.95724  1.0000
  H   H4179     1.0  0.44814  0.83781  0.51525  1.0000
  H   H4180     1.0  0.48999  0.57380  0.82577  1.0000
  H   H4181     1.0  0.54522  0.95780  0.62008  1.0000
  H   H4182     1.0  0.45115  0.81282  0.52105  1.0000
  C   C2373     1.0  0.54127  0.94152  0.66066  1.0000
  Fe  Fe274     1.0  0.43297  0.79050  0.97480  1.0000
  C   C2374     1.0  0.51297  0.95265  0.67420  1.0000
  H   H4183     1.0  0.46856  0.67707  0.84912  1.0000
  C   C2375     1.0  0.48477  0.70166  0.88531  1.0000
  C   C2376     1.0  0.50578  0.66156  0.90228  1.0000
  H   H4184     1.0  0.41085  0.83809  0.95760  1.0000
  C   C2377     1.0  0.47912  0.72621  0.89604  1.0000
  H   H4185     1.0  0.47738  0.69595  0.90723  1.0000
  C   C2378     1.0  0.50288  0.67740  0.89125  1.0000
  C   C2379     1.0  0.53590  0.88286  0.90281  1.0000
  C   C2380     1.0  0.41246  0.79518  0.54355  1.0000
  H   H4186     1.0  0.56049  0.54726  0.70132  1.0000
  H   H4187     1.0  0.51051  0.94428  0.73237  1.0000
  H   H4188     1.0  0.51266  0.68395  0.87269  1.0000
  C   C2381     1.0  0.57328  0.61585  0.78865  1.0000
  H   H4189     1.0  0.49025  0.62383  0.96634  1.0000
  H   H4190     1.0  0.45484  0.66846  0.90140  1.0000
  H   H4191     1.0  0.40310  0.71751  0.96962  1.0000
  H   H4192     1.0  0.55821  0.86317  0.84628  1.0000
  C   C2382     1.0  0.42117  0.63057  0.53760  1.0000
  C   C2383     1.0  0.44051  0.80337  0.53141  1.0000
  H   H4193     1.0  0.44228  0.62683  0.49320  1.0000
  H   H4194     1.0  0.38760  0.75303  0.95726  1.0000
  H   H4195     1.0  0.39005  0.90716  0.55925  1.0000
  C   C2384     1.0  0.41802  0.75985  0.48806  1.0000
  H   H4196     1.0  0.53692  0.90688  0.88272  1.0000
  H   H4197     1.0  0.49579  0.65398  0.91966  1.0000
  H   H4198     1.0  0.47820  0.67043  0.90440  1.0000
  H   H4199     1.0  0.53275  0.49639  0.61623  1.0000
  H   H4200     1.0  0.43793  0.68766  0.86631  1.0000
  H   H4201     1.0  0.47605  0.73713  0.88743  1.0000
  H   H4202     1.0  0.54996  0.90460  0.90480  1.0000
  H   H4203     1.0  0.55124  0.50093  0.62444  1.0000
  H   H4204     1.0  0.43398  0.63361  0.53125  1.0000
  H   H4205     1.0  0.41334  0.57475  0.72217  1.0000
  H   H4206     1.0  0.56722  0.69078  0.71586  1.0000
  N   N130      1.0  0.44244  0.88484  0.74637  1.0000
  C   C2385     1.0  0.45736  0.88039  0.74764  1.0000
  C   C2386     1.0  0.43684  0.87953  0.72278  1.0000
  C   C2387     1.0  0.44598  0.90239  0.73855  1.0000
  C   C2388     1.0  0.43017  0.87841  0.77418  1.0000
  C   C2389     1.0  0.43027  0.86257  0.79328  1.0000
  C   C2390     1.0  0.46623  0.88749  0.76709  1.0000
  C   C2391     1.0  0.43219  0.90959  0.73557  1.0000
  C   C2392     1.0  0.43259  0.86180  0.72607  1.0000
  C   C2393     1.0  0.56607  0.88270  0.64127  1.0000
  C   C2394     1.0  0.41561  0.85613  0.81759  1.0000
  C   C2395     1.0  0.47775  0.87849  0.77505  1.0000
  C   C2396     1.0  0.43701  0.92725  0.73021  1.0000
  H   H4207     1.0  0.46542  0.88394  0.72613  1.0000
  H   H4208     1.0  0.45550  0.86761  0.75421  1.0000
  H   H4209     1.0  0.42621  0.88318  0.72036  1.0000
  H   H4210     1.0  0.44565  0.88518  0.70216  1.0000
  H   H4211     1.0  0.45519  0.90741  0.71836  1.0000
  H   H4212     1.0  0.45060  0.90703  0.75481  1.0000
  H   H4213     1.0  0.43104  0.88668  0.78766  1.0000
  H   H4214     1.0  0.41849  0.87740  0.77025  1.0000
  H   H4215     1.0  0.44022  0.86398  0.80280  1.0000
  H   H4216     1.0  0.43120  0.85368  0.78151  1.0000
  H   H4217     1.0  0.47286  0.89965  0.75589  1.0000
  H   H4218     1.0  0.45825  0.88768  0.78688  1.0000
  H   H4219     1.0  0.42246  0.90488  0.75491  1.0000
  H   H4220     1.0  0.42791  0.90729  0.71741  1.0000
  H   H4221     1.0  0.44223  0.85658  0.72944  1.0000
  H   H4222     1.0  0.42219  0.85607  0.74392  1.0000
  Fe  Fe275     1.0  0.44341  0.73502  0.49310  1.0000
  H   H4223     1.0  0.43867  0.86331  0.68094  1.0000
  Fe  Fe276     1.0  0.42901  0.65994  0.97403  1.0000
  H   H4224     1.0  0.41440  0.86447  0.83068  1.0000
  H   H4225     1.0  0.40527  0.85377  0.80925  1.0000
  H   H4226     1.0  0.41618  0.84505  0.83133  1.0000
  H   H4227     1.0  0.48670  0.87910  0.75587  1.0000
  H   H4228     1.0  0.44658  0.93250  0.71063  1.0000
  H   H4229     1.0  0.42707  0.93212  0.72736  1.0000
  H   H4230     1.0  0.44077  0.93047  0.74838  1.0000
  N   N131      1.0  0.50167  0.81361  0.75360  1.0000
  C   C2397     1.0  0.51756  0.81494  0.75846  1.0000
  C   C2398     1.0  0.50034  0.80619  0.72950  1.0000
  C   C2399     1.0  0.49975  0.82990  0.74481  1.0000
  C   C2400     1.0  0.48903  0.80496  0.78013  1.0000
  C   C2401     1.0  0.49024  0.78892  0.79616  1.0000
  C   C2402     1.0  0.52082  0.82278  0.78195  1.0000
  C   C2403     1.0  0.48484  0.83134  0.73531  1.0000
  C   C2404     1.0  0.50910  0.79347  0.72624  1.0000
  C   C2405     1.0  0.50476  0.78544  0.70404  1.0000
  C   C2406     1.0  0.47836  0.78294  0.82495  1.0000
  C   C2407     1.0  0.53635  0.82152  0.78769  1.0000
  C   C2408     1.0  0.48431  0.84831  0.72685  1.0000
  H   H4231     1.0  0.52640  0.82158  0.73852  1.0000
  H   H4232     1.0  0.52010  0.80344  0.76368  1.0000
  H   H4233     1.0  0.48799  0.80128  0.73069  1.0000
  H   H4234     1.0  0.50504  0.81517  0.70873  1.0000
  H   H4235     1.0  0.50978  0.83725  0.72715  1.0000
  H   H4236     1.0  0.49965  0.83552  0.76250  1.0000
  H   H4237     1.0  0.48809  0.81226  0.79540  1.0000
  H   H4238     1.0  0.47760  0.80288  0.77526  1.0000
  H   H4239     1.0  0.50172  0.78937  0.80033  1.0000
  H   H4240     1.0  0.48780  0.78034  0.78389  1.0000
  H   H4241     1.0  0.52121  0.83530  0.77562  1.0000
  H   H4242     1.0  0.51185  0.81713  0.80204  1.0000
  H   H4243     1.0  0.47438  0.82508  0.75272  1.0000
  H   H4244     1.0  0.48424  0.82664  0.71674  1.0000
  H   H4245     1.0  0.52176  0.79883  0.71896  1.0000
  H   H4246     1.0  0.50675  0.78446  0.74633  1.0000
  H   H4247     1.0  0.51173  0.77693  0.70124  1.0000
  H   H4248     1.0  0.49234  0.77918  0.71075  1.0000
  H   H4249     1.0  0.50721  0.79408  0.68327  1.0000
  H   H4250     1.0  0.48059  0.79088  0.83858  1.0000
  H   H4251     1.0  0.46647  0.78198  0.82235  1.0000
  H   H4252     1.0  0.47915  0.77127  0.83587  1.0000
  H   H4253     1.0  0.54586  0.82693  0.76812  1.0000
  H   H4254     1.0  0.53859  0.82767  0.80394  1.0000
  H   H4255     1.0  0.53631  0.80916  0.79569  1.0000
  H   H4256     1.0  0.47382  0.84917  0.71936  1.0000
  H   H4257     1.0  0.48396  0.85333  0.74526  1.0000
  H   H4258     1.0  0.49461  0.85518  0.70945  1.0000
  H   H4259     1.0  0.42885  0.84623  0.56515  1.0000
  C   C2409     1.0  0.41808  0.67029  0.48029  1.0000
  C   C2410     1.0  0.50993  0.82231  0.96261  1.0000
  H   H4260     1.0  0.55390  0.62024  0.77257  1.0000
  C   C2411     1.0  0.44312  0.78902  0.52073  1.0000
  H   H4261     1.0  0.43034  0.93583  0.48621  1.0000
  H   H4262     1.0  0.48781  0.66724  0.95812  1.0000
  S   S558      1.0  0.55174  0.89614  0.82435  1.0000
  S   S559      1.0  0.39097  0.52260  0.72878  1.0000
  C   C2412     1.0  0.43771  0.61404  0.50119  1.0000
  C   C2413     1.0  0.55834  0.94161  0.65521  1.0000
  H   H4263     1.0  0.57138  0.85452  0.64909  1.0000
  H   H4264     1.0  0.47180  0.86616  0.78612  1.0000
  C   C2414     1.0  0.58051  0.50396  0.69259  1.0000
  H   H4265     1.0  0.43815  0.59449  0.48256  1.0000
  C   C2415     1.0  0.43936  0.67669  0.87891  1.0000
  C   C2416     1.0  0.58027  0.49855  0.74211  1.0000
  H   H4266     1.0  0.51323  0.62415  0.93066  1.0000
  H   H4267     1.0  0.41216  0.78522  0.53401  1.0000
  H   H4268     1.0  0.41725  0.82869  0.52903  1.0000
  H   H4269     1.0  0.56501  0.95179  0.66029  1.0000
  C   C2417     1.0  0.57371  0.91746  0.83596  1.0000
  H   H4270     1.0  0.51332  0.96367  0.73694  1.0000
  C   C2418     1.0  0.42270  0.65498  0.55462  1.0000
  H   H4271     1.0  0.51593  0.72093  0.79391  1.0000
  C   C2419     1.0  0.41458  0.76274  0.91816  1.0000
  H   H4272     1.0  0.53691  0.50195  0.67124  1.0000
  H   H4273     1.0  0.40114  0.86288  0.50168  1.0000
  H   H4274     1.0  0.41536  0.75091  0.95950  1.0000
  Fe  Fe277     1.0  0.44330  0.63357  0.96441  1.0000
  C   C2420     1.0  0.38834  0.49429  0.63148  1.0000
  H   H4275     1.0  0.56362  0.84740  0.86702  1.0000
  H   H4276     1.0  0.50385  0.80988  0.96683  1.0000
  H   H4277     1.0  0.38763  0.73937  0.93658  1.0000
  C   C2421     1.0  0.41997  0.60964  0.51413  1.0000
  H   H4278     1.0  0.41335  0.79081  0.56558  1.0000
  H   H4279     1.0  0.55990  0.67987  0.77560  1.0000
  H   H4280     1.0  0.51729  0.97477  0.68597  1.0000
  H   H4281     1.0  0.41438  0.73903  0.93519  1.0000
  H   H4282     1.0  0.46179  0.85548  0.91735  1.0000
  H   H4283     1.0  0.54819  0.73842  0.56138  1.0000
  H   H4284     1.0  0.49033  0.72928  0.90142  1.0000
  H   H4285     1.0  0.50409  0.71832  0.76979  1.0000
  H   H4286     1.0  0.38842  0.89335  0.53844  1.0000
  H   H4287     1.0  0.50187  0.93925  0.58570  1.0000
  H   H4288     1.0  0.48773  0.71485  0.81773  1.0000
  H   H4289     1.0  0.44597  0.63803  0.75733  1.0000
  C   C2422     1.0  0.46780  0.96848  0.62238  1.0000
  H   H4290     1.0  0.42951  0.67211  0.89813  1.0000
  Fe  Fe278     1.0  0.58249  0.79843  0.60665  1.0000
  H   H4291     1.0  0.47449  0.62971  0.77374  1.0000
  H   H4292     1.0  0.40932  0.76059  0.90078  1.0000
  H   H4293     1.0  0.49055  0.94174  0.64640  1.0000
  H   H4294     1.0  0.51012  0.60873  0.96209  1.0000
  H   H4295     1.0  0.40065  0.51876  0.61448  1.0000
  H   H4296     1.0  0.48912  0.72417  0.85477  1.0000
  H   H4297     1.0  0.52247  0.82326  0.95975  1.0000
  C   C2423     1.0  0.38639  0.82850  0.96185  1.0000
  H   H4298     1.0  0.48238  0.71584  0.96885  1.0000
  H   H4299     1.0  0.50499  0.64129  0.95889  1.0000
  C   C2424     1.0  0.40975  0.74816  0.94294  1.0000
  C   C2425     1.0  0.40176  0.86335  0.52282  1.0000
  C   C2426     1.0  0.51329  0.62155  0.95337  1.0000
  H   H4300     1.0  0.56316  0.94193  0.63278  1.0000
  H   H4301     1.0  0.54882  0.84326  0.84882  1.0000
  C   C2427     1.0  0.53816  0.89993  0.90289  1.0000
  H   H4302     1.0  0.56410  0.95228  0.94785  1.0000
  H   H4303     1.0  0.50743  0.65770  0.64394  1.0000
  H   H4304     1.0  0.50306  0.68362  0.90806  1.0000
  H   H4305     1.0  0.41696  0.88646  0.50955  1.0000
  N   N132      1.0  0.41457  0.61340  0.54196  1.0000
  C   C2428     1.0  0.50920  0.95612  0.72386  1.0000
  C   C2429     1.0  0.45449  0.67960  0.88772  1.0000
  C   C2430     1.0  0.40293  0.83615  0.94387  1.0000
  H   H4306     1.0  0.45931  0.64977  0.77146  1.0000
  C   C2431     1.0  0.38888  0.51120  0.61824  1.0000
  S   S560      1.0  0.44374  0.77356  0.95627  1.0000
  H   H4307     1.0  0.57075  0.64607  0.85135  1.0000
  H   H4308     1.0  0.41912  0.81842  0.56195  1.0000
  H   H4309     1.0  0.54274  0.74048  0.48003  1.0000
  H   H4310     1.0  0.51869  0.88300  0.87923  1.0000
  C   C2432     1.0  0.43680  0.84906  0.54369  1.0000
  H   H4311     1.0  0.50706  0.85349  0.94660  1.0000
  H   H4312     1.0  0.42309  0.63291  0.57942  1.0000
  H   H4313     1.0  0.43004  0.60082  0.61450  1.0000
  H   H4314     1.0  0.39227  0.78225  0.49422  1.0000
  C   C2433     1.0  0.48705  0.67560  0.88385  1.0000
  H   H4315     1.0  0.39921  0.75979  0.52197  1.0000
  Fe  Fe279     1.0  0.45397  0.70614  0.48264  1.0000
  H   H4316     1.0  0.39351  0.58459  0.56023  1.0000
  H   H4317     1.0  0.50720  0.70408  0.84308  1.0000
  H   H4318     1.0  0.45400  0.68810  0.90051  1.0000
  H   H4319     1.0  0.48349  0.88366  0.78956  1.0000
  C   C2434     1.0  0.45827  0.78548  0.52478  1.0000
  C   C2435     1.0  0.42598  0.81208  0.49633  1.0000
  C   C2436     1.0  0.51554  0.94552  0.62929  1.0000
  H   H4320     1.0  0.39629  0.94581  0.66071  1.0000
  N   N133      1.0  0.51561  0.85892  0.90091  1.0000
  C   C2437     1.0  0.52740  0.85560  0.87843  1.0000
  C   C2438     1.0  0.50045  0.85539  0.89298  1.0000
  H   H4321     1.0  0.54196  0.97943  0.59264  1.0000
  C   C2439     1.0  0.51414  0.84934  0.93035  1.0000
  H   H4322     1.0  0.43377  0.77844  0.53258  1.0000
  C   C2440     1.0  0.39719  0.61009  0.54876  1.0000
  H   H4323     1.0  0.42624  0.49454  0.71241  1.0000
  C   C2441     1.0  0.48650  0.85878  0.91187  1.0000
  C   C2442     1.0  0.47147  0.85209  0.90491  1.0000
  C   C2443     1.0  0.46924  0.50259  0.68732  1.0000
  H   H4324     1.0  0.39960  0.92673  0.66642  1.0000
  H   H4325     1.0  0.42733  0.76615  0.90983  1.0000
  C   C2444     1.0  0.38870  0.59352  0.54896  1.0000
  H   H4326     1.0  0.52204  0.84587  0.87060  1.0000
  H   H4327     1.0  0.50183  0.86206  0.87074  1.0000
  H   H4328     1.0  0.49708  0.84303  0.89263  1.0000
  C   C2445     1.0  0.39190  0.74271  0.95424  1.0000
  C   C2446     1.0  0.49292  0.70534  0.81349  1.0000
  H   H4329     1.0  0.52547  0.85099  0.93550  1.0000
  H   H4330     1.0  0.42103  0.59245  0.55972  1.0000
  H   H4331     1.0  0.51176  0.82727  0.91794  1.0000
  H   H4332     1.0  0.49428  0.82934  0.93899  1.0000
  H   H4333     1.0  0.43902  0.66801  0.86633  1.0000
  H   H4334     1.0  0.51024  0.97468  0.63425  1.0000
  H   H4335     1.0  0.55988  0.70588  0.74883  1.0000
  H   H4336     1.0  0.57613  0.68766  0.78809  1.0000
  H   H4337     1.0  0.48510  0.85362  0.93468  1.0000
  H   H4338     1.0  0.48797  0.87151  0.90818  1.0000
  H   H4339     1.0  0.46881  0.83920  0.91056  1.0000
  C   C2447     1.0  0.42858  0.85816  0.69965  1.0000
  H   H4340     1.0  0.47234  0.85651  0.88201  1.0000
  H   H4341     1.0  0.57660  0.95056  0.77068  1.0000
  C   C2448     1.0  0.49422  0.93509  0.60755  1.0000
  H   H4342     1.0  0.38661  0.81755  0.97635  1.0000
  H   H4343     1.0  0.39379  0.66054  0.48549  1.0000
  H   H4344     1.0  0.48744  0.54909  0.68700  1.0000
  C   C2449     1.0  0.43732  0.72647  0.97230  1.0000
  H   H4345     1.0  0.57238  0.65493  0.76303  1.0000
  H   H4346     1.0  0.51626  0.66304  0.91037  1.0000
  H   H4347     1.0  0.44372  0.60959  0.51709  1.0000
  H   H4348     1.0  0.52513  0.62649  0.95482  1.0000
  H   H4349     1.0  0.51262  0.70305  0.78304  1.0000
  N   N134      1.0  0.42627  0.80853  0.52706  1.0000
  H   H4350     1.0  0.48599  0.66666  0.87183  1.0000
  H   H4351     1.0  0.50771  0.65578  0.88490  1.0000
  H   H4352     1.0  0.51692  0.66331  0.66992  1.0000
  C   C2450     1.0  0.44009  0.83434  0.53656  1.0000
  H   H4353     1.0  0.52965  0.90123  0.92099  1.0000
  N   N135      1.0  0.52242  0.95702  0.64393  1.0000
  C   C2451     1.0  0.42491  0.82236  0.53881  1.0000
  H   H4354     1.0  0.57290  0.59269  0.80943  1.0000
  H   H4355     1.0  0.46883  0.71448  0.86922  1.0000
  H   H4356     1.0  0.41467  0.61533  0.49799  1.0000
  Fe  Fe280     1.0  0.46617  0.78871  0.95681  1.0000
  H   H4357     1.0  0.57245  0.67668  0.67884  1.0000
  H   H4358     1.0  0.43234  0.60969  0.56332  1.0000
  H   H4359     1.0  0.49662  0.70534  0.88792  1.0000
  C   C2452     1.0  0.57816  0.65571  0.77965  1.0000
  H   H4360     1.0  0.38522  0.52751  0.95898  1.0000
  C   C2453     1.0  0.56471  0.91461  0.81708  1.0000
  H   H4361     1.0  0.55157  0.60018  0.78985  1.0000
  N   N136      1.0  0.45302  0.60340  0.81980  1.0000
  C   C2454     1.0  0.46931  0.60175  0.81139  1.0000
  C   C2455     1.0  0.45202  0.61927  0.80453  1.0000
  C   C2456     1.0  0.44915  0.60220  0.85121  1.0000
  C   C2457     1.0  0.44139  0.59065  0.81476  1.0000
  C   C2458     1.0  0.44473  0.58758  0.78507  1.0000
  C   C2459     1.0  0.47219  0.58640  0.82712  1.0000
  C   C2460     1.0  0.43383  0.60613  0.86362  1.0000
  C   C2461     1.0  0.46214  0.62635  0.77373  1.0000
  C   C2462     1.0  0.45801  0.64093  0.75928  1.0000
  C   C2463     1.0  0.43343  0.57280  0.78482  1.0000
  C   C2464     1.0  0.48781  0.58430  0.81302  1.0000
  C   C2465     1.0  0.42997  0.60218  0.89595  1.0000
  H   H4362     1.0  0.47748  0.61151  0.81506  1.0000
  H   H4363     1.0  0.47316  0.60292  0.78834  1.0000
  H   H4364     1.0  0.43984  0.61922  0.80462  1.0000
  H   H4365     1.0  0.45570  0.62803  0.81594  1.0000
  H   H4366     1.0  0.45858  0.61007  0.85637  1.0000
  H   H4367     1.0  0.44845  0.59026  0.86357  1.0000
  H   H4368     1.0  0.43967  0.57947  0.83072  1.0000
  H   H4369     1.0  0.42982  0.59309  0.81821  1.0000
  H   H4370     1.0  0.45650  0.58601  0.77829  1.0000
  H   H4371     1.0  0.44313  0.59721  0.76918  1.0000
  H   H4372     1.0  0.47216  0.58648  0.84929  1.0000
  H   H4373     1.0  0.46327  0.57612  0.82739  1.0000
  H   H4374     1.0  0.42394  0.59955  0.85786  1.0000
  H   H4375     1.0  0.43477  0.61872  0.85572  1.0000
  H   H4376     1.0  0.39042  0.80175  0.92849  1.0000
  H   H4377     1.0  0.46088  0.61810  0.76070  1.0000
  H   H4378     1.0  0.53153  0.86568  0.85926  1.0000
  H   H4379     1.0  0.46591  0.64599  0.73771  1.0000
  H   H4380     1.0  0.39705  0.93548  0.69546  1.0000
  H   H4381     1.0  0.42135  0.57370  0.79098  1.0000
  H   H4382     1.0  0.43574  0.57108  0.76316  1.0000
  H   H4383     1.0  0.43485  0.56248  0.79947  1.0000
  C   C2466     1.0  0.49691  0.69643  0.83999  1.0000
  H   H4384     1.0  0.48790  0.58274  0.79158  1.0000
  H   H4385     1.0  0.49728  0.59451  0.81120  1.0000
  H   H4386     1.0  0.43968  0.60804  0.90320  1.0000
  H   H4387     1.0  0.41960  0.60610  0.90412  1.0000
  H   H4388     1.0  0.42745  0.58943  0.90507  1.0000
  N   N137      1.0  0.51138  0.70589  0.62493  1.0000
  C   C2467     1.0  0.51453  0.69012  0.63341  1.0000
  C   C2468     1.0  0.52322  0.71535  0.59792  1.0000
  C   C2469     1.0  0.51222  0.71350  0.64875  1.0000
  C   C2470     1.0  0.49556  0.70457  0.61974  1.0000
  C   C2471     1.0  0.49212  0.69576  0.59747  1.0000
  C   C2472     1.0  0.50173  0.67763  0.65732  1.0000
  C   C2473     1.0  0.51113  0.73062  0.64279  1.0000
  C   C2474     1.0  0.54015  0.71950  0.60008  1.0000
  C   C2475     1.0  0.55128  0.72774  0.57107  1.0000
  C   C2476     1.0  0.47490  0.69195  0.59880  1.0000
  C   C2477     1.0  0.50602  0.66209  0.66315  1.0000
  C   C2478     1.0  0.51177  0.73685  0.66869  1.0000
  H   H4389     1.0  0.52521  0.69112  0.64104  1.0000
  H   H4390     1.0  0.51705  0.68532  0.61478  1.0000
  H   H4391     1.0  0.52306  0.70902  0.58120  1.0000
  H   H4392     1.0  0.52025  0.72634  0.58923  1.0000
  H   H4393     1.0  0.52304  0.71306  0.65538  1.0000
  H   H4394     1.0  0.50276  0.70687  0.66789  1.0000
  H   H4395     1.0  0.48641  0.69927  0.63994  1.0000
  H   H4396     1.0  0.49380  0.71629  0.61182  1.0000
  H   H4397     1.0  0.49554  0.68465  0.60057  1.0000
  H   H4398     1.0  0.49846  0.70311  0.57584  1.0000
  H   H4399     1.0  0.50004  0.68126  0.67731  1.0000
  H   H4400     1.0  0.49057  0.67549  0.65160  1.0000
  H   H4401     1.0  0.50014  0.73172  0.63761  1.0000
  H   H4402     1.0  0.52083  0.73826  0.62501  1.0000
  H   H4403     1.0  0.54157  0.72735  0.61406  1.0000
  H   H4404     1.0  0.54377  0.70894  0.60850  1.0000
  H   H4405     1.0  0.56320  0.73112  0.57339  1.0000
  H   H4406     1.0  0.55104  0.71998  0.55671  1.0000
  H   H4407     1.0  0.46820  0.68341  0.61913  1.0000
  H   H4408     1.0  0.47061  0.70261  0.59680  1.0000
  H   H4409     1.0  0.47291  0.68690  0.58112  1.0000
  H   H4410     1.0  0.51029  0.74886  0.66431  1.0000
  H   H4411     1.0  0.50241  0.72953  0.68742  1.0000
  H   H4412     1.0  0.52310  0.73717  0.67357  1.0000
  N   N138      1.0  0.52388  0.51836  0.68208  1.0000
  C   C2479     1.0  0.52898  0.50843  0.66317  1.0000
  C   C2480     1.0  0.51537  0.50829  0.71158  1.0000
  C   C2481     1.0  0.51280  0.52631  0.66979  1.0000
  C   C2482     1.0  0.53724  0.53085  0.68298  1.0000
  C   C2483     1.0  0.55076  0.52540  0.69251  1.0000
  C   C2484     1.0  0.53710  0.51706  0.63175  1.0000
  C   C2485     1.0  0.50353  0.53455  0.68888  1.0000
  H   H4413     1.0  0.38432  0.78018  0.58424  1.0000
  H   H4414     1.0  0.55116  0.68108  0.82404  1.0000
  C   C2486     1.0  0.56423  0.53926  0.68897  1.0000
  C   C2487     1.0  0.54264  0.50595  0.61543  1.0000
  C   C2488     1.0  0.49475  0.54419  0.67247  1.0000
  C   C2489     1.0  0.56587  0.69015  0.78130  1.0000
  H   H4415     1.0  0.56434  0.79742  0.49804  1.0000
  H   H4416     1.0  0.51547  0.51534  0.72725  1.0000
  S   S561      1.0  0.41469  0.79926  0.95612  1.0000
  H   H4417     1.0  0.50413  0.51777  0.66431  1.0000
  H   H4418     1.0  0.51903  0.53524  0.64957  1.0000
  H   H4419     1.0  0.54203  0.53954  0.66202  1.0000
  H   H4420     1.0  0.53324  0.53762  0.69775  1.0000
  H   H4421     1.0  0.55525  0.51788  0.67994  1.0000
  H   H4422     1.0  0.52903  0.52210  0.62112  1.0000
  H   H4423     1.0  0.54733  0.52646  0.62993  1.0000
  H   H4424     1.0  0.51113  0.54250  0.69717  1.0000
  H   H4425     1.0  0.49488  0.52590  0.70719  1.0000
  H   H4426     1.0  0.54524  0.96657  0.64832  1.0000
  H   H4427     1.0  0.44070  0.73865  0.96103  1.0000
  C   C2490     1.0  0.57100  0.95043  0.96352  1.0000
  H   H4428     1.0  0.57356  0.53509  0.69686  1.0000
  H   H4429     1.0  0.40687  0.82843  0.93110  1.0000
  C   C2491     1.0  0.57589  0.94131  0.78886  1.0000
  H   H4430     1.0  0.40524  0.49939  0.65401  1.0000
  H   H4431     1.0  0.38396  0.77464  0.55167  1.0000
  H   H4432     1.0  0.48710  0.53687  0.66313  1.0000
  C   C2492     1.0  0.42028  0.60379  0.56423  1.0000
  H   H4433     1.0  0.54410  0.69442  0.80096  1.0000
  H   H4434     1.0  0.41398  0.49791  0.74228  1.0000
  C   C2493     1.0  0.56002  0.61090  0.77562  1.0000
  C   C2494     1.0  0.41713  0.63724  0.56334  1.0000
  H   H4435     1.0  0.44613  0.82924  0.55190  1.0000
  H   H4436     1.0  0.53093  0.96360  0.69264  1.0000
  H   H4437     1.0  0.41643  0.66005  0.53975  1.0000
  H   H4438     1.0  0.39713  0.56507  0.71167  1.0000
  H   H4439     1.0  0.56936  0.84002  0.56772  1.0000
  C   C2495     1.0  0.57047  0.70486  0.75593  1.0000
  H   H4440     1.0  0.55598  0.87410  0.63985  1.0000
  H   H4441     1.0  0.50298  0.50374  0.71274  1.0000
  H   H4442     1.0  0.41098  0.77255  0.92521  1.0000
  C   C2496     1.0  0.57729  0.65046  0.82943  1.0000
  H   H4443     1.0  0.52372  0.97163  0.58614  1.0000
  C   C2497     1.0  0.39325  0.93425  0.67618  1.0000
  H   H4444     1.0  0.42533  0.84540  0.70269  1.0000
  H   H4445     1.0  0.39844  0.56510  0.77247  1.0000
  C   C2498     1.0  0.48162  0.49654  0.64468  1.0000
  H   H4446     1.0  0.55960  0.93087  0.66896  1.0000
  C   C2499     1.0  0.50699  0.83167  0.93598  1.0000
  H   H4447     1.0  0.57284  0.90826  0.85431  1.0000
  C   C2500     1.0  0.52221  0.97334  0.63001  1.0000
  C   C2501     1.0  0.40169  0.77803  0.48457  1.0000
  H   H4448     1.0  0.58117  0.62665  0.77383  1.0000
  C   C2502     1.0  0.57857  0.69120  0.72097  1.0000
  C   C2503     1.0  0.52951  0.97915  0.59763  1.0000
  H   H4449     1.0  0.42048  0.65949  0.57359  1.0000
  H   H4450     1.0  0.53805  0.83894  0.90087  1.0000
  H   H4451     1.0  0.44369  0.79100  0.49784  1.0000
  H   H4452     1.0  0.39032  0.89384  0.64903  1.0000
  H   H4453     1.0  0.56904  0.54571  0.66630  1.0000
  C   C2504     1.0  0.47462  0.98438  0.60910  1.0000
  C   C2505     1.0  0.38672  0.59774  0.95733  1.0000
  H   H4454     1.0  0.56445  0.60885  0.75471  1.0000
  H   H4455     1.0  0.54017  0.78954  0.48460  1.0000
  C   C2506     1.0  0.39356  0.85064  0.54573  1.0000
  C   C2507     1.0  0.47493  0.49149  0.70330  1.0000
  H   H4456     1.0  0.46825  0.79537  0.51226  1.0000
  H   H4457     1.0  0.57039  0.85276  0.60551  1.0000
  H   H4458     1.0  0.38757  0.58789  0.92157  1.0000
  H   H4459     1.0  0.39954  0.59085  0.59859  1.0000
  C   C2508     1.0  0.52069  0.49353  0.72272  1.0000
  H   H4460     1.0  0.40357  0.84738  0.92910  1.0000
  H   H4461     1.0  0.39001  0.59256  0.52691  1.0000
  H   H4462     1.0  0.38569  0.54981  0.81795  1.0000
  C   C2509     1.0  0.39638  0.79866  0.54586  1.0000
  H   H4463     1.0  0.41627  0.68011  0.48828  1.0000
  H   H4464     1.0  0.57355  0.71497  0.76469  1.0000
  C   C2510     1.0  0.58177  0.60289  0.79446  1.0000
  H   H4465     1.0  0.42472  0.80131  0.48908  1.0000
  S   S562      1.0  0.45580  0.80690  0.97136  1.0000
  H   H4466     1.0  0.57463  0.71827  0.69936  1.0000
  C   C2511     1.0  0.41914  0.59240  0.61576  1.0000
  C   C2512     1.0  0.58192  0.94056  0.95502  1.0000
  H   H4467     1.0  0.38638  0.49880  0.67261  1.0000
  H   H4468     1.0  0.47871  0.73443  0.97049  1.0000
  H   H4469     1.0  0.38850  0.53037  0.79313  1.0000
  H   H4470     1.0  0.56518  0.88245  0.66387  1.0000
  H   H4471     1.0  0.57947  0.60047  0.84800  1.0000
  H   H4472     1.0  0.57769  0.96195  0.96395  1.0000
  C   C2513     1.0  0.39297  0.49252  0.65992  1.0000
  H   H4473     1.0  0.57961  0.66435  0.70371  1.0000
  H   H4474     1.0  0.56573  0.89443  0.62980  1.0000
  C   C2514     1.0  0.40055  0.57059  0.72798  1.0000
  H   H4475     1.0  0.38706  0.50239  0.81815  1.0000
  H   H4476     1.0  0.48426  0.49856  0.62191  1.0000
  H   H4477     1.0  0.57546  0.73613  0.72770  1.0000
  H   H4478     1.0  0.57677  0.68051  0.73788  1.0000
  H   H4479     1.0  0.39561  0.58076  0.72814  1.0000
  C   C2515     1.0  0.38318  0.88848  0.69450  1.0000
  H   H4480     1.0  0.58204  0.90498  0.95662  1.0000
  C   C2516     1.0  0.58287  0.67509  0.68602  1.0000
  C   C2517     1.0  0.41504  0.48977  0.72874  1.0000
  C   C2518     1.0  0.38343  0.78416  0.56219  1.0000
  C   C2519     1.0  0.57969  0.84695  0.59987  1.0000
  C   C2520     1.0  0.58084  0.84595  0.56945  1.0000
  H   H4481     1.0  0.58307  0.83392  0.65404  1.0000
  H   H4482     1.0  0.58117  0.87919  0.60577  1.0000
  C   C2521     1.0  0.58108  0.87910  0.62797  1.0000
  C   C2522     1.0  0.58247  0.86332  0.64499  1.0000
  Fe  Fe281     1.0  0.74969  0.22537  0.25006  1.0000
  S   S563      1.0  0.75718  0.23016  0.20266  1.0000
  S   S564      1.0  0.73321  0.23800  0.26955  1.0000
  Fe  Fe282     1.0  0.75316  0.20429  0.21027  1.0000
  S   S565      1.0  0.74435  0.19224  0.17911  1.0000
  S   S566      1.0  0.74364  0.19943  0.25720  1.0000
  Fe  Fe283     1.0  0.59583  0.18017  0.42902  1.0000
  Fe  Fe284     1.0  0.76101  0.99002  0.22270  1.0000
  S   S567      1.0  0.62169  0.19244  0.42225  1.0000
  H   H4483     1.0  0.60250  0.03703  0.15622  1.0000
  H   H4484     1.0  0.71730  0.10644  0.20188  1.0000
  H   H4485     1.0  0.73683  0.24345  0.02672  1.0000
  C   C2523     1.0  0.69512  0.20553  0.33364  1.0000
  H   H4486     1.0  0.66165  0.20255  0.38367  1.0000
  S   S568      1.0  0.73463  0.26855  0.44850  1.0000
  H   H4487     1.0  0.62586  0.38812  0.45401  1.0000
  Fe  Fe285     1.0  0.69195  0.25881  0.44141  1.0000
  S   S569      1.0  0.71124  0.27834  0.40997  1.0000
  S   S570      1.0  0.66700  0.25295  0.43597  1.0000
  Fe  Fe286     1.0  0.72586  0.26130  0.41328  1.0000
  S   S571      1.0  0.74405  0.25750  0.37907  1.0000
  Fe  Fe287     1.0  0.71892  0.28457  0.44747  1.0000
  H   H4488     1.0  0.74817  0.28268  0.30548  1.0000
  S   S572      1.0  0.70641  0.24167  0.44200  1.0000
  H   H4489     1.0  0.63619  0.06238  0.25453  1.0000
  C   C2524     1.0  0.70617  0.47700  0.01460  1.0000
  S   S573      1.0  0.76381  0.44694  0.00874  1.0000
  C   C2525     1.0  0.64267  0.48464  0.13714  1.0000
  C   C2526     1.0  0.59293  0.04090  0.21082  1.0000
  H   H4490     1.0  0.69930  0.40318  0.47825  1.0000
  H   H4491     1.0  0.70848  0.10816  0.23638  1.0000
  Fe  Fe288     1.0  0.63344  0.45578  0.00091  1.0000
  S   S574      1.0  0.62538  0.47151  0.02752  1.0000
  S   S575      1.0  0.63259  0.43038  0.01534  1.0000
  S   S576      1.0  0.64086  0.03194  0.08640  1.0000
  H   H4492     1.0  0.73957  0.12815  0.19637  1.0000
  H   H4493     1.0  0.77777  0.35345  0.13587  1.0000
  Fe  Fe289     1.0  0.67208  0.12878  0.17619  1.0000
  S   S577      1.0  0.68286  0.11857  0.14232  1.0000
  S   S578      1.0  0.68326  0.13751  0.20856  1.0000
  Fe  Fe290     1.0  0.64065  0.12212  0.16242  1.0000
  S   S579      1.0  0.64894  0.11161  0.12733  1.0000
  S   S580      1.0  0.61641  0.12531  0.17143  1.0000
  Fe  Fe291     1.0  0.66079  0.09953  0.15693  1.0000
  S   S581      1.0  0.66034  0.07387  0.16613  1.0000
  Fe  Fe292     1.0  0.67005  0.13146  0.11549  1.0000
  S   S582      1.0  0.68116  0.14447  0.06974  1.0000
  S   S583      1.0  0.65089  0.10860  0.19321  1.0000
  S   S584      1.0  0.66091  0.14309  0.14819  1.0000
  C   C2527     1.0  0.65107  0.17026  0.02512  1.0000
  C   C2528     1.0  0.64622  0.16355  0.05445  1.0000
  C   C2529     1.0  0.65526  0.15541  0.06826  1.0000
  C   C2530     1.0  0.66926  0.15400  0.05280  1.0000
  C   C2531     1.0  0.67407  0.16064  0.02346  1.0000
  C   C2532     1.0  0.66497  0.16869  0.00963  1.0000
  H   H4494     1.0  0.63547  0.16469  0.06658  1.0000
  H   H4495     1.0  0.65145  0.15030  0.09089  1.0000
  H   H4496     1.0  0.68484  0.15950  0.01140  1.0000
  C   C2533     1.0  0.68545  0.22686  0.34689  1.0000
  C   C2534     1.0  0.64742  0.04360  0.10774  1.0000
  C   C2535     1.0  0.65253  0.03757  0.13123  1.0000
  C   C2536     1.0  0.65655  0.04702  0.14887  1.0000
  C   C2537     1.0  0.65579  0.06260  0.14283  1.0000
  C   C2538     1.0  0.65094  0.06867  0.11909  1.0000
  C   C2539     1.0  0.64667  0.05916  0.10176  1.0000
  H   H4497     1.0  0.65307  0.02557  0.13611  1.0000
  H   H4498     1.0  0.66017  0.04220  0.16735  1.0000
  H   H4499     1.0  0.65027  0.08062  0.11424  1.0000
  H   H4500     1.0  0.64270  0.06389  0.08365  1.0000
  H   H4501     1.0  0.62015  0.34293  0.46864  1.0000
  H   H4502     1.0  0.63697  0.24755  0.42496  1.0000
  H   H4503     1.0  0.62142  0.45475  0.09049  1.0000
  C   C2540     1.0  0.59745  0.08102  0.31114  1.0000
  H   H4504     1.0  0.64053  0.41275  0.42004  1.0000
  C   C2541     1.0  0.76395  0.45011  0.45719  1.0000
  N   N139      1.0  0.68501  0.20993  0.35693  1.0000
  C   C2542     1.0  0.72063  0.99511  0.14242  1.0000
  H   H4505     1.0  0.66413  0.22830  0.37486  1.0000
  C   C2543     1.0  0.65020  0.45598  0.47178  1.0000
  H   H4506     1.0  0.64269  0.17864  0.36437  1.0000
  H   H4507     1.0  0.72657  0.44063  0.44810  1.0000
  H   H4508     1.0  0.69934  0.47815  0.03470  1.0000
  H   H4509     1.0  0.63206  0.04662  0.19271  1.0000
  H   H4510     1.0  0.69274  0.42848  0.42453  1.0000
  H   H4511     1.0  0.62241  0.37692  0.40098  1.0000
  C   C2544     1.0  0.59269  0.47334  0.47717  1.0000
  H   H4512     1.0  0.75246  0.40875  0.41224  1.0000
  Fe  Fe293     1.0  0.77766  0.02525  0.20383  1.0000
  C   C2545     1.0  0.62051  0.04498  0.20712  1.0000
  C   C2546     1.0  0.67670  0.23386  0.36889  1.0000
  C   C2547     1.0  0.63326  0.20895  0.42922  1.0000
  C   C2548     1.0  0.62958  0.22333  0.42570  1.0000
  C   C2549     1.0  0.63987  0.23648  0.42836  1.0000
  C   C2550     1.0  0.65407  0.23558  0.43459  1.0000
  C   C2551     1.0  0.65763  0.22113  0.43866  1.0000
  C   C2552     1.0  0.64739  0.20801  0.43572  1.0000
  H   H4513     1.0  0.61912  0.22447  0.41974  1.0000
  H   H4514     1.0  0.61678  0.35108  0.40451  1.0000
  H   H4515     1.0  0.66841  0.22012  0.44362  1.0000
  H   H4516     1.0  0.65050  0.19704  0.43838  1.0000
  C   C2553     1.0  0.59268  0.08366  0.22600  1.0000
  C   C2554     1.0  0.60170  0.10979  0.19500  1.0000
  C   C2555     1.0  0.60479  0.09595  0.20769  1.0000
  S   S585      1.0  0.58539  0.39959  0.42741  1.0000
  H   H4517     1.0  0.61648  0.09471  0.20325  1.0000
  C   C2556     1.0  0.70639  0.43453  0.00109  1.0000
  H   H4518     1.0  0.60083  0.34854  0.37091  1.0000
  H   H4519     1.0  0.60931  0.22744  0.00102  1.0000
  H   H4520     1.0  0.73680  0.43357  0.08940  1.0000
  C   C2557     1.0  0.73500  0.24185  0.30188  1.0000
  C   C2558     1.0  0.72625  0.25108  0.31340  1.0000
  C   C2559     1.0  0.72819  0.25517  0.33825  1.0000
  C   C2560     1.0  0.73927  0.25042  0.35110  1.0000
  C   C2561     1.0  0.74778  0.24093  0.33988  1.0000
  C   C2562     1.0  0.74544  0.23640  0.31565  1.0000
  H   H4521     1.0  0.71811  0.25526  0.30285  1.0000
  H   H4522     1.0  0.72167  0.26257  0.34672  1.0000
  H   H4523     1.0  0.75630  0.23716  0.34989  1.0000
  H   H4524     1.0  0.75206  0.22907  0.30722  1.0000
  C   C2563     1.0  0.69986  0.15325  0.19962  1.0000
  C   C2564     1.0  0.70363  0.16007  0.22086  1.0000
  C   C2565     1.0  0.71704  0.17222  0.21482  1.0000
  C   C2566     1.0  0.72699  0.17746  0.18756  1.0000
  C   C2567     1.0  0.72323  0.17064  0.16635  1.0000
  C   C2568     1.0  0.70969  0.15866  0.17227  1.0000
  H   H4525     1.0  0.69606  0.15597  0.24205  1.0000
  H   H4526     1.0  0.71967  0.17753  0.23123  1.0000
  H   H4527     1.0  0.73082  0.17465  0.14519  1.0000
  H   H4528     1.0  0.70694  0.15348  0.15578  1.0000
  N   N140      1.0  0.69011  0.21065  0.02311  1.0000
  C   C2569     1.0  0.69826  0.20343  0.00196  1.0000
  C   C2570     1.0  0.68516  0.19953  0.05242  1.0000
  C   C2571     1.0  0.67570  0.21338  0.01474  1.0000
  C   C2572     1.0  0.69987  0.22619  0.02280  1.0000
  C   C2573     1.0  0.71600  0.22660  0.02801  1.0000
  H   H4529     1.0  0.60671  0.06975  0.18797  1.0000
  C   C2574     1.0  0.66408  0.21816  0.03652  1.0000
  C   C2575     1.0  0.69605  0.18924  0.06048  1.0000
  C   C2576     1.0  0.69071  0.18053  0.09188  1.0000
  C   C2577     1.0  0.62742  0.42924  0.47304  1.0000
  C   C2578     1.0  0.63894  0.48324  0.04008  1.0000
  C   C2579     1.0  0.65075  0.22190  0.02468  1.0000
  H   H4530     1.0  0.69065  0.19209  0.00283  1.0000
  H   H4531     1.0  0.70869  0.20057  0.00734  1.0000
  H   H4532     1.0  0.68287  0.20593  0.06884  1.0000
  H   H4533     1.0  0.67400  0.19097  0.05512  1.0000
  H   H4534     1.0  0.66923  0.20273  0.01052  1.0000
  N   N141      1.0  0.73037  0.48014  0.03442  1.0000
  H   H4535     1.0  0.59393  0.46168  0.44326  1.0000
  H   H4536     1.0  0.69387  0.23099  0.03924  1.0000
  C   C2580     1.0  0.62487  0.35460  0.45319  1.0000
  H   H4537     1.0  0.71476  0.22108  0.05063  1.0000
  H   H4538     1.0  0.74100  0.34356  0.43358  1.0000
  H   H4539     1.0  0.66902  0.39164  0.41760  1.0000
  H   H4540     1.0  0.66966  0.22865  0.04205  1.0000
  H   H4541     1.0  0.65901  0.20863  0.05627  1.0000
  H   H4542     1.0  0.69595  0.18038  0.04828  1.0000
  H   H4543     1.0  0.70813  0.19602  0.05602  1.0000
  H   H4544     1.0  0.69820  0.17266  0.09677  1.0000
  H   H4545     1.0  0.69136  0.18877  0.10530  1.0000
  H   H4546     1.0  0.67866  0.17330  0.09720  1.0000
  C   C2581     1.0  0.61020  0.01002  0.16024  1.0000
  N   N142      1.0  0.77304  0.28569  0.25461  1.0000
  H   H4547     1.0  0.61034  0.12949  0.35182  1.0000
  H   H4548     1.0  0.75702  0.40503  0.44593  1.0000
  C   C2582     1.0  0.63806  0.45733  0.45881  1.0000
  C   C2583     1.0  0.58713  0.12488  0.26378  1.0000
  H   H4549     1.0  0.65510  0.23188  0.00549  1.0000
  H   H4550     1.0  0.64446  0.21167  0.01926  1.0000
  H   H4551     1.0  0.64251  0.22502  0.04079  1.0000
  H   H4552     1.0  0.61118  0.48237  0.13466  1.0000
  H   H4553     1.0  0.66872  0.17364  0.98701  1.0000
  S   S586      1.0  0.66675  0.00478  0.06421  1.0000
  S   S587      1.0  0.67539  0.42808  0.00461  1.0000
  H   H4554     1.0  0.58959  0.11504  0.09626  1.0000
  S   S588      1.0  0.69829  0.26650  0.47881  1.0000
  C   C2584     1.0  0.63876  0.35340  0.43072  1.0000
  H   H4555     1.0  0.74466  0.40733  0.00719  1.0000
  H   H4556     1.0  0.67479  0.25354  0.33742  1.0000
  H   H4557     1.0  0.58588  0.24390  0.38585  1.0000
  C   C2585     1.0  0.65266  0.35239  0.44286  1.0000
  H   H4558     1.0  0.78236  0.38735  0.38473  1.0000
  C   C2586     1.0  0.63476  0.05385  0.24176  1.0000
  H   H4559     1.0  0.73170  0.99269  0.14263  1.0000
  C   C2587     1.0  0.67896  0.25127  0.35685  1.0000
  Fe  Fe294     1.0  0.75044  0.01200  0.18038  1.0000
  H   H4560     1.0  0.60868  0.99751  0.17021  1.0000
  C   C2588     1.0  0.69593  0.98961  0.13005  1.0000
  C   C2589     1.0  0.59182  0.12673  0.33049  1.0000
  C   C2590     1.0  0.77808  0.17270  0.17616  1.0000
  H   H4561     1.0  0.70556  0.42260  0.39999  1.0000
  C   C2591     1.0  0.71635  0.11464  0.21529  1.0000
  H   H4562     1.0  0.63551  0.34273  0.42361  1.0000
  H   H4563     1.0  0.64235  0.36351  0.41184  1.0000
  H   H4564     1.0  0.72016  0.36543  0.01329  1.0000
  S   S589      1.0  0.77368  0.22750  0.25569  1.0000
  H   H4565     1.0  0.68661  0.03870  0.17192  1.0000
  C   C2592     1.0  0.74742  0.40398  0.43543  1.0000
  H   H4566     1.0  0.68173  0.39976  0.45292  1.0000
  S   S590      1.0  0.74966  0.31920  0.99950  1.0000
  H   H4567     1.0  0.65676  0.36306  0.44941  1.0000
  H   H4568     1.0  0.73206  0.40823  0.46971  1.0000
  H   H4569     1.0  0.66224  0.35117  0.42651  1.0000
  S   S591      1.0  0.72086  0.28444  0.98491  1.0000
  H   H4570     1.0  0.59972  0.15053  0.00160  1.0000
  H   H4571     1.0  0.73724  0.11241  0.22684  1.0000
  H   H4572     1.0  0.71132  0.44550  0.43485  1.0000
  H   H4573     1.0  0.71048  0.36250  0.98621  1.0000
  C   C2593     1.0  0.65368  0.48093  0.03890  1.0000
  H   H4574     1.0  0.78094  0.27358  0.17593  1.0000
  H   H4575     1.0  0.68765  0.47841  0.99406  1.0000
  C   C2594     1.0  0.60340  0.15953  0.98106  1.0000
  H   H4576     1.0  0.74732  0.46374  0.46310  1.0000
  C   C2595     1.0  0.73513  0.39675  0.01799  1.0000
  C   C2596     1.0  0.72560  0.24336  0.02151  1.0000
  Fe  Fe295     1.0  0.71392  0.25029  0.47718  1.0000
  H   H4577     1.0  0.61633  0.21099  0.01470  1.0000
  H   H4578     1.0  0.72885  0.46927  0.39944  1.0000
  C   C2597     1.0  0.72955  0.39720  0.04866  1.0000
  C   C2598     1.0  0.69968  0.41980  0.42291  1.0000
  H   H4579     1.0  0.71948  0.25001  0.03417  1.0000
  H   H4580     1.0  0.59799  0.08658  0.15259  1.0000
  H   H4581     1.0  0.68149  0.42189  0.47124  1.0000
  H   H4582     1.0  0.62121  0.40836  0.41609  1.0000
  Fe  Fe296     1.0  0.58987  0.40943  0.46356  1.0000
  C   C2599     1.0  0.59963  0.18996  0.99164  1.0000
  H   H4583     1.0  0.59529  0.05962  0.14762  1.0000
  C   C2600     1.0  0.72243  0.41167  0.43274  1.0000
  S   S592      1.0  0.62982  0.99300  0.06693  1.0000
  H   H4584     1.0  0.60044  0.10017  0.27529  1.0000
  H   H4585     1.0  0.60047  0.12731  0.11302  1.0000
  H   H4586     1.0  0.75390  0.47956  0.01613  1.0000
  S   S593      1.0  0.61295  0.41216  0.47598  1.0000
  H   H4587     1.0  0.68263  0.40710  0.38960  1.0000
  H   H4588     1.0  0.69618  0.20130  0.26535  1.0000
  C   C2601     1.0  0.68835  0.40349  0.43038  1.0000
  H   H4589     1.0  0.63678  0.40541  0.39066  1.0000
  H   H4590     1.0  0.60033  0.23197  0.35310  1.0000
  H   H4591     1.0  0.64608  0.05550  0.22666  1.0000
  H   H4592     1.0  0.68036  0.22883  0.32849  1.0000
  H   H4593     1.0  0.72891  0.48328  0.07653  1.0000
  H   H4594     1.0  0.74783  0.46010  0.05948  1.0000
  H   H4595     1.0  0.74285  0.42528  0.44179  1.0000
  H   H4596     1.0  0.75408  0.06182  0.11283  1.0000
  H   H4597     1.0  0.72056  0.38641  0.06096  1.0000
  H   H4598     1.0  0.73942  0.39814  0.05847  1.0000
  H   H4599     1.0  0.72475  0.40740  0.04962  1.0000
  C   C2602     1.0  0.62942  0.38807  0.43157  1.0000
  C   C2603     1.0  0.77406  0.27407  0.28019  1.0000
  C   C2604     1.0  0.59079  0.46053  0.12638  1.0000
  C   C2605     1.0  0.75636  0.28641  0.25929  1.0000
  H   H4600     1.0  0.73090  0.43899  0.99759  1.0000
  H   H4601     1.0  0.69234  0.19473  0.38804  1.0000
  S   S594      1.0  0.58963  0.15427  0.43285  1.0000
  C   C2606     1.0  0.74963  0.29170  0.28573  1.0000
  H   H4602     1.0  0.60616  0.47444  0.08495  1.0000
  H   H4603     1.0  0.73983  0.38642  0.01825  1.0000
  C   C2607     1.0  0.75014  0.45291  0.47081  1.0000
  H   H4604     1.0  0.61765  0.03313  0.22162  1.0000
  C   C2608     1.0  0.73373  0.29451  0.28563  1.0000
  H   H4605     1.0  0.72436  0.44421  0.38611  1.0000
  C   C2609     1.0  0.59845  0.35753  0.46607  1.0000
  H   H4606     1.0  0.58685  0.20824  0.47566  1.0000
  N   N143      1.0  0.61223  0.35981  0.44166  1.0000
  H   H4607     1.0  0.74878  0.27484  0.26083  1.0000
  H   H4608     1.0  0.75480  0.29464  0.24087  1.0000
  C   C2610     1.0  0.73622  0.41306  0.44641  1.0000
  H   H4609     1.0  0.59148  0.26562  0.46167  1.0000
  Fe  Fe297     1.0  0.78138  0.00434  0.16248  1.0000
  C   C2611     1.0  0.70223  0.01001  0.15326  1.0000
  H   H4610     1.0  0.76144  0.28482  0.20232  1.0000
  N   N144      1.0  0.60870  0.04634  0.19017  1.0000
  H   H4611     1.0  0.64883  0.48187  0.11808  1.0000
  N   N145      1.0  0.60299  0.45753  0.14156  1.0000
  C   C2612     1.0  0.71269  0.21197  0.40706  1.0000
  C   C2613     1.0  0.73071  0.44545  0.40245  1.0000
  H   H4612     1.0  0.75352  0.16133  0.25848  1.0000
  H   H4613     1.0  0.59186  0.04838  0.22558  1.0000
  C   C2614     1.0  0.63212  0.40462  0.41337  1.0000
  H   H4614     1.0  0.70578  0.22961  0.38064  1.0000
  H   H4615     1.0  0.69134  0.25749  0.35189  1.0000
  H   H4616     1.0  0.71216  0.20601  0.28048  1.0000
  H   H4617     1.0  0.77880  0.14334  0.24106  1.0000
  H   H4618     1.0  0.60188  0.14575  0.34613  1.0000
  H   H4619     1.0  0.76299  0.30603  0.43064  1.0000
  H   H4620     1.0  0.72888  0.29745  0.30547  1.0000
  H   H4621     1.0  0.73459  0.30430  0.26737  1.0000
  H   H4622     1.0  0.72569  0.28392  0.28446  1.0000
  H   H4623     1.0  0.69074  0.26613  0.98779  1.0000
  N   N146      1.0  0.58552  0.17694  0.99543  1.0000
  C   C2615     1.0  0.73791  0.46278  0.39751  1.0000
  C   C2616     1.0  0.78138  0.34823  0.11827  1.0000
  H   H4624     1.0  0.59332  0.11905  0.24953  1.0000
  H   H4625     1.0  0.69756  0.23396  0.33892  1.0000
  H   H4626     1.0  0.76966  0.27484  0.07878  1.0000
  Fe  Fe298     1.0  0.76827  0.20176  0.25944  1.0000
  C   C2617     1.0  0.58469  0.22678  0.42560  1.0000
  H   H4627     1.0  0.59297  0.46470  0.17824  1.0000
  H   H4628     1.0  0.74514  0.05114  0.14939  1.0000
  H   H4629     1.0  0.64958  0.34211  0.46142  1.0000
  H   H4630     1.0  0.78261  0.32954  0.37452  1.0000
  H   H4631     1.0  0.60726  0.08691  0.31810  1.0000
  C   C2618     1.0  0.77343  0.37999  0.00059  1.0000
  C   C2619     1.0  0.64897  0.17421  0.37984  1.0000
  H   H4632     1.0  0.72352  0.22042  0.40609  1.0000
  H   H4633     1.0  0.75196  0.48779  0.04522  1.0000
  H   H4634     1.0  0.60403  0.45112  0.18531  1.0000
  C   C2620     1.0  0.74766  0.48719  0.02609  1.0000
  H   H4635     1.0  0.60440  0.24300  0.39215  1.0000
  H   H4636     1.0  0.63520  0.43477  0.08428  1.0000
  C   C2621     1.0  0.60851  0.44368  0.13560  1.0000
  C   C2622     1.0  0.74796  0.26564  0.12948  1.0000
  C   C2623     1.0  0.61733  0.37641  0.42348  1.0000
  C   C2624     1.0  0.59628  0.25568  0.46902  1.0000
  H   H4637     1.0  0.77170  0.45884  0.43891  1.0000
  C   C2625     1.0  0.74834  0.06275  0.13402  1.0000
  C   C2626     1.0  0.66849  0.20049  0.36433  1.0000
  C   C2627     1.0  0.58657  0.11139  0.20117  1.0000
  H   H4638     1.0  0.71516  0.45684  0.04991  1.0000
  C   C2628     1.0  0.70389  0.41603  0.47131  1.0000
  H   H4639     1.0  0.73472  0.43417  0.05421  1.0000
  H   H4640     1.0  0.71125  0.12373  0.20513  1.0000
  H   H4641     1.0  0.67159  0.17809  0.38663  1.0000
  C   C2629     1.0  0.76787  0.16648  0.20647  1.0000
  H   H4642     1.0  0.59291  0.36339  0.40541  1.0000
  H   H4643     1.0  0.77654  0.30146  0.19965  1.0000
  H   H4644     1.0  0.66271  0.20438  0.34758  1.0000
  C   C2630     1.0  0.73092  0.43815  0.07336  1.0000
  C   C2631     1.0  0.73505  0.45589  0.06621  1.0000
  H   H4645     1.0  0.69888  0.01877  0.16281  1.0000
  C   C2632     1.0  0.61594  0.47215  0.13336  1.0000
  H   H4646     1.0  0.68255  0.20739  0.40194  1.0000
  C   C2633     1.0  0.69476  0.43851  0.98880  1.0000
  C   C2634     1.0  0.62258  0.44698  0.10970  1.0000
  C   C2635     1.0  0.62767  0.47214  0.15177  1.0000
  H   H4647     1.0  0.72047  0.04617  0.13434  1.0000
  H   H4648     1.0  0.60713  0.38124  0.42306  1.0000
  S   S595      1.0  0.72887  0.01789  0.16960  1.0000
  H   H4649     1.0  0.69966  0.07783  0.09096  1.0000
  H   H4650     1.0  0.77261  0.37646  0.02298  1.0000
  H   H4651     1.0  0.62245  0.47493  0.11089  1.0000
  H   H4652     1.0  0.65708  0.47198  0.02986  1.0000
  H   H4653     1.0  0.76647  0.12049  0.30015  1.0000
  H   H4654     1.0  0.63332  0.45266  0.11440  1.0000
  C   C2636     1.0  0.59082  0.09310  0.29388  1.0000
  H   H4655     1.0  0.62267  0.47458  0.17209  1.0000
  H   H4656     1.0  0.63049  0.46074  0.15668  1.0000
  S   S596      1.0  0.76415  0.29023  0.99002  1.0000
  H   H4657     1.0  0.59133  0.02911  0.22472  1.0000
  H   H4658     1.0  0.73232  0.45878  0.02367  1.0000
  H   H4659     1.0  0.70646  0.05932  0.06690  1.0000
  H   H4660     1.0  0.74033  0.43976  0.39910  1.0000
  H   H4661     1.0  0.74579  0.46757  0.37591  1.0000
  H   H4662     1.0  0.62662  0.42390  0.12072  1.0000
  H   H4663     1.0  0.69563  0.03528  0.05487  1.0000
  H   H4664     1.0  0.70044  0.09272  0.12547  1.0000
  Fe  Fe299     1.0  0.77012  0.31062  0.00811  1.0000
  H   H4665     1.0  0.74096  0.16639  0.30320  1.0000
  H   H4666     1.0  0.68053  0.04124  0.07579  1.0000
  N   N147      1.0  0.74645  0.14230  0.24002  1.0000
  C   C2637     1.0  0.74285  0.15364  0.25693  1.0000
  H   H4667     1.0  0.59883  0.43498  0.13295  1.0000
  C   C2638     1.0  0.73127  0.13309  0.23768  1.0000
  S   S597      1.0  0.77780  0.40963  0.00686  1.0000
  N   N148      1.0  0.71146  0.42144  0.43992  1.0000
  C   C2639     1.0  0.73268  0.14645  0.28773  1.0000
  H   H4668     1.0  0.69511  0.03863  0.12823  1.0000
  C   C2640     1.0  0.70681  0.21763  0.38128  1.0000
  C   C2641     1.0  0.75428  0.13103  0.25440  1.0000
  C   C2642     1.0  0.72986  0.15908  0.30245  1.0000
  H   H4669     1.0  0.73702  0.16165  0.24566  1.0000
  H   H4670     1.0  0.75971  0.35970  0.45226  1.0000
  H   H4671     1.0  0.59565  0.48222  0.43203  1.0000
  H   H4672     1.0  0.74846  0.15411  0.19636  1.0000
  H   H4673     1.0  0.72440  0.14114  0.23002  1.0000
  H   H4674     1.0  0.72411  0.12562  0.25871  1.0000
  H   H4675     1.0  0.74621  0.12323  0.27444  1.0000
  H   H4676     1.0  0.78036  0.29243  0.15609  1.0000
  H   H4677     1.0  0.70404  0.21093  0.42695  1.0000
  H   H4678     1.0  0.68528  0.03980  0.22067  1.0000
  H   H4679     1.0  0.72116  0.13949  0.28827  1.0000
  H   H4680     1.0  0.73839  0.13898  0.30037  1.0000
  H   H4681     1.0  0.61191  0.43746  0.15409  1.0000
  H   H4682     1.0  0.71638  0.11794  0.09469  1.0000
  H   H4683     1.0  0.58435  0.12227  0.19185  1.0000
  H   H4684     1.0  0.63126  0.04196  0.25622  1.0000
  H   H4685     1.0  0.67109  0.17951  0.35044  1.0000
  C   C2643     1.0  0.69098  0.03681  0.07614  1.0000
  C   C2644     1.0  0.69103  0.20680  0.38297  1.0000
  H   H4686     1.0  0.70574  0.04412  0.17708  1.0000
  H   H4687     1.0  0.76322  0.25442  0.08954  1.0000
  H   H4688     1.0  0.72361  0.16654  0.29118  1.0000
  H   H4689     1.0  0.58515  0.43327  0.22701  1.0000
  C   C2645     1.0  0.69522  0.04811  0.17526  1.0000
  H   H4690     1.0  0.74038  0.35373  0.99328  1.0000
  S   S598      1.0  0.70647  0.47119  0.45499  1.0000
  S   S599      1.0  0.77464  0.02696  0.15947  1.0000
  H   H4691     1.0  0.77038  0.26731  0.23332  1.0000
  H   H4692     1.0  0.67736  0.05456  0.20315  1.0000
  N   N149      1.0  0.70736  0.06263  0.12197  1.0000
  H   H4693     1.0  0.68089  0.23236  0.38829  1.0000
  C   C2646     1.0  0.77892  0.23390  0.11077  1.0000
  H   H4694     1.0  0.68092  0.00401  0.14101  1.0000
  C   C2647     1.0  0.69986  0.48471  0.99081  1.0000
  H   H4695     1.0  0.59727  0.01350  0.19814  1.0000
  H   H4696     1.0  0.64752  0.16157  0.38213  1.0000
  H   H4697     1.0  0.63710  0.01452  0.99650  1.0000
  C   C2648     1.0  0.71550  0.10750  0.08640  1.0000
  H   H4698     1.0  0.72266  0.22074  0.01454  1.0000
  C   C2649     1.0  0.77385  0.28879  0.20163  1.0000
  H   H4699     1.0  0.70707  0.21313  0.32741  1.0000
  H   H4700     1.0  0.71522  0.20051  0.40739  1.0000
  C   C2650     1.0  0.67666  0.40351  0.41254  1.0000
  C   C2651     1.0  0.59686  0.24575  0.44754  1.0000
  C   C2652     1.0  0.69901  0.06315  0.15096  1.0000
  C   C2653     1.0  0.73406  0.06892  0.13296  1.0000
  H   H4701     1.0  0.61786  0.01717  0.19407  1.0000
  H   H4702     1.0  0.76685  0.23399  0.12002  1.0000
  H   H4703     1.0  0.77480  0.20988  0.13439  1.0000
  H   H4704     1.0  0.62914  0.03041  0.98388  1.0000
  H   H4705     1.0  0.71986  0.07979  0.08225  1.0000
  C   C2654     1.0  0.72369  0.48432  0.00947  1.0000
  C   C2655     1.0  0.59434  0.22511  0.37518  1.0000
  C   C2656     1.0  0.61065  0.03639  0.16974  1.0000
  H   H4706     1.0  0.62633  0.06875  0.21289  1.0000
  C   C2657     1.0  0.76767  0.43603  0.46678  1.0000
  H   H4707     1.0  0.73808  0.08078  0.11845  1.0000
  H   H4708     1.0  0.72274  0.15364  0.32453  1.0000
  C   C2658     1.0  0.60876  0.01888  0.18299  1.0000
  C   C2659     1.0  0.77652  0.32681  0.39725  1.0000
  C   C2660     1.0  0.60688  0.06673  0.14601  1.0000
  C   C2661     1.0  0.60563  0.13671  0.33660  1.0000
  S   S600      1.0  0.72797  0.31066  0.44507  1.0000
  H   H4709     1.0  0.71623  0.39914  0.43969  1.0000
  C   C2662     1.0  0.74599  0.33797  0.44945  1.0000
  H   H4710     1.0  0.62230  0.04103  0.15467  1.0000
  S   S601      1.0  0.77559  0.30735  0.05120  1.0000
  C   C2663     1.0  0.60340  0.07074  0.29323  1.0000
  H   H4711     1.0  0.76829  0.14712  0.27263  1.0000
  H   H4712     1.0  0.72704  0.41426  0.40939  1.0000
  H   H4713     1.0  0.67776  0.20058  0.30943  1.0000
  H   H4714     1.0  0.58855  0.07326  0.33008  1.0000
  C   C2664     1.0  0.72186  0.39632  0.00300  1.0000
  C   C2665     1.0  0.59889  0.47312  0.44652  1.0000
  H   H4715     1.0  0.76937  0.35646  0.99648  1.0000
  H   H4716     1.0  0.76606  0.25569  0.13971  1.0000
  H   H4717     1.0  0.59783  0.45444  0.08647  1.0000
  H   H4718     1.0  0.59217  0.21919  0.43179  1.0000
  H   H4719     1.0  0.69553  0.43624  0.47870  1.0000
  H   H4720     1.0  0.77542  0.16551  0.22100  1.0000
  H   H4721     1.0  0.75718  0.12314  0.24113  1.0000
  H   H4722     1.0  0.58807  0.20396  0.01638  1.0000
  C   C2666     1.0  0.71151  0.09293  0.11098  1.0000
  H   H4723     1.0  0.77991  0.38838  0.10537  1.0000
  H   H4724     1.0  0.77138  0.27654  0.12654  1.0000
  H   H4725     1.0  0.70328  0.42533  0.02047  1.0000
  H   H4726     1.0  0.58898  0.13519  0.09129  1.0000
  H   H4727     1.0  0.77089  0.17451  0.16095  1.0000
  H   H4728     1.0  0.77984  0.41944  0.06641  1.0000
  H   H4729     1.0  0.60119  0.37937  0.47809  1.0000
  H   H4730     1.0  0.68557  0.05256  0.11469  1.0000
  H   H4731     1.0  0.72870  0.05884  0.10020  1.0000
  H   H4732     1.0  0.59584  0.13340  0.26895  1.0000
  H   H4733     1.0  0.74149  0.39148  0.44019  1.0000
  C   C2667     1.0  0.75664  0.34718  0.46000  1.0000
  C   C2668     1.0  0.62486  0.43200  0.10239  1.0000
  H   H4734     1.0  0.71826  0.43331  0.08211  1.0000
  H   H4735     1.0  0.61240  0.07791  0.27382  1.0000
  H   H4736     1.0  0.74471  0.46470  0.41303  1.0000
  H   H4737     1.0  0.71577  0.21811  0.36230  1.0000
  C   C2669     1.0  0.72772  0.46269  0.04257  1.0000
  H   H4738     1.0  0.72060  0.09411  0.12251  1.0000
  Fe  Fe300     1.0  0.78077  0.23024  0.20885  1.0000
  S   S602      1.0  0.77283  0.18471  0.29476  1.0000
  H   H4739     1.0  0.58727  0.13462  0.31617  1.0000
  H   H4740     1.0  0.67873  0.22266  0.99460  1.0000
  H   H4741     1.0  0.72987  0.48077  0.99121  1.0000
  C   C2670     1.0  0.77498  0.12576  0.27925  1.0000
  H   H4742     1.0  0.60656  0.11942  0.29850  1.0000
  C   C2671     1.0  0.60731  0.34922  0.42378  1.0000
  H   H4743     1.0  0.58879  0.36088  0.45820  1.0000
  S   S603      1.0  0.75292  0.01171  0.22438  1.0000
  H   H4744     1.0  0.70408  0.46447  0.01538  1.0000
  C   C2672     1.0  0.59653  0.11385  0.31727  1.0000
  H   H4745     1.0  0.74630  0.27566  0.11437  1.0000
  H   H4746     1.0  0.73081  0.45912  0.08598  1.0000
  C   C2673     1.0  0.60670  0.08380  0.13674  1.0000
  H   H4747     1.0  0.75672  0.07074  0.14098  1.0000
  H   H4748     1.0  0.61167  0.05494  0.24192  1.0000
  C   C2674     1.0  0.59571  0.46471  0.09370  1.0000
  C   C2675     1.0  0.62254  0.05649  0.22583  1.0000
  C   C2676     1.0  0.61250  0.26238  0.47155  1.0000
  C   C2677     1.0  0.77701  0.27966  0.22889  1.0000
  C   C2678     1.0  0.72249  0.05844  0.12201  1.0000
  H   H4749     1.0  0.68794  0.06615  0.14991  1.0000
  C   C2679     1.0  0.77155  0.36860  0.98562  1.0000
  C   C2680     1.0  0.71980  0.43839  0.43268  1.0000
  H   H4750     1.0  0.74087  0.25467  0.12762  1.0000
  H   H4751     1.0  0.62180  0.01452  0.14510  1.0000
  H   H4752     1.0  0.72159  0.34088  0.00021  1.0000
  H   H4753     1.0  0.58589  0.14209  0.22755  1.0000
  H   H4754     1.0  0.69639  0.19357  0.34129  1.0000
  C   C2681     1.0  0.59573  0.45412  0.17297  1.0000
  H   H4755     1.0  0.64374  0.17581  0.40077  1.0000
  H   H4756     1.0  0.61517  0.06431  0.12893  1.0000
  H   H4757     1.0  0.60376  0.08621  0.11607  1.0000
  C   C2682     1.0  0.68814  0.05078  0.20370  1.0000
  C   C2683     1.0  0.59270  0.35100  0.41348  1.0000
  C   C2684     1.0  0.70972  0.07797  0.10039  1.0000
  H   H4758     1.0  0.67230  0.25593  0.37277  1.0000
  H   H4759     1.0  0.61821  0.09148  0.13428  1.0000
  C   C2685     1.0  0.69975  0.19990  0.28547  1.0000
  H   H4760     1.0  0.59407  0.34498  0.47770  1.0000
  H   H4761     1.0  0.61471  0.42627  0.09604  1.0000
  H   H4762     1.0  0.69640  0.05976  0.20892  1.0000
  H   H4763     1.0  0.76239  0.14327  0.20064  1.0000
  H   H4764     1.0  0.62944  0.36231  0.46560  1.0000
  N   N150      1.0  0.58387  0.10348  0.30964  1.0000
  H   H4765     1.0  0.72795  0.24929  0.99867  1.0000
  H   H4766     1.0  0.71084  0.47682  0.06998  1.0000
  H   H4767     1.0  0.60455  0.23797  0.45185  1.0000
  H   H4768     1.0  0.76020  0.30618  0.39609  1.0000
  H   H4769     1.0  0.68765  0.02528  0.09179  1.0000
  C   C2686     1.0  0.69714  0.05021  0.11347  1.0000
  H   H4770     1.0  0.70632  0.10709  0.07487  1.0000
  H   H4771     1.0  0.60702  0.18603  0.00541  1.0000
  H   H4772     1.0  0.69157  0.21916  0.29471  1.0000
  C   C2687     1.0  0.61167  0.21644  0.99738  1.0000
  C   C2688     1.0  0.58949  0.12466  0.10665  1.0000
  S   S604      1.0  0.63971  0.18081  0.00855  1.0000
  H   H4773     1.0  0.59508  0.07298  0.23579  1.0000
  C   C2689     1.0  0.74165  0.32160  0.45928  1.0000
  Fe  Fe301     1.0  0.64431  0.00780  0.08770  1.0000
  C   C2690     1.0  0.69000  0.20678  0.30570  1.0000
  S   S605      1.0  0.77745  0.20473  0.21309  1.0000
  H   H4774     1.0  0.60130  0.21708  0.38231  1.0000
  C   C2691     1.0  0.76954  0.13818  0.26099  1.0000
  C   C2692     1.0  0.72255  0.48477  0.05986  1.0000
  H   H4775     1.0  0.71349  0.04334  0.08265  1.0000
  C   C2693     1.0  0.66611  0.18264  0.36995  1.0000
  H   H4776     1.0  0.70557  0.07254  0.15803  1.0000
  H   H4777     1.0  0.75723  0.30261  0.28662  1.0000
  H   H4778     1.0  0.71171  0.38672  0.01615  1.0000
  H   H4779     1.0  0.69821  0.18733  0.29490  1.0000
  C   C2694     1.0  0.61194  0.06319  0.17401  1.0000
  C   C2695     1.0  0.71656  0.00687  0.15396  1.0000
  H   H4780     1.0  0.72673  0.10864  0.07146  1.0000
  C   C2696     1.0  0.73233  0.12199  0.21806  1.0000
  H   H4781     1.0  0.72892  0.06950  0.15465  1.0000
  C   C2697     1.0  0.75607  0.15092  0.21027  1.0000
  H   H4782     1.0  0.60852  0.06250  0.30567  1.0000
  C   C2698     1.0  0.70324  0.04817  0.08351  1.0000
  H   H4783     1.0  0.61483  0.14260  0.31674  1.0000
  C   C2699     1.0  0.76894  0.30935  0.40774  1.0000
  H   H4784     1.0  0.62460  0.06877  0.16764  1.0000
  C   C2700     1.0  0.69202  0.00160  0.14103  1.0000
  H   H4785     1.0  0.64069  0.38511  0.42811  1.0000
  H   H4786     1.0  0.60306  0.25404  0.42666  1.0000
  H   H4787     1.0  0.60116  0.10681  0.33293  1.0000
  H   H4788     1.0  0.61753  0.44538  0.44936  1.0000
  H   H4789     1.0  0.63729  0.46876  0.44855  1.0000
  H   H4790     1.0  0.59374  0.06391  0.28710  1.0000
  H   H4791     1.0  0.62007  0.26965  0.45067  1.0000
  C   C2701     1.0  0.72941  0.35216  0.98681  1.0000
  H   H4792     1.0  0.74388  0.26668  0.15132  1.0000
  H   H4793     1.0  0.65029  0.48512  0.15173  1.0000
  H   H4794     1.0  0.76588  0.26271  0.28294  1.0000
  C   C2702     1.0  0.59104  0.34297  0.39000  1.0000
  H   H4795     1.0  0.66941  0.41155  0.41719  1.0000
  H   H4796     1.0  0.60128  0.01110  0.14839  1.0000
  H   H4797     1.0  0.70138  0.23487  0.00245  1.0000
  Fe  Fe302     1.0  0.78093  0.43543  0.98811  1.0000
  C   C2703     1.0  0.76499  0.26557  0.12359  1.0000
  H   H4798     1.0  0.69466  0.39468  0.42616  1.0000
  C   C2704     1.0  0.77420  0.40827  0.08282  1.0000
  H   H4799     1.0  0.77786  0.31085  0.24156  1.0000
  C   C2705     1.0  0.62681  0.44408  0.45928  1.0000
  H   H4800     1.0  0.77673  0.11651  0.26851  1.0000
  C   C2706     1.0  0.72192  0.36537  0.99072  1.0000
  H   H4801     1.0  0.76714  0.33292  0.39904  1.0000
  H   H4802     1.0  0.77769  0.30262  0.40418  1.0000
  H   H4803     1.0  0.67531  0.48801  0.04924  1.0000
  H   H4804     1.0  0.59022  0.16313  0.03198  1.0000
  S   S606      1.0  0.66311  0.47327  0.47288  1.0000
  H   H4805     1.0  0.71812  0.40712  0.00383  1.0000
  H   H4806     1.0  0.60504  0.33680  0.43565  1.0000
  H   H4807     1.0  0.77045  0.27767  0.29987  1.0000
  C   C2707     1.0  0.72200  0.44228  0.98825  1.0000
  C   C2708     1.0  0.78305  0.30168  0.25129  1.0000
  H   H4808     1.0  0.76152  0.17523  0.21075  1.0000
  C   C2709     1.0  0.77115  0.26440  0.09303  1.0000
  H   H4809     1.0  0.61167  0.47545  0.44099  1.0000
  H   H4810     1.0  0.72304  0.99005  0.22047  1.0000
  H   H4811     1.0  0.59058  0.33045  0.39735  1.0000
  Fe  Fe303     1.0  0.65686  0.43712  0.98753  1.0000
  H   H4812     1.0  0.78179  0.22387  0.15231  1.0000
  C   C2710     1.0  0.59262  0.23602  0.39426  1.0000
  C   C2711     1.0  0.77611  0.39580  0.98687  1.0000
  C   C2712     1.0  0.59684  0.20558  0.99648  1.0000
  H   H4813     1.0  0.76506  0.40144  0.07552  1.0000
  H   H4814     1.0  0.77946  0.23043  0.09073  1.0000
  H   H4815     1.0  0.78027  0.33269  0.43523  1.0000
  H   H4816     1.0  0.60337  0.47367  0.98450  1.0000
  H   H4817     1.0  0.58682  0.47235  0.05766  1.0000
  H   H4818     1.0  0.69857  0.40769  0.98339  1.0000
  H   H4819     1.0  0.77143  0.33900  0.11814  1.0000
  H   H4820     1.0  0.78169  0.24655  0.30336  1.0000
  H   H4821     1.0  0.58605  0.46997  0.13277  1.0000
  H   H4822     1.0  0.78219  0.35996  0.41031  1.0000
  C   C2713     1.0  0.78291  0.22130  0.13139  1.0000
  H   H4823     1.0  0.78012  0.27738  0.03392  1.0000
  H   H4824     1.0  0.61369  0.16824  0.98129  1.0000
  H   H4825     1.0  0.78229  0.25074  0.05492  1.0000
  H   H4826     1.0  0.76872  0.41088  0.10261  1.0000
  H   H4827     1.0  0.77679  0.36572  0.08738  1.0000
  Fe  Fe304     1.0  0.75007  0.22260  0.63932  1.0000
  S   S607      1.0  0.74450  0.21613  0.68665  1.0000
  S   S608      1.0  0.73982  0.24116  0.61853  1.0000
  Fe  Fe305     1.0  0.74104  0.19160  0.68328  1.0000
  S   S609      1.0  0.72026  0.17589  0.71731  1.0000
  S   S610      1.0  0.74512  0.19802  0.63598  1.0000
  C   C2714     1.0  0.58888  0.21917  0.91769  1.0000
  S   S611      1.0  0.69497  0.47191  0.52096  1.0000
  S   S612      1.0  0.72179  0.44409  0.50990  1.0000
  H   H4828     1.0  0.71369  0.39141  0.94110  1.0000
  H   H4829     1.0  0.58430  0.00042  0.78535  1.0000
  C   C2715     1.0  0.59003  0.16702  0.97606  1.0000
  H   H4830     1.0  0.60605  0.46477  0.84455  1.0000
  H   H4831     1.0  0.60493  0.10989  0.58338  1.0000
  C   C2716     1.0  0.62015  0.48446  0.87725  1.0000
  H   H4832     1.0  0.60940  0.13269  0.54254  1.0000
  H   H4833     1.0  0.60657  0.09645  0.56298  1.0000
  C   C2717     1.0  0.74163  0.41215  0.92269  1.0000
  C   C2718     1.0  0.71146  0.39366  0.96239  1.0000
  H   H4834     1.0  0.60813  0.06090  0.72939  1.0000
  H   H4835     1.0  0.62249  0.48451  0.48362  1.0000
  C   C2719     1.0  0.77048  0.00323  0.84076  1.0000
  Fe  Fe306     1.0  0.64977  0.19429  0.96268  1.0000
  H   H4836     1.0  0.58599  0.00069  0.84597  1.0000
  C   C2720     1.0  0.58600  0.08234  0.70912  1.0000
  H   H4837     1.0  0.67802  0.40401  0.51835  1.0000
  C   C2721     1.0  0.70148  0.48548  0.81287  1.0000
  H   H4838     1.0  0.60390  0.48708  0.52414  1.0000
  H   H4839     1.0  0.70232  0.38334  0.97626  1.0000
  H   H4840     1.0  0.61112  0.36644  0.49521  1.0000
  Fe  Fe307     1.0  0.64832  0.45791  0.94000  1.0000
  C   C2722     1.0  0.61960  0.43514  0.86891  1.0000
  S   S613      1.0  0.64946  0.43299  0.94907  1.0000
  S   S614      1.0  0.65053  0.02353  0.79427  1.0000
  C   C2723     1.0  0.60131  0.48013  0.96471  1.0000
  S   S615      1.0  0.67255  0.19631  0.93328  1.0000
  Fe  Fe308     1.0  0.64004  0.21556  0.91835  1.0000
  S   S616      1.0  0.66227  0.21969  0.88498  1.0000
  S   S617      1.0  0.61973  0.22596  0.91493  1.0000
  Fe  Fe309     1.0  0.65911  0.19390  0.90067  1.0000
  S   S618      1.0  0.66433  0.17762  0.87328  1.0000
  Fe  Fe310     1.0  0.67416  0.22195  0.91993  1.0000
  S   S619      1.0  0.69779  0.23902  0.91174  1.0000
  S   S620      1.0  0.63621  0.18976  0.93143  1.0000
  H   H4841     1.0  0.71919  0.01278  0.61515  1.0000
  C   C2724     1.0  0.63065  0.05695  0.72456  1.0000
  S   S621      1.0  0.76004  0.31502  0.93515  1.0000
  S   S622      1.0  0.65809  0.46249  0.97590  1.0000
  H   H4842     1.0  0.62044  0.21929  0.97689  1.0000
  Fe  Fe311     1.0  0.71505  0.46643  0.49406  1.0000
  Fe  Fe312     1.0  0.60682  0.11249  0.74411  1.0000
  S   S623      1.0  0.60338  0.11025  0.79077  1.0000
  C   C2725     1.0  0.59169  0.18692  0.83330  1.0000
  Fe  Fe313     1.0  0.64204  0.12100  0.73418  1.0000
  S   S624      1.0  0.64119  0.11840  0.78030  1.0000
  S   S625      1.0  0.66415  0.12903  0.69877  1.0000
  Fe  Fe314     1.0  0.62181  0.09721  0.78760  1.0000
  S   S626      1.0  0.61638  0.07462  0.82149  1.0000
  Fe  Fe315     1.0  0.62300  0.13164  0.77974  1.0000
  S   S627      1.0  0.62133  0.15196  0.79920  1.0000
  S   S628      1.0  0.62429  0.09837  0.74150  1.0000
  S   S629      1.0  0.62473  0.13530  0.73316  1.0000
  C   C2726     1.0  0.65165  0.16998  0.85427  1.0000
  C   C2727     1.0  0.63960  0.17650  0.84893  1.0000
  C   C2728     1.0  0.63042  0.17077  0.83213  1.0000
  C   C2729     1.0  0.63305  0.15841  0.82073  1.0000
  C   C2730     1.0  0.64497  0.15176  0.82637  1.0000
  C   C2731     1.0  0.65426  0.15758  0.84296  1.0000
  H   H4843     1.0  0.63754  0.18612  0.85731  1.0000
  H   H4844     1.0  0.62135  0.17606  0.82768  1.0000
  H   H4845     1.0  0.64715  0.14226  0.81773  1.0000
  H   H4846     1.0  0.66353  0.15244  0.84700  1.0000
  C   C2732     1.0  0.70379  0.25141  0.93281  1.0000
  C   C2733     1.0  0.71954  0.25896  0.92677  1.0000
  C   C2734     1.0  0.72493  0.26915  0.94231  1.0000
  H   H4847     1.0  0.64956  0.46995  0.78606  1.0000
  H   H4848     1.0  0.58576  0.07446  0.63868  1.0000
  H   H4849     1.0  0.63638  0.04726  0.72675  1.0000
  H   H4850     1.0  0.59586  0.37575  0.96600  1.0000
  N   N151      1.0  0.64426  0.03209  0.89721  1.0000
  H   H4851     1.0  0.59495  0.44843  0.56886  1.0000
  H   H4852     1.0  0.58648  0.34933  0.52586  1.0000
  C   C2735     1.0  0.64048  0.03744  0.80127  1.0000
  C   C2736     1.0  0.64692  0.05306  0.78626  1.0000
  C   C2737     1.0  0.63944  0.06453  0.79193  1.0000
  C   C2738     1.0  0.62561  0.06044  0.81301  1.0000
  C   C2739     1.0  0.61911  0.04482  0.82798  1.0000
  C   C2740     1.0  0.62641  0.03331  0.82186  1.0000
  H   H4853     1.0  0.65777  0.05634  0.77025  1.0000
  H   H4854     1.0  0.64453  0.07658  0.78034  1.0000
  H   H4855     1.0  0.60835  0.04161  0.84420  1.0000
  H   H4856     1.0  0.62128  0.02132  0.83334  1.0000
  H   H4857     1.0  0.73010  0.26524  0.85715  1.0000
  H   H4858     1.0  0.71261  0.47201  0.83977  1.0000
  H   H4859     1.0  0.63340  0.06391  0.73940  1.0000
  Fe  Fe316     1.0  0.76616  0.33337  0.95800  1.0000
  C   C2741     1.0  0.58410  0.14784  0.79062  1.0000
  H   H4860     1.0  0.59329  0.17399  0.95357  1.0000
  H   H4861     1.0  0.73390  0.37987  0.94890  1.0000
  C   C2742     1.0  0.77698  0.27957  0.83443  1.0000
  H   H4862     1.0  0.60137  0.41778  0.55153  1.0000
  H   H4863     1.0  0.59359  0.47754  0.77842  1.0000
  H   H4864     1.0  0.74850  0.02152  0.73371  1.0000
  N   N152      1.0  0.58621  0.08895  0.59824  1.0000
  C   C2743     1.0  0.77201  0.37290  0.95686  1.0000
  H   H4865     1.0  0.59785  0.25604  0.91505  1.0000
  H   H4866     1.0  0.71707  0.16260  0.66972  1.0000
  H   H4867     1.0  0.76107  0.00076  0.80429  1.0000
  H   H4868     1.0  0.62541  0.46680  0.90703  1.0000
  C   C2744     1.0  0.76788  0.27041  0.88600  1.0000
  H   H4869     1.0  0.59856  0.14203  0.95807  1.0000
  C   C2745     1.0  0.73023  0.24539  0.84083  1.0000
  C   C2746     1.0  0.72259  0.24811  0.54969  1.0000
  C   C2747     1.0  0.60246  0.21418  0.91245  1.0000
  C   C2748     1.0  0.60200  0.20016  0.90508  1.0000
  H   H4870     1.0  0.73141  0.41386  0.91497  1.0000
  H   H4871     1.0  0.61238  0.19617  0.90095  1.0000
  H   H4872     1.0  0.75007  0.31653  0.84335  1.0000
  H   H4873     1.0  0.61216  0.16004  0.93672  1.0000
  C   C2749     1.0  0.70340  0.21318  0.97069  1.0000
  C   C2750     1.0  0.64486  0.04685  0.87602  1.0000
  C   C2751     1.0  0.58341  0.40864  0.95427  1.0000
  H   H4874     1.0  0.77210  0.26063  0.58032  1.0000
  H   H4875     1.0  0.66879  0.08438  0.84507  1.0000
  C   C2752     1.0  0.68704  0.01238  0.77231  1.0000
  H   H4876     1.0  0.75782  0.03417  0.69887  1.0000
  H   H4877     1.0  0.78311  0.16787  0.75327  1.0000
  H   H4878     1.0  0.68165  0.01904  0.83164  1.0000
  C   C2753     1.0  0.74369  0.42757  0.50391  1.0000
  H   H4879     1.0  0.62906  0.01202  0.95345  1.0000
  C   C2754     1.0  0.72750  0.24991  0.57394  1.0000
  N   N153      1.0  0.72588  0.39521  0.97286  1.0000
  C   C2755     1.0  0.69345  0.25400  0.95504  1.0000
  H   H4880     1.0  0.73577  0.41874  0.52184  1.0000
  H   H4881     1.0  0.75855  0.25550  0.53509  1.0000
  H   H4882     1.0  0.78293  0.00597  0.82975  1.0000
  H   H4883     1.0  0.72111  0.00724  0.74460  1.0000
  C   C2756     1.0  0.72421  0.23523  0.53942  1.0000
  C   C2757     1.0  0.59434  0.08295  0.62003  1.0000
  C   C2758     1.0  0.61011  0.42624  0.55691  1.0000
  C   C2759     1.0  0.60718  0.07499  0.61004  1.0000
  H   H4884     1.0  0.58802  0.36908  0.52802  1.0000
  C   C2760     1.0  0.73429  0.23902  0.58761  1.0000
  C   C2761     1.0  0.73644  0.22652  0.57662  1.0000
  C   C2762     1.0  0.73122  0.22452  0.55286  1.0000
  H   H4885     1.0  0.64985  0.03335  0.97832  1.0000
  H   H4886     1.0  0.74194  0.21827  0.58656  1.0000
  H   H4887     1.0  0.73250  0.21456  0.54494  1.0000
  C   C2763     1.0  0.70501  0.16289  0.71122  1.0000
  C   C2764     1.0  0.69115  0.15695  0.73253  1.0000
  C   C2765     1.0  0.67865  0.14658  0.72883  1.0000
  C   C2766     1.0  0.67988  0.14194  0.70379  1.0000
  C   C2767     1.0  0.69378  0.14781  0.68239  1.0000
  C   C2768     1.0  0.70634  0.15829  0.68607  1.0000
  H   H4888     1.0  0.68998  0.16037  0.75204  1.0000
  H   H4889     1.0  0.66802  0.14224  0.74537  1.0000
  H   H4890     1.0  0.69486  0.14414  0.66305  1.0000
  C   C2769     1.0  0.60828  0.15157  0.95793  1.0000
  H   H4891     1.0  0.61093  0.04545  0.71332  1.0000
  H   H4892     1.0  0.60325  0.00631  0.88638  1.0000
  H   H4893     1.0  0.67987  0.00278  0.79086  1.0000
  Fe  Fe317     1.0  0.76516  0.45961  0.96443  1.0000
  H   H4894     1.0  0.68822  0.02742  0.85799  1.0000
  C   C2770     1.0  0.70390  0.40750  0.96150  1.0000
  H   H4895     1.0  0.73707  0.27492  0.93732  1.0000
  H   H4896     1.0  0.61033  0.47462  0.54888  1.0000
  H   H4897     1.0  0.60628  0.20966  0.82877  1.0000
  H   H4898     1.0  0.59994  0.09248  0.62810  1.0000
  C   C2771     1.0  0.71195  0.20491  0.95153  1.0000
  N   N154      1.0  0.70611  0.19203  0.80267  1.0000
  C   C2772     1.0  0.69015  0.19252  0.79967  1.0000
  C   C2773     1.0  0.70624  0.19077  0.83317  1.0000
  C   C2774     1.0  0.71750  0.20654  0.78304  1.0000
  C   C2775     1.0  0.71055  0.17809  0.79489  1.0000
  C   C2776     1.0  0.69833  0.16228  0.80819  1.0000
  C   C2777     1.0  0.68783  0.19369  0.76952  1.0000
  C   C2778     1.0  0.73431  0.20898  0.78595  1.0000
  C   C2779     1.0  0.70382  0.20498  0.84437  1.0000
  C   C2780     1.0  0.70577  0.20285  0.87444  1.0000
  C   C2781     1.0  0.70475  0.14894  0.80102  1.0000
  C   C2782     1.0  0.67072  0.19031  0.77012  1.0000
  C   C2783     1.0  0.74471  0.22414  0.76545  1.0000
  H   H4899     1.0  0.68691  0.20270  0.80578  1.0000
  H   H4900     1.0  0.68139  0.18233  0.81481  1.0000
  H   H4901     1.0  0.69696  0.18064  0.84735  1.0000
  H   H4902     1.0  0.71714  0.18826  0.83709  1.0000
  H   H4903     1.0  0.71346  0.21704  0.78546  1.0000
  H   H4904     1.0  0.71817  0.20646  0.76057  1.0000
  H   H4905     1.0  0.71356  0.17988  0.77160  1.0000
  H   H4906     1.0  0.72130  0.17665  0.80099  1.0000
  H   H4907     1.0  0.68796  0.16221  0.79996  1.0000
  H   H4908     1.0  0.69465  0.15979  0.83156  1.0000
  H   H4909     1.0  0.69346  0.20564  0.75592  1.0000
  H   H4910     1.0  0.69285  0.18552  0.75942  1.0000
  H   H4911     1.0  0.73921  0.19937  0.78104  1.0000
  H   H4912     1.0  0.73490  0.20957  0.80761  1.0000
  H   H4913     1.0  0.71221  0.21590  0.83105  1.0000
  H   H4914     1.0  0.69199  0.20638  0.84512  1.0000
  H   H4915     1.0  0.69778  0.19185  0.88865  1.0000
  H   H4916     1.0  0.71782  0.20262  0.87470  1.0000
  H   H4917     1.0  0.70303  0.21264  0.88272  1.0000
  H   H4918     1.0  0.71455  0.14776  0.81050  1.0000
  H   H4919     1.0  0.69557  0.13788  0.80960  1.0000
  H   H4920     1.0  0.70876  0.15093  0.77772  1.0000
  H   H4921     1.0  0.66943  0.19265  0.74816  1.0000
  H   H4922     1.0  0.66493  0.17792  0.78102  1.0000
  H   H4923     1.0  0.66491  0.19774  0.78126  1.0000
  H   H4924     1.0  0.74502  0.22399  0.74321  1.0000
  H   H4925     1.0  0.74058  0.23425  0.76990  1.0000
  H   H4926     1.0  0.75669  0.22555  0.76777  1.0000
  H   H4927     1.0  0.76865  0.28364  0.52891  1.0000
  H   H4928     1.0  0.72761  0.00949  0.65921  1.0000
  H   H4929     1.0  0.74392  0.28223  0.87928  1.0000
  C   C2784     1.0  0.59273  0.39888  0.96194  1.0000
  S   S630      1.0  0.76818  0.35882  0.93801  1.0000
  Fe  Fe318     1.0  0.76942  0.21661  0.68211  1.0000
  H   H4930     1.0  0.64080  0.47633  0.81608  1.0000
  S   S631      1.0  0.71624  0.23116  0.51190  1.0000
  H   H4931     1.0  0.72030  0.24683  0.83188  1.0000
  H   H4932     1.0  0.63439  0.05101  0.88235  1.0000
  H   H4933     1.0  0.59287  0.12469  0.86588  1.0000
  H   H4934     1.0  0.62505  0.48713  0.94139  1.0000
  H   H4935     1.0  0.61247  0.02382  0.92902  1.0000
  C   C2785     1.0  0.62372  0.48017  0.50528  1.0000
  H   H4936     1.0  0.74265  0.26929  0.82231  1.0000
  H   H4937     1.0  0.63533  0.06463  0.70268  1.0000
  H   H4938     1.0  0.69138  0.47540  0.81800  1.0000
  H   H4939     1.0  0.71461  0.02230  0.72567  1.0000
  H   H4940     1.0  0.76328  0.40601  0.54849  1.0000
  C   C2786     1.0  0.60169  0.00861  0.90757  1.0000
  N   N155      1.0  0.77710  0.28448  0.58358  1.0000
  C   C2787     1.0  0.69103  0.40596  0.94632  1.0000
  C   C2788     1.0  0.58883  0.38346  0.95991  1.0000
  H   H4941     1.0  0.60163  0.42628  0.83365  1.0000
  H   H4942     1.0  0.75199  0.46690  0.52185  1.0000
  H   H4943     1.0  0.60379  0.05866  0.65093  1.0000
  C   C2789     1.0  0.63003  0.47759  0.89076  1.0000
  H   H4944     1.0  0.59754  0.18152  0.84857  1.0000
  C   C2790     1.0  0.63069  0.01957  0.89713  1.0000
  H   H4945     1.0  0.60136  0.00806  0.79564  1.0000
  C   C2791     1.0  0.60400  0.43864  0.88076  1.0000
  C   C2792     1.0  0.60166  0.45468  0.83657  1.0000
  H   H4946     1.0  0.63332  0.04102  0.93082  1.0000
  H   H4947     1.0  0.68197  0.39497  0.95702  1.0000
  H   H4948     1.0  0.67422  0.48004  0.79590  1.0000
  H   H4949     1.0  0.77821  0.16900  0.71997  1.0000
  C   C2793     1.0  0.77485  0.38873  0.94305  1.0000
  H   H4950     1.0  0.64041  0.41643  0.49609  1.0000
  H   H4951     1.0  0.68938  0.01878  0.72713  1.0000
  C   C2794     1.0  0.59096  0.42648  0.84880  1.0000
  H   H4952     1.0  0.61129  0.02848  0.75783  1.0000
  Fe  Fe319     1.0  0.74517  0.30003  0.97753  1.0000
  H   H4953     1.0  0.69240  0.41824  0.52589  1.0000
  H   H4954     1.0  0.69920  0.01472  0.77359  1.0000
  H   H4955     1.0  0.62265  0.06271  0.62717  1.0000
  H   H4956     1.0  0.60696  0.44945  0.88758  1.0000
  C   C2795     1.0  0.69878  0.45044  0.96383  1.0000
  H   H4957     1.0  0.61214  0.45289  0.82324  1.0000
  H   H4958     1.0  0.59748  0.20849  0.79994  1.0000
  H   H4959     1.0  0.63159  0.01807  0.87545  1.0000
  H   H4960     1.0  0.76954  0.01111  0.85488  1.0000
  H   H4961     1.0  0.61539  0.44283  0.51708  1.0000
  H   H4962     1.0  0.62703  0.44499  0.85104  1.0000
  H   H4963     1.0  0.76060  0.32507  0.86537  1.0000
  H   H4964     1.0  0.71707  0.25634  0.53953  1.0000
  H   H4965     1.0  0.59695  0.08300  0.71442  1.0000
  H   H4966     1.0  0.62109  0.45058  0.54477  1.0000
  H   H4967     1.0  0.73179  0.35164  0.96439  1.0000
  C   C2796     1.0  0.58866  0.00643  0.80030  1.0000
  H   H4968     1.0  0.75012  0.00897  0.82898  1.0000
  H   H4969     1.0  0.58547  0.07748  0.80449  1.0000
  H   H4970     1.0  0.71737  0.46763  0.93202  1.0000
  C   C2797     1.0  0.73817  0.40965  0.95524  1.0000
  H   H4971     1.0  0.60714  0.19319  0.96959  1.0000
  H   H4972     1.0  0.76865  0.29465  0.80347  1.0000
  H   H4973     1.0  0.61190  0.26973  0.48662  1.0000
  N   N156      1.0  0.59378  0.44037  0.86077  1.0000
  S   S632      1.0  0.76569  0.19147  0.68226  1.0000
  H   H4974     1.0  0.68128  0.24840  0.95987  1.0000
  C   C2798     1.0  0.59621  0.46024  0.49837  1.0000
  C   C2799     1.0  0.58463  0.41039  0.87081  1.0000
  C   C2800     1.0  0.60475  0.12433  0.53125  1.0000
  C   C2801     1.0  0.74652  0.02897  0.71479  1.0000
  H   H4975     1.0  0.58776  0.11804  0.61106  1.0000
  H   H4976     1.0  0.58771  0.18039  0.89743  1.0000
  H   H4977     1.0  0.61357  0.20001  0.80297  1.0000
  H   H4978     1.0  0.77677  0.16707  0.65030  1.0000
  H   H4979     1.0  0.71435  0.02694  0.63332  1.0000
  S   S633      1.0  0.62351  0.45256  0.96416  1.0000
  H   H4980     1.0  0.58760  0.45039  0.80663  1.0000
  H   H4981     1.0  0.58555  0.45596  0.90463  1.0000
  H   H4982     1.0  0.65337  0.04344  0.92626  1.0000
  H   H4983     1.0  0.59279  0.21162  0.97874  1.0000
  H   H4984     1.0  0.58605  0.42041  0.95623  1.0000
  C   C2802     1.0  0.68355  0.41660  0.51381  1.0000
  H   H4985     1.0  0.77296  0.29006  0.62413  1.0000
  C   C2803     1.0  0.77118  0.26084  0.52835  1.0000
  S   S634      1.0  0.58568  0.10962  0.72586  1.0000
  H   H4986     1.0  0.59825  0.27522  0.91616  1.0000
  C   C2804     1.0  0.63997  0.02067  0.95108  1.0000
  N   N157      1.0  0.70822  0.00013  0.71593  1.0000
  H   H4987     1.0  0.59783  0.29814  0.88489  1.0000
  H   H4988     1.0  0.61789  0.42446  0.86146  1.0000
  H   H4989     1.0  0.61091  0.47120  0.77891  1.0000
  C   C2805     1.0  0.59801  0.10151  0.57461  1.0000
  H   H4990     1.0  0.60010  0.13061  0.51470  1.0000
  H   H4991     1.0  0.74664  0.25139  0.87878  1.0000
  H   H4992     1.0  0.76724  0.27513  0.79955  1.0000
  C   C2806     1.0  0.60063  0.36706  0.48777  1.0000
  C   C2807     1.0  0.76914  0.28041  0.61479  1.0000
  C   C2808     1.0  0.77496  0.27554  0.53837  1.0000
  S   S635      1.0  0.74525  0.46503  0.94741  1.0000
  H   H4993     1.0  0.75665  0.42852  0.88409  1.0000
  H   H4994     1.0  0.74504  0.40210  0.91646  1.0000
  C   C2809     1.0  0.59652  0.44769  0.54663  1.0000
  C   C2810     1.0  0.78264  0.16295  0.53236  1.0000
  C   C2811     1.0  0.77199  0.26608  0.63388  1.0000
  H   H4995     1.0  0.58933  0.01743  0.74320  1.0000
  S   S636      1.0  0.60884  0.40493  0.97550  1.0000
  H   H4996     1.0  0.67594  0.00785  0.86809  1.0000
  H   H4997     1.0  0.71125  0.22464  0.96821  1.0000
  C   C2812     1.0  0.75371  0.31403  0.86333  1.0000
  C   C2813     1.0  0.76350  0.30228  0.86311  1.0000
  C   C2814     1.0  0.58944  0.05809  0.78807  1.0000
  H   H4998     1.0  0.60791  0.47907  0.88357  1.0000
  H   H4999     1.0  0.69324  0.21496  0.96290  1.0000
  H   H5000     1.0  0.76362  0.31823  0.50678  1.0000
  H   H5001     1.0  0.59399  0.15084  0.83865  1.0000
  H   H5002     1.0  0.61805  0.14660  0.96167  1.0000
  C   C2815     1.0  0.64573  0.47973  0.79275  1.0000
  H   H5003     1.0  0.70503  0.01921  0.68552  1.0000
  C   C2816     1.0  0.71435  0.45834  0.95126  1.0000
  H   H5004     1.0  0.67276  0.00392  0.74712  1.0000
  H   H5005     1.0  0.60539  0.48384  0.80056  1.0000
  H   H5006     1.0  0.60162  0.99803  0.92346  1.0000
  C   C2817     1.0  0.70472  0.00669  0.68822  1.0000
  H   H5007     1.0  0.73438  0.02710  0.68284  1.0000
  H   H5008     1.0  0.70440  0.19346  0.95278  1.0000
  C   C2818     1.0  0.60798  0.47626  0.52760  1.0000
  H   H5009     1.0  0.69699  0.48085  0.76279  1.0000
  H   H5010     1.0  0.65766  0.06516  0.89100  1.0000
  H   H5011     1.0  0.58732  0.10341  0.53902  1.0000
  H   H5012     1.0  0.77966  0.30306  0.54646  1.0000
  H   H5013     1.0  0.58907  0.22964  0.92447  1.0000
  C   C2819     1.0  0.65876  0.02669  0.88969  1.0000
  C   C2820     1.0  0.66411  0.02613  0.85850  1.0000
  C   C2821     1.0  0.65874  0.06082  0.87175  1.0000
  H   H5014     1.0  0.77384  0.30747  0.84496  1.0000
  H   H5015     1.0  0.60290  0.06549  0.60074  1.0000
  H   H5016     1.0  0.73806  0.24080  0.82658  1.0000
  C   C2822     1.0  0.67836  0.01972  0.85390  1.0000
  C   C2823     1.0  0.65925  0.07422  0.84699  1.0000
  H   H5017     1.0  0.77123  0.03333  0.81237  1.0000
  H   H5018     1.0  0.76715  0.30082  0.88309  1.0000
  H   H5019     1.0  0.64463  0.04464  0.85509  1.0000
  C   C2824     1.0  0.58689  0.36123  0.51392  1.0000
  C   C2825     1.0  0.64271  0.03514  0.92601  1.0000
  H   H5020     1.0  0.60665  0.42533  0.57994  1.0000
  H   H5021     1.0  0.59774  0.42948  0.90066  1.0000
  H   H5022     1.0  0.66858  0.03400  0.89471  1.0000
  H   H5023     1.0  0.65720  0.01475  0.90305  1.0000
  H   H5024     1.0  0.66719  0.03785  0.84359  1.0000
  H   H5025     1.0  0.65489  0.01861  0.85265  1.0000
  H   H5026     1.0  0.76698  0.24840  0.93527  1.0000
  H   H5027     1.0  0.66991  0.05770  0.86725  1.0000
  H   H5028     1.0  0.59087  0.22170  0.49611  1.0000
  H   H5029     1.0  0.76570  0.42506  0.91271  1.0000
  H   H5030     1.0  0.74183  0.03847  0.72086  1.0000
  H   H5031     1.0  0.60153  0.06436  0.77642  1.0000
  C   C2826     1.0  0.71938  0.01221  0.72345  1.0000
  H   H5032     1.0  0.77528  0.39214  0.92077  1.0000
  C   C2827     1.0  0.77930  0.99514  0.89409  1.0000
  H   H5033     1.0  0.58575  0.06126  0.69576  1.0000
  C   C2828     1.0  0.76310  0.34019  0.48082  1.0000
  H   H5034     1.0  0.66132  0.07073  0.82685  1.0000
  H   H5035     1.0  0.64823  0.07778  0.85026  1.0000
  H   H5036     1.0  0.72586  0.25966  0.58227  1.0000
  H   H5037     1.0  0.61138  0.04317  0.77572  1.0000
  H   H5038     1.0  0.72759  0.25687  0.90997  1.0000
  C   C2829     1.0  0.77624  0.25712  0.88944  1.0000
  S   S637      1.0  0.65872  0.47571  0.89770  1.0000
  C   C2830     1.0  0.59680  0.26724  0.90245  1.0000
  H   H5039     1.0  0.76044  0.40095  0.58632  1.0000
  H   H5040     1.0  0.76829  0.99634  0.90653  1.0000
  C   C2831     1.0  0.73869  0.26103  0.84361  1.0000
  H   H5041     1.0  0.76030  0.41390  0.49781  1.0000
  C   C2832     1.0  0.61091  0.27303  0.87622  1.0000
  C   C2833     1.0  0.58507  0.29492  0.89264  1.0000
  C   C2834     1.0  0.72598  0.45434  0.96345  1.0000
  H   H5042     1.0  0.62567  0.28800  0.89412  1.0000
  C   C2835     1.0  0.62591  0.27807  0.88457  1.0000
  H   H5043     1.0  0.68291  0.02294  0.77343  1.0000
  C   C2836     1.0  0.60105  0.47395  0.79215  1.0000
  H   H5044     1.0  0.71524  0.21209  0.92926  1.0000
  H   H5045     1.0  0.74929  0.40955  0.96088  1.0000
  H   H5046     1.0  0.67460  0.42252  0.52115  1.0000
  H   H5047     1.0  0.75643  0.27866  0.61784  1.0000
  H   H5048     1.0  0.69572  0.40624  0.92386  1.0000
  H   H5049     1.0  0.59832  0.47179  0.95219  1.0000
  H   H5050     1.0  0.66026  0.43983  0.49498  1.0000
  H   H5051     1.0  0.61316  0.03276  0.89292  1.0000
  H   H5052     1.0  0.62134  0.42318  0.55191  1.0000
  H   H5053     1.0  0.61210  0.26347  0.86599  1.0000
  H   H5054     1.0  0.60963  0.28291  0.86036  1.0000
  C   C2837     1.0  0.61177  0.44273  0.53955  1.0000
  H   H5055     1.0  0.68990  0.45354  0.95416  1.0000
  H   H5056     1.0  0.74093  0.01029  0.69623  1.0000
  S   S638      1.0  0.77667  0.35118  0.49506  1.0000
  C   C2838     1.0  0.75227  0.25936  0.85727  1.0000
  H   H5057     1.0  0.58529  0.03500  0.72796  1.0000
  C   C2839     1.0  0.77434  0.28496  0.80476  1.0000
  H   H5058     1.0  0.62769  0.26824  0.89993  1.0000
  H   H5059     1.0  0.63582  0.28176  0.86549  1.0000
  H   H5060     1.0  0.58903  0.26187  0.85445  1.0000
  H   H5061     1.0  0.75777  0.26749  0.90472  1.0000
  N   N158      1.0  0.76278  0.27412  0.85901  1.0000
  H   H5062     1.0  0.59795  0.17376  0.80402  1.0000
  H   H5063     1.0  0.75912  0.25265  0.84598  1.0000
  H   H5064     1.0  0.63085  0.00806  0.91002  1.0000
  H   H5065     1.0  0.78203  0.02482  0.78793  1.0000
  H   H5066     1.0  0.75717  0.26981  0.57712  1.0000
  C   C2840     1.0  0.69341  0.99512  0.73931  1.0000
  H   H5067     1.0  0.75209  0.43704  0.91314  1.0000
  C   C2841     1.0  0.68535  0.00812  0.74492  1.0000
  C   C2842     1.0  0.69884  0.26413  0.97075  1.0000
  S   S639      1.0  0.65221  0.22001  0.95177  1.0000
  H   H5068     1.0  0.76977  0.24651  0.88544  1.0000
  H   H5069     1.0  0.72567  0.23687  0.86196  1.0000
  C   C2843     1.0  0.61317  0.06793  0.63486  1.0000
  H   H5070     1.0  0.58784  0.44918  0.49972  1.0000
  H   H5071     1.0  0.64962  0.01504  0.94792  1.0000
  H   H5072     1.0  0.71232  0.41884  0.95058  1.0000
  C   C2844     1.0  0.60644  0.03860  0.75969  1.0000
  H   H5073     1.0  0.58872  0.13965  0.80425  1.0000
  H   H5074     1.0  0.59031  0.01125  0.91337  1.0000
  H   H5075     1.0  0.63944  0.43004  0.88286  1.0000
  H   H5076     1.0  0.74503  0.30209  0.48785  1.0000
  H   H5077     1.0  0.63112  0.44325  0.89921  1.0000
  C   C2845     1.0  0.75483  0.42660  0.90732  1.0000
  C   C2846     1.0  0.59174  0.45976  0.81630  1.0000
  C   C2847     1.0  0.70908  0.48309  0.83742  1.0000
  S   S640      1.0  0.77798  0.00055  0.74626  1.0000
  H   H5078     1.0  0.74958  0.28946  0.84198  1.0000
  C   C2848     1.0  0.76186  0.00850  0.81843  1.0000
  H   H5079     1.0  0.77609  0.28066  0.88785  1.0000
  C   C2849     1.0  0.75877  0.32384  0.49068  1.0000
  C   C2850     1.0  0.71460  0.27186  0.96438  1.0000
  H   H5080     1.0  0.76263  0.17087  0.54906  1.0000
  H   H5081     1.0  0.71001  0.99554  0.81414  1.0000
  H   H5082     1.0  0.61423  0.11995  0.52065  1.0000
  H   H5083     1.0  0.61711  0.08358  0.59399  1.0000
  H   H5084     1.0  0.76655  0.42913  0.56826  1.0000
  C   C2851     1.0  0.64585  0.48462  0.88285  1.0000
  C   C2852     1.0  0.75758  0.42482  0.49041  1.0000
  H   H5085     1.0  0.61771  0.07698  0.64497  1.0000
  C   C2853     1.0  0.73546  0.01929  0.70223  1.0000
  H   H5086     1.0  0.76447  0.25191  0.67732  1.0000
  H   H5087     1.0  0.76945  0.25576  0.62578  1.0000
  C   C2854     1.0  0.62839  0.43266  0.89168  1.0000
  N   N159      1.0  0.68983  0.19735  0.64496  1.0000
  C   C2855     1.0  0.70392  0.19273  0.63150  1.0000
  C   C2856     1.0  0.69507  0.21090  0.65663  1.0000
  C   C2857     1.0  0.67937  0.18355  0.66803  1.0000
  C   C2858     1.0  0.68104  0.20227  0.62368  1.0000
  C   C2859     1.0  0.69058  0.21511  0.59650  1.0000
  C   C2860     1.0  0.70118  0.18044  0.61460  1.0000
  C   C2861     1.0  0.66481  0.18652  0.68594  1.0000
  C   C2862     1.0  0.70203  0.20730  0.68232  1.0000
  C   C2863     1.0  0.70664  0.22187  0.69233  1.0000
  C   C2864     1.0  0.68050  0.21910  0.57659  1.0000
  C   C2865     1.0  0.71640  0.17730  0.60108  1.0000
  C   C2866     1.0  0.65618  0.17232  0.71063  1.0000
  H   H5088     1.0  0.70944  0.18788  0.64797  1.0000
  H   H5089     1.0  0.71287  0.20311  0.61726  1.0000
  H   H5090     1.0  0.70413  0.22026  0.63997  1.0000
  H   H5091     1.0  0.68547  0.21636  0.66254  1.0000
  H   H5092     1.0  0.68589  0.17863  0.68258  1.0000
  H   H5093     1.0  0.67508  0.17392  0.65894  1.0000
  H   H5094     1.0  0.67529  0.19209  0.61728  1.0000
  H   H5095     1.0  0.67146  0.20683  0.63347  1.0000
  H   H5096     1.0  0.70009  0.21131  0.58462  1.0000
  H   H5097     1.0  0.69562  0.22593  0.60169  1.0000
  H   H5098     1.0  0.69354  0.16927  0.62863  1.0000
  H   H5099     1.0  0.69586  0.18436  0.59727  1.0000
  H   H5100     1.0  0.65674  0.18888  0.67276  1.0000
  H   H5101     1.0  0.66776  0.19648  0.69497  1.0000
  H   H5102     1.0  0.69369  0.19836  0.70058  1.0000
  H   H5103     1.0  0.71252  0.20312  0.67654  1.0000
  H   H5104     1.0  0.69636  0.22612  0.69963  1.0000
  H   H5105     1.0  0.71195  0.21914  0.71021  1.0000
  H   H5106     1.0  0.71524  0.23121  0.67497  1.0000
  H   H5107     1.0  0.67078  0.22317  0.58722  1.0000
  H   H5108     1.0  0.68753  0.22855  0.55765  1.0000
  H   H5109     1.0  0.67588  0.20884  0.56934  1.0000
  H   H5110     1.0  0.71416  0.16853  0.58903  1.0000
  H   H5111     1.0  0.72438  0.18811  0.58621  1.0000
  H   H5112     1.0  0.72201  0.17271  0.61756  1.0000
  H   H5113     1.0  0.64519  0.17418  0.72189  1.0000
  H   H5114     1.0  0.65346  0.16178  0.70290  1.0000
  H   H5115     1.0  0.66323  0.17034  0.72598  1.0000
  C   C2867     1.0  0.58805  0.19135  0.90267  1.0000
  H   H5116     1.0  0.74332  0.30957  0.88162  1.0000
  H   H5117     1.0  0.68560  0.41581  0.94684  1.0000
  H   H5118     1.0  0.76383  0.02830  0.78381  1.0000
  C   C2868     1.0  0.61449  0.02232  0.90727  1.0000
  N   N160      1.0  0.59556  0.46253  0.52755  1.0000
  H   H5119     1.0  0.72260  0.20319  0.95767  1.0000
  H   H5120     1.0  0.58808  0.13646  0.75689  1.0000
  H   H5121     1.0  0.69952  0.01012  0.63455  1.0000
  C   C2869     1.0  0.76180  0.26196  0.66408  1.0000
  C   C2870     1.0  0.77373  0.29939  0.56947  1.0000
  C   C2871     1.0  0.60295  0.20219  0.81498  1.0000
  C   C2872     1.0  0.73210  0.38122  0.97082  1.0000
  H   H5122     1.0  0.76396  0.27190  0.67356  1.0000
  H   H5123     1.0  0.76114  0.29753  0.57078  1.0000
  H   H5124     1.0  0.58835  0.07388  0.57014  1.0000
  C   C2873     1.0  0.76998  0.27197  0.57117  1.0000
  C   C2874     1.0  0.75420  0.28659  0.86071  1.0000
  H   H5125     1.0  0.58691  0.13161  0.89670  1.0000
  S   S641      1.0  0.77545  0.22545  0.63487  1.0000
  H   H5126     1.0  0.62152  0.42274  0.91000  1.0000
  H   H5127     1.0  0.58939  0.05161  0.80950  1.0000
  Fe  Fe320     1.0  0.77025  0.20019  0.63513  1.0000
  C   C2875     1.0  0.61319  0.05079  0.73053  1.0000
  H   H5128     1.0  0.74755  0.99344  0.88472  1.0000
  H   H5129     1.0  0.76702  0.32811  0.55669  1.0000
  N   N161      1.0  0.58907  0.03349  0.76959  1.0000
  H   H5130     1.0  0.61775  0.25289  0.47956  1.0000
  H   H5131     1.0  0.73530  0.42027  0.96013  1.0000
  H   H5132     1.0  0.63656  0.48226  0.78244  1.0000
  H   H5133     1.0  0.74940  0.25866  0.66427  1.0000
  H   H5134     1.0  0.62852  0.46998  0.50551  1.0000
  Fe  Fe321     1.0  0.64044  0.99834  0.81868  1.0000
  H   H5135     1.0  0.59365  0.15805  0.77795  1.0000
  C   C2876     1.0  0.59184  0.11090  0.55180  1.0000
  C   C2877     1.0  0.77030  0.02478  0.79956  1.0000
  C   C2878     1.0  0.58700  0.17589  0.81494  1.0000
  H   H5136     1.0  0.59012  0.02748  0.81324  1.0000
  H   H5137     1.0  0.70659  0.48434  0.96992  1.0000
  Fe  Fe322     1.0  0.77929  0.30622  0.94876  1.0000
  H   H5138     1.0  0.77489  0.26381  0.50487  1.0000
  H   H5139     1.0  0.70407  0.48233  0.71192  1.0000
  Fe  Fe323     1.0  0.62501  0.42771  0.97592  1.0000
  C   C2879     1.0  0.73985  0.44155  0.49396  1.0000
  S   S642      1.0  0.78093  0.44692  0.94376  1.0000
  H   H5140     1.0  0.70083  0.48244  0.85760  1.0000
  H   H5141     1.0  0.58478  0.15714  0.86693  1.0000
  H   H5142     1.0  0.58481  0.24484  0.88256  1.0000
  H   H5143     1.0  0.77028  0.31242  0.60156  1.0000
  H   H5144     1.0  0.74375  0.38286  0.97478  1.0000
  H   H5145     1.0  0.77722  0.25226  0.53703  1.0000
  H   H5146     1.0  0.75500  0.46207  0.55674  1.0000
  H   H5147     1.0  0.60759  0.45873  0.48858  1.0000
  H   H5148     1.0  0.71261  0.41851  0.48341  1.0000
  C   C2880     1.0  0.74822  0.31462  0.47994  1.0000
  C   C2881     1.0  0.63895  0.02510  0.97907  1.0000
  C   C2882     1.0  0.58449  0.02224  0.79857  1.0000
  C   C2883     1.0  0.77703  0.40014  0.95793  1.0000
  C   C2884     1.0  0.69085  0.42359  0.48209  1.0000
  H   H5149     1.0  0.58503  0.31921  0.88691  1.0000
  H   H5150     1.0  0.58398  0.46709  0.87146  1.0000
  C   C2885     1.0  0.65109  0.44109  0.48475  1.0000
  C   C2886     1.0  0.76912  0.40663  0.56574  1.0000
  H   H5151     1.0  0.58693  0.43792  0.54690  1.0000
  H   H5152     1.0  0.77928  0.41228  0.94707  1.0000
  H   H5153     1.0  0.78090  0.18597  0.73373  1.0000
  H   H5154     1.0  0.59137  0.48517  0.97024  1.0000
  C   C2887     1.0  0.63977  0.42783  0.48540  1.0000
  H   H5155     1.0  0.77555  0.16944  0.57167  1.0000
  H   H5156     1.0  0.59403  0.39719  0.84295  1.0000
  H   H5157     1.0  0.59241  0.40823  0.88470  1.0000
  C   C2888     1.0  0.77497  0.17277  0.54928  1.0000
  H   H5158     1.0  0.58616  0.47604  0.57201  1.0000
  H   H5159     1.0  0.78175  0.42333  0.58221  1.0000
  H   H5160     1.0  0.71312  0.99289  0.66006  1.0000
  C   C2889     1.0  0.77859  0.31360  0.58115  1.0000
  H   H5161     1.0  0.77638  0.15065  0.54230  1.0000
  H   H5162     1.0  0.78196  0.43111  0.51858  1.0000
  C   C2890     1.0  0.77857  0.32870  0.56082  1.0000
  C   C2891     1.0  0.76093  0.46717  0.53391  1.0000
  C   C2892     1.0  0.71181  0.01435  0.63440  1.0000
  H   H5163     1.0  0.76515  0.44589  0.52686  1.0000
  H   H5164     1.0  0.71001  0.48546  0.79363  1.0000
  Fe  Fe324     1.0  0.78202  0.00204  0.69991  1.0000
  H   H5165     1.0  0.77769  0.05119  0.71972  1.0000
  Fe  Fe325     1.0  0.68736  0.47825  0.48083  1.0000
  H   H5166     1.0  0.78146  0.33860  0.57013  1.0000
  H   H5167     1.0  0.71987  0.98966  0.88575  1.0000
  H   H5168     1.0  0.68258  0.48601  0.74603  1.0000
  C   C2893     1.0  0.71520  0.00521  0.66077  1.0000
  H   H5169     1.0  0.77918  0.45414  0.56317  1.0000
  H   H5170     1.0  0.69270  0.00099  0.68843  1.0000
  H   H5171     1.0  0.66748  0.48928  0.82136  1.0000
  H   H5172     1.0  0.77821  0.40016  0.56389  1.0000
  H   H5173     1.0  0.63818  0.48867  0.53120  1.0000
  C   C2894     1.0  0.77835  0.25264  0.91936  1.0000
  H   H5174     1.0  0.76715  0.47948  0.53045  1.0000
  C   C2895     1.0  0.77207  0.45785  0.52377  1.0000
  S   S643      1.0  0.78172  0.22415  0.71383  1.0000
  C   C2896     1.0  0.77619  0.42351  0.56450  1.0000
  H   H5175     1.0  0.58921  0.24885  0.49046  1.0000
  H   H5176     1.0  0.78073  0.18534  0.54003  1.0000
  H   H5177     1.0  0.78102  0.16607  0.51064  1.0000
  H   H5178     1.0  0.77723  0.46308  0.50074  1.0000
  H   H5179     1.0  0.78296  0.27014  0.83338  1.0000
  H   H5180     1.0  0.59776  0.48498  0.47947  1.0000
  H   H5181     1.0  0.76395  0.95316  0.11226  1.0000
  H   H5182     1.0  0.72411  0.97287  0.24514  1.0000
  C   C2897     1.0  0.59335  0.91056  0.98976  1.0000
  Fe  Fe326     1.0  0.75522  0.59584  0.23642  1.0000
  S   S644      1.0  0.75490  0.57296  0.26428  1.0000
  S   S645      1.0  0.73922  0.59814  0.20707  1.0000
  Fe  Fe327     1.0  0.75552  0.58569  0.29795  1.0000
  S   S646      1.0  0.73922  0.57614  0.34163  1.0000
  H   H5183     1.0  0.63977  0.92168  0.10962  1.0000
  S   S647      1.0  0.75435  0.60833  0.27089  1.0000
  H   H5184     1.0  0.69187  0.54082  0.40307  1.0000
  S   S648      1.0  0.62166  0.80016  0.25769  1.0000
  Fe  Fe328     1.0  0.67894  0.54275  0.15026  1.0000
  S   S649      1.0  0.65914  0.55390  0.15713  1.0000
  S   S650      1.0  0.69753  0.54272  0.17500  1.0000
  Fe  Fe329     1.0  0.66663  0.52733  0.10647  1.0000
  S   S651      1.0  0.64616  0.53758  0.11005  1.0000
  S   S652      1.0  0.67285  0.51188  0.07771  1.0000
  Fe  Fe330     1.0  0.66296  0.55946  0.10979  1.0000
  S   S653      1.0  0.66512  0.58277  0.07980  1.0000
  Fe  Fe331     1.0  0.64399  0.53104  0.15696  1.0000
  S   S654      1.0  0.62206  0.51925  0.19229  1.0000
  S   S655      1.0  0.68375  0.54968  0.10278  1.0000
  S   S656      1.0  0.66350  0.51943  0.15350  1.0000
  H   H5185     1.0  0.66231  0.60976  0.00388  1.0000
  C   C2898     1.0  0.65085  0.68122  0.98154  1.0000
  C   C2899     1.0  0.59363  0.49825  0.21116  1.0000
  C   C2900     1.0  0.70117  0.97250  0.23884  1.0000
  H   H5186     1.0  0.60550  0.72933  0.13171  1.0000
  H   H5187     1.0  0.68072  0.52305  0.39896  1.0000
  Fe  Fe332     1.0  0.62863  0.97314  0.10337  1.0000
  S   S657      1.0  0.60708  0.95377  0.12772  1.0000
  C   C2901     1.0  0.62715  0.74660  0.19149  1.0000
  S   S658      1.0  0.65004  0.96757  0.08164  1.0000
  C   C2902     1.0  0.72190  0.73845  0.04354  1.0000
  Fe  Fe333     1.0  0.65699  0.66253  0.09859  1.0000
  S   S659      1.0  0.65829  0.68123  0.12134  1.0000
  S   S660      1.0  0.64779  0.63804  0.12702  1.0000
  Fe  Fe334     1.0  0.66993  0.68590  0.04047  1.0000
  S   S661      1.0  0.67240  0.70653  0.05891  1.0000
  C   C2903     1.0  0.60269  0.65603  0.17144  1.0000
  Fe  Fe335     1.0  0.68157  0.69245  0.09122  1.0000
  S   S662      1.0  0.70329  0.69914  0.10595  1.0000
  Fe  Fe336     1.0  0.64883  0.69356  0.08764  1.0000
  S   S663      1.0  0.62962  0.70442  0.10306  1.0000
  S   S664      1.0  0.68090  0.67274  0.07064  1.0000
  S   S665      1.0  0.64576  0.67396  0.06690  1.0000
  C   C2904     1.0  0.76544  0.79910  0.03144  1.0000
  C   C2905     1.0  0.66233  0.95775  0.19980  1.0000
  H   H5188     1.0  0.67267  0.53853  0.35960  1.0000
  H   H5189     1.0  0.71001  0.51615  0.07763  1.0000
  S   S666      1.0  0.75375  0.96865  0.26065  1.0000
  C   C2906     1.0  0.61170  0.74161  0.12754  1.0000
  Fe  Fe337     1.0  0.67889  0.85135  0.32637  1.0000
  S   S667      1.0  0.68946  0.83913  0.35838  1.0000
  S   S668      1.0  0.65344  0.84132  0.32904  1.0000
  Fe  Fe338     1.0  0.70820  0.87849  0.30205  1.0000
  S   S669      1.0  0.72092  0.86795  0.33230  1.0000
  S   S670      1.0  0.71711  0.90043  0.26495  1.0000
  Fe  Fe339     1.0  0.71094  0.84544  0.32248  1.0000
  S   S671      1.0  0.72217  0.82550  0.31829  1.0000
  Fe  Fe340     1.0  0.69845  0.86232  0.36614  1.0000
  S   S672      1.0  0.69291  0.86560  0.41146  1.0000
  S   S673      1.0  0.69979  0.85627  0.29012  1.0000
  S   S674      1.0  0.68640  0.87430  0.33616  1.0000
  Fe  Fe341     1.0  0.74025  0.76359  0.17433  1.0000
  S   S675      1.0  0.75348  0.78804  0.15035  1.0000
  S   S676      1.0  0.71762  0.75449  0.16380  1.0000
  Fe  Fe342     1.0  0.76371  0.76021  0.20962  1.0000
  C   C2907     1.0  0.72791  0.79691  0.10742  1.0000
  Fe  Fe343     1.0  0.75633  0.79146  0.19241  1.0000
  S   S677      1.0  0.75479  0.81469  0.20136  1.0000
  C   C2908     1.0  0.60845  0.90528  0.11746  1.0000
  S   S678      1.0  0.74147  0.76773  0.21684  1.0000
  S   S679      1.0  0.76118  0.75413  0.16919  1.0000
  C   C2909     1.0  0.70839  0.93747  0.15223  1.0000
  C   C2910     1.0  0.73023  0.82267  0.28496  1.0000
  C   C2911     1.0  0.73710  0.83514  0.26093  1.0000
  C   C2912     1.0  0.74438  0.83250  0.23533  1.0000
  C   C2913     1.0  0.74451  0.81737  0.23330  1.0000
  C   C2914     1.0  0.73704  0.80486  0.25697  1.0000
  C   C2915     1.0  0.73028  0.80755  0.28284  1.0000
  H   H5190     1.0  0.73716  0.84685  0.26224  1.0000
  H   H5191     1.0  0.75003  0.84225  0.21704  1.0000
  H   H5192     1.0  0.73676  0.79316  0.25539  1.0000
  H   H5193     1.0  0.72503  0.79787  0.30129  1.0000
  C   C2916     1.0  0.70089  0.86738  0.44077  1.0000
  H   H5194     1.0  0.60786  0.74843  0.22422  1.0000
  C   C2917     1.0  0.71621  0.86728  0.44028  1.0000
  C   C2918     1.0  0.71109  0.50399  0.08164  1.0000
  H   H5195     1.0  0.72348  0.86540  0.42208  1.0000
  C   C2919     1.0  0.74351  0.94978  0.26138  1.0000
  C   C2920     1.0  0.74045  0.93759  0.28596  1.0000
  C   C2921     1.0  0.73230  0.92244  0.28746  1.0000
  C   C2922     1.0  0.72720  0.91931  0.26434  1.0000
  C   C2923     1.0  0.73039  0.93144  0.23965  1.0000
  C   C2924     1.0  0.73841  0.94663  0.23819  1.0000
  H   H5196     1.0  0.74451  0.93990  0.30383  1.0000
  H   H5197     1.0  0.73009  0.91309  0.30626  1.0000
  H   H5198     1.0  0.72666  0.92903  0.22156  1.0000
  H   H5199     1.0  0.74067  0.95588  0.21916  1.0000
  C   C2925     1.0  0.70685  0.71432  0.12267  1.0000
  C   C2926     1.0  0.72040  0.71716  0.13191  1.0000
  C   C2927     1.0  0.72382  0.72933  0.14473  1.0000
  C   C2928     1.0  0.71375  0.73887  0.14824  1.0000
  C   C2929     1.0  0.70018  0.73601  0.13904  1.0000
  C   C2930     1.0  0.69673  0.72380  0.12632  1.0000
  H   H5200     1.0  0.72831  0.70990  0.12914  1.0000
  H   H5201     1.0  0.73421  0.73131  0.15196  1.0000
  H   H5202     1.0  0.69231  0.74332  0.14174  1.0000
  H   H5203     1.0  0.68630  0.72178  0.11918  1.0000
  H   H5204     1.0  0.74483  0.74260  0.04900  1.0000
  C   C2931     1.0  0.65964  0.50132  0.06285  1.0000
  C   C2932     1.0  0.59627  0.95021  0.08100  1.0000
  H   H5205     1.0  0.67951  0.54241  0.23839  1.0000
  C   C2933     1.0  0.58617  0.94254  0.06766  1.0000
  H   H5206     1.0  0.71998  0.93537  0.14598  1.0000
  H   H5207     1.0  0.58935  0.49734  0.13618  1.0000
  H   H5208     1.0  0.74209  0.74492  0.28991  1.0000
  C   C2934     1.0  0.77079  0.51042  0.00282  1.0000
  H   H5209     1.0  0.64594  0.68311  0.00172  1.0000
  H   H5210     1.0  0.71653  0.50172  0.09949  1.0000
  H   H5211     1.0  0.69443  0.91557  0.33526  1.0000
  H   H5212     1.0  0.77714  0.53953  0.22855  1.0000
  C   C2935     1.0  0.61123  0.69552  0.10024  1.0000
  C   C2936     1.0  0.60967  0.68760  0.07952  1.0000
  H   H5213     1.0  0.61979  0.68738  0.06426  1.0000
  H   H5214     1.0  0.58860  0.91017  0.01228  1.0000
  C   C2937     1.0  0.59461  0.94461  0.11001  1.0000
  C   C2938     1.0  0.63054  0.92570  0.12193  1.0000
  H   H5215     1.0  0.58924  0.69396  0.22991  1.0000
  H   H5216     1.0  0.76336  0.79634  0.34405  1.0000
  H   H5217     1.0  0.60527  0.96052  0.06888  1.0000
  H   H5218     1.0  0.60500  0.70420  0.18002  1.0000
  N   N162      1.0  0.74775  0.77242  0.06273  1.0000
  S   S680      1.0  0.76806  0.74282  0.24520  1.0000
  H   H5219     1.0  0.64933  0.58132  0.02839  1.0000
  H   H5220     1.0  0.62073  0.90315  0.15129  1.0000
  H   H5221     1.0  0.72398  0.78825  0.12841  1.0000
  C   C2939     1.0  0.74969  0.96798  0.12332  1.0000
  C   C2940     1.0  0.66026  0.59796  0.09343  1.0000
  C   C2941     1.0  0.65118  0.59513  0.12101  1.0000
  C   C2942     1.0  0.64724  0.60751  0.13097  1.0000
  C   C2943     1.0  0.65247  0.62275  0.11352  1.0000
  C   C2944     1.0  0.66157  0.62560  0.08597  1.0000
  C   C2945     1.0  0.66542  0.61321  0.07596  1.0000
  H   H5222     1.0  0.64711  0.58340  0.13458  1.0000
  H   H5223     1.0  0.64023  0.60525  0.15234  1.0000
  H   H5224     1.0  0.66571  0.63734  0.07250  1.0000
  H   H5225     1.0  0.67258  0.61542  0.05473  1.0000
  C   C2946     1.0  0.62992  0.81269  0.27654  1.0000
  C   C2947     1.0  0.62147  0.81431  0.30193  1.0000
  C   C2948     1.0  0.62878  0.82352  0.31719  1.0000
  C   C2949     1.0  0.64459  0.83118  0.30739  1.0000
  C   C2950     1.0  0.65297  0.82983  0.28169  1.0000
  C   C2951     1.0  0.64566  0.82063  0.26640  1.0000
  H   H5226     1.0  0.60938  0.80828  0.31004  1.0000
  H   H5227     1.0  0.62217  0.82450  0.33701  1.0000
  H   H5228     1.0  0.66511  0.83573  0.27376  1.0000
  H   H5229     1.0  0.65229  0.81951  0.24673  1.0000
  C   C2952     1.0  0.73799  0.55674  0.35828  1.0000
  C   C2953     1.0  0.72830  0.54983  0.38563  1.0000
  C   C2954     1.0  0.72738  0.53442  0.39947  1.0000
  C   C2955     1.0  0.73597  0.52581  0.38581  1.0000
  C   C2956     1.0  0.74532  0.53262  0.35820  1.0000
  C   C2957     1.0  0.74645  0.54809  0.34454  1.0000
  H   H5230     1.0  0.72162  0.55643  0.39626  1.0000
  H   H5231     1.0  0.66628  0.53964  0.27220  1.0000
  H   H5232     1.0  0.75191  0.52596  0.34750  1.0000
  H   H5233     1.0  0.75396  0.55334  0.32347  1.0000
  C   C2958     1.0  0.72734  0.58256  0.19910  1.0000
  C   C2959     1.0  0.71815  0.58587  0.18039  1.0000
  C   C2960     1.0  0.70879  0.57385  0.17305  1.0000
  C   C2961     1.0  0.70862  0.55836  0.18419  1.0000
  C   C2962     1.0  0.71784  0.55506  0.20285  1.0000
  C   C2963     1.0  0.72706  0.56706  0.21045  1.0000
  H   H5234     1.0  0.71838  0.59781  0.17130  1.0000
  H   H5235     1.0  0.70188  0.57657  0.15846  1.0000
  H   H5236     1.0  0.71778  0.54312  0.21160  1.0000
  H   H5237     1.0  0.73413  0.56433  0.22470  1.0000
  H   H5238     1.0  0.67980  0.86998  0.46554  1.0000
  H   H5239     1.0  0.66470  0.95325  0.18085  1.0000
  H   H5240     1.0  0.62023  0.77369  0.22974  1.0000
  C   C2964     1.0  0.73173  0.53423  0.12215  1.0000
  S   S681      1.0  0.73554  0.50667  0.40265  1.0000
  C   C2965     1.0  0.59582  0.59525  0.16976  1.0000
  S   S682      1.0  0.58591  0.79056  0.22760  1.0000
  H   H5241     1.0  0.76428  0.89625  0.22286  1.0000
  H   H5242     1.0  0.71617  0.73116  0.06539  1.0000
  H   H5243     1.0  0.63142  0.58579  0.04256  1.0000
  H   H5244     1.0  0.71387  0.74492  0.03571  1.0000
  H   H5245     1.0  0.75298  0.55230  0.10610  1.0000
  H   H5246     1.0  0.75511  0.55063  0.19908  1.0000
  C   C2966     1.0  0.61200  0.93506  0.01435  1.0000
  C   C2967     1.0  0.64172  0.59676  0.99743  1.0000
  C   C2968     1.0  0.72224  0.86996  0.46317  1.0000
  C   C2969     1.0  0.69162  0.86970  0.46493  1.0000
  H   H5247     1.0  0.77801  0.50254  0.99717  1.0000
  H   H5248     1.0  0.73424  0.87034  0.46209  1.0000
  H   H5249     1.0  0.77914  0.60455  0.38343  1.0000
  C   C2970     1.0  0.76548  0.55016  0.18335  1.0000
  H   H5250     1.0  0.76821  0.73537  0.11498  1.0000
  N   N163      1.0  0.61884  0.73627  0.17639  1.0000
  C   C2971     1.0  0.59907  0.88843  0.07784  1.0000
  C   C2972     1.0  0.71027  0.98641  0.13081  1.0000
  H   H5251     1.0  0.64033  0.49623  0.13092  1.0000
  H   H5252     1.0  0.59671  0.72979  0.20722  1.0000
  C   C2973     1.0  0.67745  0.96514  0.20682  1.0000
  H   H5253     1.0  0.72576  0.72476  0.98106  1.0000
  H   H5254     1.0  0.59137  0.71539  0.17227  1.0000
  H   H5255     1.0  0.76882  0.80069  0.24716  1.0000
  H   H5256     1.0  0.61333  0.64136  0.00713  1.0000
  H   H5257     1.0  0.61295  0.51397  0.14187  1.0000
  H   H5258     1.0  0.75776  0.77893  0.01747  1.0000
  H   H5259     1.0  0.76183  0.58017  0.37988  1.0000
  C   C2974     1.0  0.73691  0.74966  0.04283  1.0000
  H   H5260     1.0  0.77315  0.68933  0.31563  1.0000
  H   H5261     1.0  0.68357  0.97585  0.18946  1.0000
  C   C2975     1.0  0.74328  0.54792  0.12551  1.0000
  C   C2976     1.0  0.58975  0.88157  0.05940  1.0000
  H   H5262     1.0  0.60817  0.59686  0.15911  1.0000
  H   H5263     1.0  0.78207  0.78887  0.24670  1.0000
  C   C2977     1.0  0.78015  0.71160  0.22609  1.0000
  C   C2978     1.0  0.75886  0.78142  0.29689  1.0000
  H   H5264     1.0  0.75082  0.90065  0.20257  1.0000
  C   C2979     1.0  0.72082  0.50163  0.05489  1.0000
  H   H5265     1.0  0.69618  0.52897  0.34876  1.0000
  H   H5266     1.0  0.67786  0.92519  0.29307  1.0000
  H   H5267     1.0  0.76145  0.80565  0.04659  1.0000
  N   N164      1.0  0.69557  0.63935  0.14181  1.0000
  C   C2980     1.0  0.68266  0.62492  0.15671  1.0000
  C   C2981     1.0  0.69012  0.65340  0.14670  1.0000
  C   C2982     1.0  0.69870  0.64076  0.11038  1.0000
  C   C2983     1.0  0.71029  0.63883  0.15086  1.0000
  C   C2984     1.0  0.70862  0.62989  0.18192  1.0000
  C   C2985     1.0  0.68528  0.60971  0.14954  1.0000
  C   C2986     1.0  0.71132  0.65527  0.09077  1.0000
  C   C2987     1.0  0.68602  0.65455  0.17762  1.0000
  C   C2988     1.0  0.67876  0.66812  0.17985  1.0000
  C   C2989     1.0  0.72419  0.63242  0.18921  1.0000
  C   C2990     1.0  0.67493  0.59529  0.17214  1.0000
  C   C2991     1.0  0.71501  0.65415  0.06018  1.0000
  H   H5268     1.0  0.67171  0.62647  0.15153  1.0000
  H   H5269     1.0  0.68008  0.62292  0.18000  1.0000
  H   H5270     1.0  0.69911  0.66430  0.13501  1.0000
  H   H5271     1.0  0.67987  0.65409  0.13809  1.0000
  H   H5272     1.0  0.68787  0.64067  0.10341  1.0000
  H   H5273     1.0  0.70250  0.63056  0.10545  1.0000
  H   H5274     1.0  0.71756  0.63330  0.13743  1.0000
  H   H5275     1.0  0.71746  0.65087  0.14713  1.0000
  H   H5276     1.0  0.70422  0.61721  0.18510  1.0000
  H   H5277     1.0  0.70055  0.63343  0.19745  1.0000
  H   H5278     1.0  0.68251  0.60918  0.12910  1.0000
  H   H5279     1.0  0.69745  0.60914  0.14736  1.0000
  H   H5280     1.0  0.72219  0.65654  0.09758  1.0000
  H   H5281     1.0  0.70743  0.66605  0.09067  1.0000
  H   H5282     1.0  0.67767  0.64391  0.19207  1.0000
  H   H5283     1.0  0.69668  0.65680  0.18501  1.0000
  H   H5284     1.0  0.67646  0.66909  0.20199  1.0000
  H   H5285     1.0  0.68667  0.67924  0.16589  1.0000
  H   H5286     1.0  0.66766  0.66623  0.17381  1.0000
  H   H5287     1.0  0.73260  0.62853  0.17468  1.0000
  H   H5288     1.0  0.72888  0.64487  0.18776  1.0000
  H   H5289     1.0  0.72276  0.62553  0.21118  1.0000
  H   H5290     1.0  0.67642  0.58473  0.16535  1.0000
  H   H5291     1.0  0.67808  0.59461  0.19256  1.0000
  H   H5292     1.0  0.66260  0.59545  0.17521  1.0000
  H   H5293     1.0  0.72356  0.66492  0.04641  1.0000
  H   H5294     1.0  0.71996  0.64410  0.05850  1.0000
  H   H5295     1.0  0.70442  0.65283  0.05243  1.0000
  H   H5296     1.0  0.77265  0.77074  0.33797  1.0000
  Fe  Fe344     1.0  0.66298  0.98431  0.10124  1.0000
  H   H5297     1.0  0.65134  0.83896  0.47561  1.0000
  H   H5298     1.0  0.60872  0.88284  0.07885  1.0000
  H   H5299     1.0  0.66344  0.63403  0.02421  1.0000
  C   C2992     1.0  0.68544  0.65047  0.00530  1.0000
  H   H5300     1.0  0.73357  0.76109  0.28983  1.0000
  C   C2993     1.0  0.59707  0.71083  0.18848  1.0000
  N   N165      1.0  0.59583  0.63843  0.13866  1.0000
  H   H5301     1.0  0.63053  0.92687  0.02915  1.0000
  C   C2994     1.0  0.77880  0.79837  0.25540  1.0000
  C   C2995     1.0  0.63472  0.49487  0.05218  1.0000
  H   H5302     1.0  0.64448  0.54908  0.99872  1.0000
  H   H5303     1.0  0.60811  0.87705  0.15863  1.0000
  H   H5304     1.0  0.59382  0.67425  0.06186  1.0000
  C   C2996     1.0  0.71692  0.98109  0.24064  1.0000
  H   H5305     1.0  0.60132  0.90281  0.99042  1.0000
  H   H5306     1.0  0.61094  0.62800  0.06057  1.0000
  H   H5307     1.0  0.76596  0.76169  0.04848  1.0000
  H   H5308     1.0  0.70595  0.71566  0.98383  1.0000
  S   S683      1.0  0.77871  0.78424  0.18779  1.0000
  H   H5309     1.0  0.74756  0.74222  0.09426  1.0000
  C   C2997     1.0  0.74910  0.54329  0.15237  1.0000
  H   H5310     1.0  0.61173  0.67224  0.19385  1.0000
  C   C2998     1.0  0.68029  0.94173  0.23751  1.0000
  H   H5311     1.0  0.71881  0.80316  0.10515  1.0000
  H   H5312     1.0  0.60140  0.74774  0.16544  1.0000
  H   H5313     1.0  0.61269  0.76349  0.19173  1.0000
  H   H5314     1.0  0.77196  0.51242  0.02350  1.0000
  H   H5315     1.0  0.75954  0.95984  0.17101  1.0000
  C   C2999     1.0  0.64077  0.63478  0.98524  1.0000
  H   H5316     1.0  0.75467  0.77747  0.32028  1.0000
  H   H5317     1.0  0.70069  0.93763  0.25218  1.0000
  H   H5318     1.0  0.61893  0.64884  0.05234  1.0000
  H   H5319     1.0  0.69551  0.96376  0.25941  1.0000
  C   C3000     1.0  0.73388  0.76016  0.06298  1.0000
  H   H5320     1.0  0.74266  0.97012  0.14227  1.0000
  C   C3001     1.0  0.74107  0.59081  0.40803  1.0000
  H   H5321     1.0  0.65491  0.94804  0.21789  1.0000
  H   H5322     1.0  0.64835  0.59346  0.97947  1.0000
  C   C3002     1.0  0.75831  0.76663  0.28630  1.0000
  H   H5323     1.0  0.71024  0.93770  0.19417  1.0000
  C   C3003     1.0  0.60762  0.84937  0.15020  1.0000
  H   H5324     1.0  0.75834  0.60017  0.15015  1.0000
  H   H5325     1.0  0.62635  0.66813  0.16846  1.0000
  H   H5326     1.0  0.75666  0.93471  0.19656  1.0000
  H   H5327     1.0  0.77537  0.55866  0.18568  1.0000
  H   H5328     1.0  0.61460  0.68064  0.15669  1.0000
  H   H5329     1.0  0.75273  0.90925  0.23150  1.0000
  H   H5330     1.0  0.73226  0.50994  0.04969  1.0000
  H   H5331     1.0  0.62054  0.75848  0.14759  1.0000
  H   H5332     1.0  0.66259  0.65275  0.00538  1.0000
  H   H5333     1.0  0.75355  0.81796  0.35660  1.0000
  C   C3004     1.0  0.61663  0.91204  0.13806  1.0000
  H   H5334     1.0  0.58442  0.93469  0.99810  1.0000
  H   H5335     1.0  0.59176  0.62948  0.10302  1.0000
  H   H5336     1.0  0.63773  0.75488  0.17633  1.0000
  N   N166      1.0  0.68827  0.95482  0.21119  1.0000
  C   C3005     1.0  0.68109  0.91919  0.27646  1.0000
  C   C3006     1.0  0.76741  0.95856  0.15204  1.0000
  H   H5337     1.0  0.62707  0.98091  0.01096  1.0000
  C   C3007     1.0  0.69159  0.94865  0.18532  1.0000
  H   H5338     1.0  0.75930  0.81343  0.99671  1.0000
  H   H5339     1.0  0.59909  0.64977  0.09457  1.0000
  C   C3008     1.0  0.77110  0.74486  0.09522  1.0000
  C   C3009     1.0  0.77875  0.53993  0.12296  1.0000
  H   H5340     1.0  0.59124  0.65864  0.17608  1.0000
  H   H5341     1.0  0.77937  0.56413  0.11195  1.0000
  H   H5342     1.0  0.63526  0.93132  0.13707  1.0000
  H   H5343     1.0  0.60252  0.91395  0.10846  1.0000
  H   H5344     1.0  0.71742  0.52506  0.32483  1.0000
  H   H5345     1.0  0.64531  0.61327  0.02242  1.0000
  C   C3010     1.0  0.76100  0.76551  0.06727  1.0000
  C   C3011     1.0  0.73068  0.78887  0.08368  1.0000
  H   H5346     1.0  0.73193  0.58191  0.40460  1.0000
  H   H5347     1.0  0.71952  0.78081  0.08522  1.0000
  C   C3012     1.0  0.66890  0.64358  0.00473  1.0000
  C   C3013     1.0  0.76963  0.81003  0.00169  1.0000
  H   H5348     1.0  0.75356  0.78770  0.08891  1.0000
  C   C3014     1.0  0.70758  0.94528  0.17647  1.0000
  H   H5349     1.0  0.78108  0.81074  0.09962  1.0000
  H   H5350     1.0  0.77410  0.74002  0.07685  1.0000
  C   C3015     1.0  0.62628  0.93754  0.02585  1.0000
  C   C3016     1.0  0.74323  0.77984  0.08635  1.0000
  H   H5351     1.0  0.75918  0.82885  0.32005  1.0000
  C   C3017     1.0  0.62421  0.62563  0.98741  1.0000
  C   C3018     1.0  0.75290  0.78421  0.03423  1.0000
  H   H5352     1.0  0.73886  0.75193  0.32109  1.0000
  S   S684      1.0  0.78136  0.59227  0.28910  1.0000
  H   H5353     1.0  0.59480  0.49853  0.23213  1.0000
  H   H5354     1.0  0.64218  0.51598  0.98860  1.0000
  H   H5355     1.0  0.62332  0.94039  0.04649  1.0000
  C   C3019     1.0  0.62743  0.76707  0.21911  1.0000
  H   H5356     1.0  0.60286  0.74797  0.09086  1.0000
  H   H5357     1.0  0.63117  0.73965  0.20827  1.0000
  H   H5358     1.0  0.76660  0.76038  0.29355  1.0000
  C   C3020     1.0  0.75911  0.90555  0.21377  1.0000
  H   H5359     1.0  0.67018  0.93402  0.23404  1.0000
  H   H5360     1.0  0.72440  0.73064  0.02991  1.0000
  H   H5361     1.0  0.62227  0.92262  0.98677  1.0000
  C   C3021     1.0  0.60000  0.63863  0.10773  1.0000
  H   H5362     1.0  0.64010  0.63773  0.00579  1.0000
  H   H5363     1.0  0.77064  0.77447  0.06931  1.0000
  C   C3022     1.0  0.63838  0.58332  0.02386  1.0000
  C   C3023     1.0  0.77980  0.95617  0.20526  1.0000
  H   H5364     1.0  0.74904  0.80070  0.32615  1.0000
  H   H5365     1.0  0.60407  0.90098  0.06708  1.0000
  H   H5366     1.0  0.67763  0.52580  0.26693  1.0000
  H   H5367     1.0  0.68545  0.92109  0.36617  1.0000
  C   C3024     1.0  0.68911  0.91149  0.35847  1.0000
  C   C3025     1.0  0.60332  0.75152  0.11064  1.0000
  C   C3026     1.0  0.75994  0.57390  0.40236  1.0000
  H   H5368     1.0  0.60289  0.92548  0.03014  1.0000
  S   S685      1.0  0.67924  0.68791  0.99373  1.0000
  H   H5369     1.0  0.77286  0.60222  0.11806  1.0000
  H   H5370     1.0  0.77838  0.91480  0.17715  1.0000
  H   H5371     1.0  0.74732  0.59932  0.38738  1.0000
  H   H5372     1.0  0.77220  0.51921  0.22991  1.0000
  H   H5373     1.0  0.69438  0.98124  0.23569  1.0000
  H   H5374     1.0  0.60964  0.71900  0.21688  1.0000
  C   C3027     1.0  0.59494  0.68025  0.07810  1.0000
  C   C3028     1.0  0.63207  0.98068  0.98954  1.0000
  C   C3029     1.0  0.64810  0.98386  0.97945  1.0000
  C   C3030     1.0  0.60553  0.50736  0.18736  1.0000
  C   C3031     1.0  0.61289  0.74643  0.15516  1.0000
  C   C3032     1.0  0.63038  0.72903  0.16132  1.0000
  H   H5375     1.0  0.59087  0.60774  0.13289  1.0000
  C   C3033     1.0  0.60565  0.72423  0.19837  1.0000
  S   S686      1.0  0.68254  0.97723  0.11839  1.0000
  C   C3034     1.0  0.63827  0.71913  0.18023  1.0000
  H   H5376     1.0  0.75114  0.56290  0.40547  1.0000
  C   C3035     1.0  0.64793  0.71067  0.16327  1.0000
  H   H5377     1.0  0.64146  0.51245  0.07355  1.0000
  H   H5378     1.0  0.63975  0.73829  0.14501  1.0000
  H   H5379     1.0  0.62502  0.72150  0.14934  1.0000
  H   H5380     1.0  0.74206  0.96491  0.10966  1.0000
  H   H5381     1.0  0.70838  0.97420  0.19422  1.0000
  H   H5382     1.0  0.63210  0.76035  0.23509  1.0000
  C   C3036     1.0  0.76899  0.53421  0.19279  1.0000
  H   H5383     1.0  0.78127  0.75384  0.09526  1.0000
  H   H5384     1.0  0.64623  0.72663  0.18874  1.0000
  H   H5385     1.0  0.62964  0.71023  0.19814  1.0000
  C   C3037     1.0  0.58874  0.88639  0.10781  1.0000
  C   C3038     1.0  0.77032  0.59954  0.14150  1.0000
  H   H5386     1.0  0.69926  0.49617  0.08775  1.0000
  H   H5387     1.0  0.65660  0.71904  0.14458  1.0000
  H   H5388     1.0  0.65416  0.70438  0.17677  1.0000
  H   H5389     1.0  0.64041  0.70207  0.15595  1.0000
  H   H5390     1.0  0.73550  0.59703  0.42234  1.0000
  S   S687      1.0  0.64131  0.98828  0.12614  1.0000
  C   C3039     1.0  0.65105  0.61200  0.00141  1.0000
  N   N167      1.0  0.72734  0.91489  0.38335  1.0000
  C   C3040     1.0  0.71514  0.91894  0.36897  1.0000
  C   C3041     1.0  0.74140  0.92858  0.37447  1.0000
  C   C3042     1.0  0.73215  0.90155  0.37353  1.0000
  C   C3043     1.0  0.72123  0.90956  0.41512  1.0000
  C   C3044     1.0  0.71553  0.92138  0.42995  1.0000
  C   C3045     1.0  0.70049  0.90570  0.37391  1.0000
  C   C3046     1.0  0.74639  0.89707  0.38217  1.0000
  C   C3047     1.0  0.73865  0.94514  0.36844  1.0000
  C   C3048     1.0  0.75357  0.95756  0.36367  1.0000
  C   C3049     1.0  0.77891  0.68012  0.31133  1.0000
  C   C3050     1.0  0.75083  0.88449  0.36868  1.0000
  H   H5391     1.0  0.72025  0.92325  0.34569  1.0000
  H   H5392     1.0  0.71107  0.92866  0.37533  1.0000
  H   H5393     1.0  0.74824  0.92763  0.39052  1.0000
  H   H5394     1.0  0.74926  0.92847  0.35429  1.0000
  H   H5395     1.0  0.73468  0.90415  0.35004  1.0000
  H   H5396     1.0  0.72258  0.89076  0.38193  1.0000
  H   H5397     1.0  0.71173  0.89882  0.42136  1.0000
  H   H5398     1.0  0.73024  0.90619  0.42520  1.0000
  H   H5399     1.0  0.70699  0.92620  0.42057  1.0000
  H   H5400     1.0  0.72550  0.93095  0.42869  1.0000
  H   H5401     1.0  0.70341  0.89604  0.36553  1.0000
  H   H5402     1.0  0.69446  0.90114  0.39674  1.0000
  H   H5403     1.0  0.74386  0.89243  0.40544  1.0000
  H   H5404     1.0  0.75667  0.90710  0.37531  1.0000
  H   H5405     1.0  0.73461  0.94760  0.34885  1.0000
  H   H5406     1.0  0.72990  0.94656  0.38588  1.0000
  H   H5407     1.0  0.76254  0.95699  0.34547  1.0000
  H   H5408     1.0  0.75135  0.96926  0.35879  1.0000
  H   H5409     1.0  0.75796  0.95604  0.38293  1.0000
  Fe  Fe345     1.0  0.77450  0.77893  0.14770  1.0000
  H   H5410     1.0  0.74781  0.94406  0.14270  1.0000
  H   H5411     1.0  0.61714  0.52245  0.00130  1.0000
  H   H5412     1.0  0.76077  0.88121  0.37563  1.0000
  H   H5413     1.0  0.74105  0.87394  0.37517  1.0000
  H   H5414     1.0  0.75420  0.88879  0.34522  1.0000
  H   H5415     1.0  0.73724  0.55727  0.12723  1.0000
  N   N168      1.0  0.66808  0.79019  0.32044  1.0000
  C   C3051     1.0  0.67540  0.79960  0.29020  1.0000
  C   C3052     1.0  0.65581  0.77636  0.32046  1.0000
  C   C3053     1.0  0.66126  0.80034  0.33695  1.0000
  C   C3054     1.0  0.67982  0.78444  0.33416  1.0000
  C   C3055     1.0  0.69032  0.77635  0.31713  1.0000
  C   C3056     1.0  0.68886  0.81396  0.28582  1.0000
  C   C3057     1.0  0.65174  0.79216  0.36787  1.0000
  C   C3058     1.0  0.64159  0.78004  0.31062  1.0000
  C   C3059     1.0  0.62974  0.76519  0.31250  1.0000
  C   C3060     1.0  0.70043  0.76951  0.33455  1.0000
  C   C3061     1.0  0.69659  0.82143  0.25439  1.0000
  C   C3062     1.0  0.64499  0.80355  0.38184  1.0000
  H   H5416     1.0  0.66675  0.80417  0.28073  1.0000
  H   H5417     1.0  0.67945  0.79214  0.27683  1.0000
  H   H5418     1.0  0.66079  0.76975  0.30623  1.0000
  H   H5419     1.0  0.65157  0.76799  0.34181  1.0000
  H   H5420     1.0  0.65387  0.80614  0.32576  1.0000
  H   H5421     1.0  0.67050  0.81000  0.33817  1.0000
  H   H5422     1.0  0.68748  0.79412  0.33905  1.0000
  H   H5423     1.0  0.67392  0.77599  0.35506  1.0000
  H   H5424     1.0  0.69810  0.78474  0.29751  1.0000
  H   H5425     1.0  0.68341  0.76673  0.31109  1.0000
  H   H5426     1.0  0.68454  0.82287  0.29483  1.0000
  H   H5427     1.0  0.69780  0.81081  0.29606  1.0000
  H   H5428     1.0  0.65914  0.78748  0.38070  1.0000
  H   H5429     1.0  0.64195  0.78251  0.36879  1.0000
  H   H5430     1.0  0.63562  0.78654  0.32376  1.0000
  H   H5431     1.0  0.64508  0.78698  0.28823  1.0000
  H   H5432     1.0  0.63491  0.75841  0.29886  1.0000
  H   H5433     1.0  0.74888  0.57003  0.16231  1.0000
  H   H5434     1.0  0.61984  0.76827  0.30503  1.0000
  H   H5435     1.0  0.70734  0.77862  0.34184  1.0000
  H   H5436     1.0  0.69319  0.76005  0.35329  1.0000
  H   H5437     1.0  0.70848  0.76462  0.32136  1.0000
  H   H5438     1.0  0.70575  0.83204  0.25189  1.0000
  H   H5439     1.0  0.70205  0.81331  0.24469  1.0000
  H   H5440     1.0  0.68805  0.82485  0.24304  1.0000
  H   H5441     1.0  0.65431  0.81350  0.38171  1.0000
  H   H5442     1.0  0.63692  0.80808  0.37047  1.0000
  H   H5443     1.0  0.63853  0.79759  0.40413  1.0000
  S   S688      1.0  0.66064  0.98868  0.00048  1.0000
  C   C3063     1.0  0.70778  0.91374  0.46137  1.0000
  C   C3064     1.0  0.75223  0.58317  0.42128  1.0000
  H   H5444     1.0  0.77495  0.68247  0.27020  1.0000
  H   H5445     1.0  0.77460  0.70871  0.24908  1.0000
  H   H5446     1.0  0.62009  0.61591  0.00699  1.0000
  C   C3065     1.0  0.59052  0.49751  0.15719  1.0000
  H   H5447     1.0  0.74289  0.78781  0.02802  1.0000
  H   H5448     1.0  0.73436  0.53613  0.26160  1.0000
  H   H5449     1.0  0.62343  0.74331  0.11379  1.0000
  H   H5450     1.0  0.73863  0.80548  0.10650  1.0000
  H   H5451     1.0  0.60949  0.76401  0.10490  1.0000
  H   H5452     1.0  0.63773  0.53055  0.02511  1.0000
  H   H5453     1.0  0.60810  0.94589  0.01260  1.0000
  H   H5454     1.0  0.62022  0.85295  0.13994  1.0000
  H   H5455     1.0  0.59163  0.78054  0.14725  1.0000
  H   H5456     1.0  0.61818  0.88119  0.12272  1.0000
  H   H5457     1.0  0.77539  0.52958  0.14123  1.0000
  H   H5458     1.0  0.72567  0.49706  0.00168  1.0000
  H   H5459     1.0  0.61774  0.90513  0.09933  1.0000
  H   H5460     1.0  0.77100  0.58202  0.17689  1.0000
  H   H5461     1.0  0.60083  0.86006  0.11386  1.0000
  H   H5462     1.0  0.58705  0.85647  0.14675  1.0000
  C   C3066     1.0  0.76883  0.53028  0.22409  1.0000
  C   C3067     1.0  0.59820  0.62423  0.15737  1.0000
  H   H5463     1.0  0.59443  0.62403  0.18002  1.0000
  H   H5464     1.0  0.67118  0.53712  0.40979  1.0000
  C   C3068     1.0  0.60631  0.87756  0.13712  1.0000
  H   H5465     1.0  0.63711  0.77552  0.20226  1.0000
  C   C3069     1.0  0.76204  0.82010  0.33595  1.0000
  H   H5466     1.0  0.76037  0.55206  0.44536  1.0000
  H   H5467     1.0  0.72482  0.76568  0.05696  1.0000
  N   N169      1.0  0.59730  0.88939  0.12968  1.0000
  H   H5468     1.0  0.62346  0.49697  0.05281  1.0000
  H   H5469     1.0  0.76091  0.59233  0.42512  1.0000
  C   C3070     1.0  0.75718  0.95477  0.13200  1.0000
  Fe  Fe346     1.0  0.78037  0.61409  0.25935  1.0000
  Fe  Fe347     1.0  0.78071  0.58171  0.25253  1.0000
  H   H5470     1.0  0.60853  0.91645  0.15218  1.0000
  H   H5471     1.0  0.71546  0.98696  0.25795  1.0000
  H   H5472     1.0  0.58668  0.79873  0.13680  1.0000
  H   H5473     1.0  0.61863  0.65148  0.13810  1.0000
  H   H5474     1.0  0.68525  0.65552  0.02363  1.0000
  H   H5475     1.0  0.67870  0.90182  0.36250  1.0000
  H   H5476     1.0  0.60672  0.66314  0.12596  1.0000
  H   H5477     1.0  0.71163  0.95800  0.21636  1.0000
  C   C3071     1.0  0.68171  0.53568  0.39609  1.0000
  H   H5478     1.0  0.72831  0.75254  0.08480  1.0000
  H   H5479     1.0  0.75941  0.71656  0.21604  1.0000
  H   H5480     1.0  0.75423  0.75566  0.11341  1.0000
  H   H5481     1.0  0.77606  0.72415  0.29081  1.0000
  H   H5482     1.0  0.75071  0.53142  0.15441  1.0000
  H   H5483     1.0  0.72011  0.52924  0.42072  1.0000
  C   C3072     1.0  0.60652  0.65253  0.14205  1.0000
  H   H5484     1.0  0.74727  0.51172  0.00938  1.0000
  C   C3073     1.0  0.61575  0.93169  0.98488  1.0000
  C   C3074     1.0  0.75392  0.50337  0.00434  1.0000
  H   H5485     1.0  0.65983  0.97943  0.17496  1.0000
  C   C3075     1.0  0.59794  0.69613  0.11933  1.0000
  H   H5486     1.0  0.76778  0.57000  0.45254  1.0000
  H   H5487     1.0  0.77770  0.93638  0.12569  1.0000
  C   C3076     1.0  0.59947  0.86070  0.13610  1.0000
  H   H5488     1.0  0.68835  0.91152  0.28360  1.0000
  C   C3077     1.0  0.74219  0.75551  0.29758  1.0000
  H   H5489     1.0  0.73859  0.77085  0.10696  1.0000
  Fe  Fe348     1.0  0.59608  0.78821  0.26527  1.0000
  H   H5490     1.0  0.69965  0.92611  0.15891  1.0000
  H   H5491     1.0  0.70633  0.94501  0.13351  1.0000
  H   H5492     1.0  0.77965  0.92356  0.20592  1.0000
  H   H5493     1.0  0.62537  0.54357  0.02233  1.0000
  H   H5494     1.0  0.75747  0.92678  0.16726  1.0000
  H   H5495     1.0  0.63119  0.63580  0.05703  1.0000
  H   H5496     1.0  0.67536  0.94637  0.25522  1.0000
  H   H5497     1.0  0.67374  0.96915  0.22601  1.0000
  H   H5498     1.0  0.58920  0.58386  0.16863  1.0000
  H   H5499     1.0  0.73388  0.51835  0.28636  1.0000
  H   H5500     1.0  0.62532  0.75792  0.33472  1.0000
  N   N170      1.0  0.70130  0.54992  0.31447  1.0000
  C   C3078     1.0  0.71672  0.54792  0.30021  1.0000
  C   C3079     1.0  0.70223  0.56699  0.31185  1.0000
  C   C3080     1.0  0.69782  0.54172  0.34554  1.0000
  C   C3081     1.0  0.68839  0.54267  0.30312  1.0000
  C   C3082     1.0  0.69064  0.54780  0.27072  1.0000
  C   C3083     1.0  0.71793  0.53097  0.30271  1.0000
  C   C3084     1.0  0.68328  0.54376  0.36516  1.0000
  C   C3085     1.0  0.71297  0.57887  0.28434  1.0000
  C   C3086     1.0  0.71049  0.59513  0.28219  1.0000
  C   C3087     1.0  0.67768  0.53830  0.26169  1.0000
  C   C3088     1.0  0.73328  0.53059  0.28419  1.0000
  H   H5501     1.0  0.71499  0.50458  0.03787  1.0000
  H   H5502     1.0  0.72584  0.55363  0.30907  1.0000
  H   H5503     1.0  0.72026  0.55400  0.27735  1.0000
  H   H5504     1.0  0.69050  0.56907  0.31466  1.0000
  H   H5505     1.0  0.70671  0.57065  0.32920  1.0000
  H   H5506     1.0  0.70783  0.54568  0.35392  1.0000
  H   H5507     1.0  0.75333  0.50215  0.98291  1.0000
  H   H5508     1.0  0.68596  0.52977  0.30966  1.0000
  H   H5509     1.0  0.67744  0.54527  0.31270  1.0000
  H   H5510     1.0  0.70158  0.54614  0.25916  1.0000
  H   H5511     1.0  0.69039  0.56012  0.26398  1.0000
  H   H5512     1.0  0.64987  0.97435  0.21220  1.0000
  H   H5513     1.0  0.77614  0.79617  0.03526  1.0000
  H   H5514     1.0  0.60288  0.83755  0.14823  1.0000
  H   H5515     1.0  0.68385  0.55619  0.36373  1.0000
  H   H5516     1.0  0.72519  0.57967  0.28455  1.0000
  H   H5517     1.0  0.71132  0.57563  0.26491  1.0000
  H   H5518     1.0  0.69851  0.59518  0.28106  1.0000
  H   H5519     1.0  0.71279  0.59920  0.30070  1.0000
  H   H5520     1.0  0.71860  0.60335  0.26266  1.0000
  C   C3089     1.0  0.64494  0.50375  0.06381  1.0000
  H   H5521     1.0  0.74310  0.53673  0.29087  1.0000
  H   H5522     1.0  0.77516  0.52170  0.98641  1.0000
  H   H5523     1.0  0.77834  0.82074  0.00035  1.0000
  H   H5524     1.0  0.74552  0.57517  0.44220  1.0000
  H   H5525     1.0  0.60569  0.84879  0.17310  1.0000
  H   H5526     1.0  0.62710  0.93452  0.10718  1.0000
  H   H5527     1.0  0.69153  0.65987  0.98568  1.0000
  H   H5528     1.0  0.76799  0.81538  0.28302  1.0000
  C   C3090     1.0  0.76032  0.57047  0.14875  1.0000
  C   C3091     1.0  0.65305  0.96970  0.19364  1.0000
  H   H5529     1.0  0.64230  0.96415  0.18878  1.0000
  H   H5530     1.0  0.75962  0.57458  0.12656  1.0000
  H   H5531     1.0  0.59467  0.59502  0.19239  1.0000
  H   H5532     1.0  0.77376  0.82481  0.33819  1.0000
  C   C3092     1.0  0.61755  0.75621  0.20652  1.0000
  S   S689      1.0  0.70093  0.50340  0.47049  1.0000
  C   C3093     1.0  0.69014  0.93097  0.24838  1.0000
  H   H5533     1.0  0.77360  0.56864  0.35153  1.0000
  H   H5534     1.0  0.59740  0.88309  0.03818  1.0000
  H   H5535     1.0  0.74205  0.75666  0.02061  1.0000
  C   C3094     1.0  0.70291  0.96473  0.21403  1.0000
  H   H5536     1.0  0.68253  0.93793  0.18768  1.0000
  C   C3095     1.0  0.61621  0.63637  0.09610  1.0000
  C   C3096     1.0  0.61943  0.63731  0.06453  1.0000
  H   H5537     1.0  0.62528  0.64548  0.09874  1.0000
  H   H5538     1.0  0.61732  0.62488  0.10716  1.0000
  H   H5539     1.0  0.77259  0.94512  0.22044  1.0000
  C   C3097     1.0  0.75727  0.75174  0.09397  1.0000
  H   H5540     1.0  0.63563  0.94737  0.01099  1.0000
  C   C3098     1.0  0.76731  0.70916  0.21098  1.0000
  N   N171      1.0  0.76334  0.55451  0.15379  1.0000
  H   H5541     1.0  0.74994  0.78677  0.28994  1.0000
  H   H5542     1.0  0.76954  0.54813  0.39828  1.0000
  H   H5543     1.0  0.69334  0.92424  0.23310  1.0000
  H   H5544     1.0  0.61076  0.62475  0.15355  1.0000
  H   H5545     1.0  0.67050  0.91179  0.27397  1.0000
  C   C3099     1.0  0.66400  0.49000  0.05004  1.0000
  C   C3100     1.0  0.60392  0.50694  0.16033  1.0000
  H   H5546     1.0  0.59906  0.70217  0.13539  1.0000
  H   H5547     1.0  0.58441  0.86895  0.06907  1.0000
  C   C3101     1.0  0.77777  0.55511  0.13196  1.0000
  C   C3102     1.0  0.77182  0.91926  0.19349  1.0000
  H   H5548     1.0  0.72178  0.52965  0.14123  1.0000
  H   H5549     1.0  0.69723  0.90449  0.46402  1.0000
  H   H5550     1.0  0.76042  0.52464  0.18985  1.0000
  C   C3103     1.0  0.77079  0.56205  0.43941  1.0000
  H   H5551     1.0  0.73733  0.52478  0.11881  1.0000
  C   C3104     1.0  0.77238  0.58347  0.15381  1.0000
  H   H5552     1.0  0.73928  0.54197  0.17083  1.0000
  H   H5553     1.0  0.70856  0.52424  0.29587  1.0000
  H   H5554     1.0  0.69096  0.95714  0.16619  1.0000
  H   H5555     1.0  0.72724  0.53811  0.10357  1.0000
  H   H5556     1.0  0.77220  0.71249  0.18767  1.0000
  C   C3105     1.0  0.61461  0.67012  0.17258  1.0000
  H   H5557     1.0  0.71676  0.95634  0.16887  1.0000
  H   H5558     1.0  0.76099  0.76958  0.26288  1.0000
  H   H5559     1.0  0.76049  0.69684  0.21808  1.0000
  H   H5560     1.0  0.63181  0.57252  0.02053  1.0000
  H   H5561     1.0  0.70439  0.92255  0.47193  1.0000
  H   H5562     1.0  0.77041  0.66865  0.32061  1.0000
  S   S690      1.0  0.78120  0.60380  0.22188  1.0000
  Fe  Fe349     1.0  0.72042  0.49564  0.44710  1.0000
  H   H5563     1.0  0.73400  0.79797  0.06336  1.0000
  C   C3106     1.0  0.63428  0.53918  0.01000  1.0000
  C   C3107     1.0  0.76484  0.93213  0.17954  1.0000
  H   H5564     1.0  0.63057  0.59785  0.99305  1.0000
  H   H5565     1.0  0.60271  0.64611  0.18862  1.0000
  H   H5566     1.0  0.77465  0.80441  0.98565  1.0000
  H   H5567     1.0  0.75713  0.52891  0.23745  1.0000
  H   H5568     1.0  0.71339  0.97716  0.12234  1.0000
  C   C3108     1.0  0.76113  0.80493  0.32719  1.0000
  H   H5569     1.0  0.71580  0.90855  0.47202  1.0000
  H   H5570     1.0  0.77095  0.53784  0.10912  1.0000
  S   S691      1.0  0.58735  0.76209  0.27821  1.0000
  H   H5571     1.0  0.77534  0.97031  0.14198  1.0000
  C   C3109     1.0  0.58961  0.60827  0.15511  1.0000
  H   H5572     1.0  0.77714  0.54164  0.35292  1.0000
  H   H5573     1.0  0.69187  0.64134  0.00746  1.0000
  N   N172      1.0  0.77626  0.94688  0.16086  1.0000
  H   H5574     1.0  0.75868  0.97885  0.11125  1.0000
  C   C3110     1.0  0.58431  0.69936  0.21297  1.0000
  H   H5575     1.0  0.59189  0.89283  0.17186  1.0000
  H   H5576     1.0  0.60107  0.62902  0.99239  1.0000
  H   H5577     1.0  0.70028  0.49697  0.99083  1.0000
  H   H5578     1.0  0.59130  0.74988  0.12309  1.0000
  H   H5579     1.0  0.58725  0.94717  0.04541  1.0000
  H   H5580     1.0  0.62175  0.49755  0.98455  1.0000
  N   N173      1.0  0.77417  0.79339  0.28746  1.0000
  H   H5581     1.0  0.77837  0.60847  0.14725  1.0000
  H   H5582     1.0  0.78073  0.53455  0.18066  1.0000
  C   C3111     1.0  0.62769  0.53171  0.98895  1.0000
  C   C3112     1.0  0.58589  0.88991  0.15576  1.0000
  H   H5583     1.0  0.58361  0.87991  0.98521  1.0000
  Fe  Fe350     1.0  0.65207  0.98841  0.04651  1.0000
  C   C3113     1.0  0.77901  0.55906  0.39174  1.0000
  C   C3114     1.0  0.61301  0.63600  0.98923  1.0000
  H   H5584     1.0  0.77249  0.96443  0.20254  1.0000
  C   C3115     1.0  0.77250  0.80756  0.29788  1.0000
  N   N174      1.0  0.77452  0.57028  0.40825  1.0000
  C   C3116     1.0  0.58318  0.68870  0.11804  1.0000
  H   H5585     1.0  0.77785  0.69538  0.46303  1.0000
  S   S692      1.0  0.75692  0.98950  0.18018  1.0000
  H   H5586     1.0  0.61015  0.97525  0.97950  1.0000
  C   C3117     1.0  0.62568  0.86417  0.61921  1.0000
  H   H5587     1.0  0.64658  0.49584  0.49364  1.0000
  Fe  Fe351     1.0  0.76603  0.57710  0.58399  1.0000
  S   S693      1.0  0.75677  0.56206  0.62857  1.0000
  S   S694      1.0  0.75942  0.57069  0.54525  1.0000
  Fe  Fe352     1.0  0.75346  0.58382  0.64024  1.0000
  S   S695      1.0  0.73247  0.58526  0.67156  1.0000
  S   S696      1.0  0.65074  0.98618  0.85127  1.0000
  S   S697      1.0  0.76117  0.59869  0.59529  1.0000
  H   H5588     1.0  0.66597  0.62290  0.89409  1.0000
  S   S698      1.0  0.60709  0.81358  0.58464  1.0000
  Fe  Fe353     1.0  0.65045  0.53333  0.74062  1.0000
  S   S699      1.0  0.63863  0.54954  0.71867  1.0000
  S   S700      1.0  0.67264  0.52883  0.71839  1.0000
  Fe  Fe354     1.0  0.62409  0.52236  0.79402  1.0000
  S   S701      1.0  0.61017  0.53778  0.77592  1.0000
  C   C3118     1.0  0.66926  0.61932  0.93667  1.0000
  Fe  Fe355     1.0  0.61702  0.52996  0.73648  1.0000
  S   S702      1.0  0.60261  0.52431  0.70607  1.0000
  Fe  Fe356     1.0  0.63293  0.55585  0.76002  1.0000
  S   S703      1.0  0.63535  0.58143  0.75752  1.0000
  S   S704      1.0  0.62932  0.51327  0.75576  1.0000
  S   S705      1.0  0.64642  0.54093  0.78090  1.0000
  N   N175      1.0  0.59548  0.60680  0.80633  1.0000
  H   H5589     1.0  0.60826  0.56439  0.81170  1.0000
  C   C3119     1.0  0.62734  0.54095  0.87982  1.0000
  Fe  Fe357     1.0  0.61591  0.96905  0.82326  1.0000
  C   C3120     1.0  0.66502  0.83074  0.50332  1.0000
  H   H5590     1.0  0.58428  0.81718  0.69885  1.0000
  Fe  Fe358     1.0  0.64795  0.96686  0.82993  1.0000
  S   S706      1.0  0.66569  0.95337  0.81986  1.0000
  H   H5591     1.0  0.76264  0.55782  0.78186  1.0000
  S   S707      1.0  0.62383  0.95441  0.85674  1.0000
  H   H5592     1.0  0.67583  0.53839  0.57938  1.0000
  Fe  Fe359     1.0  0.65036  0.64157  0.84267  1.0000
  S   S708      1.0  0.65752  0.65877  0.80009  1.0000
  S   S709      1.0  0.64872  0.61565  0.85142  1.0000
  Fe  Fe360     1.0  0.64394  0.66618  0.87339  1.0000
  S   S710      1.0  0.64991  0.68521  0.83287  1.0000
  S   S711      1.0  0.63497  0.66952  0.91691  1.0000
  Fe  Fe361     1.0  0.63668  0.66708  0.81610  1.0000
  S   S712      1.0  0.62190  0.67125  0.78517  1.0000
  Fe  Fe362     1.0  0.67016  0.67540  0.82028  1.0000
  S   S713      1.0  0.69499  0.68926  0.79861  1.0000
  S   S714      1.0  0.62885  0.64897  0.85769  1.0000
  S   S715      1.0  0.66486  0.65730  0.86185  1.0000
  Fe  Fe363     1.0  0.71030  0.49643  0.50842  1.0000
  S   S716      1.0  0.76637  0.94761  0.68514  1.0000
  H   H5593     1.0  0.76395  0.70088  0.67155  1.0000
  C   C3121     1.0  0.60203  0.61078  0.85277  1.0000
  S   S717      1.0  0.76445  0.96259  0.75789  1.0000
  Fe  Fe364     1.0  0.74791  0.77149  0.78261  1.0000
  S   S718      1.0  0.72240  0.75884  0.80030  1.0000
  S   S719      1.0  0.76880  0.82493  0.71471  1.0000
  S   S720      1.0  0.75485  0.79581  0.78684  1.0000
  Fe  Fe365     1.0  0.68583  0.85645  0.61558  1.0000
  S   S721      1.0  0.69667  0.88148  0.59063  1.0000
  S   S722      1.0  0.66049  0.84334  0.63660  1.0000
  Fe  Fe366     1.0  0.71742  0.84968  0.61494  1.0000
  S   S723      1.0  0.73053  0.87392  0.58926  1.0000
  S   S724      1.0  0.72660  0.82862  0.62850  1.0000
  Fe  Fe367     1.0  0.71348  0.88208  0.61865  1.0000
  S   S725      1.0  0.71781  0.90052  0.64432  1.0000
  Fe  Fe368     1.0  0.71295  0.87155  0.56313  1.0000
  S   S726      1.0  0.72159  0.87703  0.51442  1.0000
  S   S727      1.0  0.70124  0.85764  0.64529  1.0000
  S   S728      1.0  0.70127  0.84678  0.58707  1.0000
  C   C3122     1.0  0.75757  0.82599  0.68989  1.0000
  C   C3123     1.0  0.75301  0.81346  0.67889  1.0000
  C   C3124     1.0  0.74370  0.81452  0.65977  1.0000
  C   C3125     1.0  0.73877  0.82806  0.65169  1.0000
  C   C3126     1.0  0.74349  0.84068  0.66241  1.0000
  C   C3127     1.0  0.75303  0.83969  0.68113  1.0000
  H   H5594     1.0  0.72080  0.83344  0.48908  1.0000
  H   H5595     1.0  0.74026  0.80480  0.65124  1.0000
  H   H5596     1.0  0.73991  0.85123  0.65603  1.0000
  H   H5597     1.0  0.75693  0.84955  0.68884  1.0000
  H   H5598     1.0  0.70107  0.78512  0.69365  1.0000
  N   N176      1.0  0.67620  0.81676  0.54199  1.0000
  H   H5599     1.0  0.59768  0.82438  0.71778  1.0000
  C   C3128     1.0  0.62891  0.97718  0.94380  1.0000
  H   H5600     1.0  0.69019  0.87369  0.50650  1.0000
  C   C3129     1.0  0.75253  0.93517  0.67320  1.0000
  C   C3130     1.0  0.73651  0.93222  0.68389  1.0000
  C   C3131     1.0  0.72619  0.92173  0.67474  1.0000
  C   C3132     1.0  0.73157  0.91397  0.65461  1.0000
  C   C3133     1.0  0.74758  0.91703  0.64373  1.0000
  C   C3134     1.0  0.75789  0.92747  0.65298  1.0000
  H   H5601     1.0  0.73205  0.93786  0.69952  1.0000
  H   H5602     1.0  0.71388  0.91958  0.68341  1.0000
  H   H5603     1.0  0.75204  0.91135  0.62813  1.0000
  H   H5604     1.0  0.77019  0.92969  0.64421  1.0000
  C   C3135     1.0  0.64752  0.67511  0.93755  1.0000
  C   C3136     1.0  0.66337  0.67649  0.92892  1.0000
  C   C3137     1.0  0.67292  0.68036  0.94644  1.0000
  H   H5605     1.0  0.74584  0.92533  0.73633  1.0000
  H   H5606     1.0  0.65590  0.49134  0.94322  1.0000
  H   H5607     1.0  0.60299  0.63185  0.78918  1.0000
  H   H5608     1.0  0.66826  0.67455  0.90877  1.0000
  H   H5609     1.0  0.68513  0.68124  0.93979  1.0000
  H   H5610     1.0  0.68842  0.76409  0.73230  1.0000
  S   S729      1.0  0.63986  0.98002  0.79504  1.0000
  C   C3138     1.0  0.70223  0.70901  0.79726  1.0000
  C   C3139     1.0  0.69258  0.71788  0.80719  1.0000
  C   C3140     1.0  0.69890  0.73331  0.80713  1.0000
  C   C3141     1.0  0.71490  0.73995  0.79743  1.0000
  C   C3142     1.0  0.72451  0.73126  0.78673  1.0000
  C   C3143     1.0  0.71817  0.71587  0.78658  1.0000
  H   H5611     1.0  0.68029  0.71276  0.81528  1.0000
  H   H5612     1.0  0.69140  0.74002  0.81526  1.0000
  H   H5613     1.0  0.73684  0.73627  0.77911  1.0000
  H   H5614     1.0  0.72570  0.70910  0.77875  1.0000
  H   H5615     1.0  0.78083  0.57008  0.70111  1.0000
  H   H5616     1.0  0.72396  0.71436  0.94013  1.0000
  C   C3144     1.0  0.63963  0.52480  0.97231  1.0000
  C   C3145     1.0  0.63107  0.53024  0.92873  1.0000
  H   H5617     1.0  0.60543  0.74952  0.67975  1.0000
  H   H5618     1.0  0.77704  0.71512  0.62975  1.0000
  C   C3146     1.0  0.68087  0.76944  0.77243  1.0000
  C   C3147     1.0  0.68547  0.96290  0.81101  1.0000
  C   C3148     1.0  0.69050  0.97684  0.81777  1.0000
  H   H5619     1.0  0.70154  0.49758  0.62291  1.0000
  C   C3149     1.0  0.59277  0.57760  0.82819  1.0000
  C   C3150     1.0  0.71215  0.96430  0.78795  1.0000
  C   C3151     1.0  0.69637  0.95651  0.79655  1.0000
  H   H5620     1.0  0.76939  0.62328  0.52633  1.0000
  H   H5621     1.0  0.60079  0.66618  0.75106  1.0000
  H   H5622     1.0  0.72043  0.95947  0.77630  1.0000
  H   H5623     1.0  0.69254  0.94564  0.79150  1.0000
  H   H5624     1.0  0.67148  0.61001  0.95238  1.0000
  C   C3152     1.0  0.60188  0.66252  0.79451  1.0000
  H   H5625     1.0  0.69329  0.83036  0.50316  1.0000
  C   C3153     1.0  0.61574  0.49288  0.94727  1.0000
  H   H5626     1.0  0.67001  0.79518  0.62915  1.0000
  Fe  Fe369     1.0  0.75529  0.98385  0.75141  1.0000
  H   H5627     1.0  0.68939  0.80559  0.66962  1.0000
  C   C3154     1.0  0.63565  0.49284  0.51052  1.0000
  H   H5628     1.0  0.67139  0.64835  0.95954  1.0000
  H   H5629     1.0  0.76406  0.57589  0.71363  1.0000
  H   H5630     1.0  0.64061  0.88777  0.60552  1.0000
  Fe  Fe370     1.0  0.76917  0.80169  0.74208  1.0000
  H   H5631     1.0  0.77113  0.68652  0.63973  1.0000
  C   C3155     1.0  0.65917  0.49424  0.78395  1.0000
  H   H5632     1.0  0.76711  0.88275  0.74687  1.0000
  C   C3156     1.0  0.74607  0.91721  0.75607  1.0000
  C   C3157     1.0  0.73997  0.57254  0.79643  1.0000
  H   H5633     1.0  0.64792  0.84415  0.50869  1.0000
  S   S730      1.0  0.61605  0.98843  0.84456  1.0000
  C   C3158     1.0  0.77156  0.56840  0.72056  1.0000
  H   H5634     1.0  0.69092  0.50202  0.82962  1.0000
  C   C3159     1.0  0.64087  0.59066  0.78292  1.0000
  C   C3160     1.0  0.64373  0.60689  0.77692  1.0000
  C   C3161     1.0  0.64637  0.61466  0.79760  1.0000
  C   C3162     1.0  0.64632  0.60627  0.82447  1.0000
  C   C3163     1.0  0.64400  0.59005  0.83023  1.0000
  C   C3164     1.0  0.64133  0.58226  0.80948  1.0000
  H   H5635     1.0  0.64374  0.61348  0.75623  1.0000
  H   H5636     1.0  0.64831  0.62713  0.79276  1.0000
  H   H5637     1.0  0.64406  0.58350  0.85090  1.0000
  H   H5638     1.0  0.63922  0.56975  0.81427  1.0000
  H   H5639     1.0  0.62431  0.54072  0.97454  1.0000
  H   H5640     1.0  0.68223  0.98169  0.82938  1.0000
  H   H5641     1.0  0.59442  0.55412  0.84492  1.0000
  S   S731      1.0  0.76077  0.77777  0.73667  1.0000
  Fe  Fe371     1.0  0.76918  0.96646  0.71022  1.0000
  C   C3165     1.0  0.65857  0.79246  0.53408  1.0000
  C   C3166     1.0  0.62181  0.82154  0.59967  1.0000
  C   C3167     1.0  0.62118  0.81640  0.62837  1.0000
  C   C3168     1.0  0.63320  0.82307  0.63922  1.0000
  C   C3169     1.0  0.64611  0.83477  0.62149  1.0000
  C   C3170     1.0  0.64679  0.83983  0.59276  1.0000
  C   C3171     1.0  0.63467  0.83330  0.58200  1.0000
  H   H5642     1.0  0.61140  0.80733  0.64223  1.0000
  H   H5643     1.0  0.63252  0.81915  0.66152  1.0000
  H   H5644     1.0  0.65645  0.84908  0.57904  1.0000
  H   H5645     1.0  0.63517  0.83749  0.55986  1.0000
  C   C3172     1.0  0.74707  0.55293  0.54494  1.0000
  C   C3173     1.0  0.74332  0.55136  0.51960  1.0000
  C   C3174     1.0  0.73348  0.53754  0.51845  1.0000
  C   C3175     1.0  0.72704  0.52517  0.54284  1.0000
  C   C3176     1.0  0.73085  0.52675  0.56814  1.0000
  C   C3177     1.0  0.74085  0.54047  0.56918  1.0000
  H   H5646     1.0  0.74794  0.56096  0.50080  1.0000
  H   H5647     1.0  0.72598  0.51730  0.58714  1.0000
  H   H5648     1.0  0.74366  0.54145  0.58880  1.0000
  C   C3178     1.0  0.71588  0.56949  0.68394  1.0000
  C   C3179     1.0  0.70177  0.57188  0.69695  1.0000
  C   C3180     1.0  0.68836  0.55954  0.70721  1.0000
  C   C3181     1.0  0.68908  0.54466  0.70499  1.0000
  C   C3182     1.0  0.70319  0.54222  0.69210  1.0000
  C   C3183     1.0  0.71654  0.55460  0.68152  1.0000
  H   H5649     1.0  0.70116  0.58336  0.69891  1.0000
  H   H5650     1.0  0.67751  0.56155  0.71701  1.0000
  H   H5651     1.0  0.70381  0.53076  0.69019  1.0000
  H   H5652     1.0  0.72736  0.55259  0.67171  1.0000
  H   H5653     1.0  0.65132  0.52936  0.68158  1.0000
  N   N177      1.0  0.68934  0.54035  0.60981  1.0000
  C   C3184     1.0  0.67662  0.54121  0.63350  1.0000
  C   C3185     1.0  0.70448  0.54974  0.61167  1.0000
  C   C3186     1.0  0.68591  0.54658  0.58193  1.0000
  C   C3187     1.0  0.69033  0.52383  0.61200  1.0000
  C   C3188     1.0  0.69241  0.51488  0.64045  1.0000
  C   C3189     1.0  0.66044  0.53048  0.63721  1.0000
  C   C3190     1.0  0.69916  0.54939  0.55498  1.0000
  C   C3191     1.0  0.70599  0.56739  0.60762  1.0000
  C   C3192     1.0  0.72265  0.57610  0.60402  1.0000
  H   H5654     1.0  0.60451  0.61582  0.89227  1.0000
  C   C3193     1.0  0.64837  0.53265  0.66108  1.0000
  H   H5655     1.0  0.67525  0.55328  0.63026  1.0000
  H   H5656     1.0  0.67971  0.53869  0.65408  1.0000
  H   H5657     1.0  0.70650  0.54550  0.63276  1.0000
  H   H5658     1.0  0.71430  0.54806  0.59642  1.0000
  H   H5659     1.0  0.73573  0.82542  0.75710  1.0000
  C   C3194     1.0  0.72003  0.76619  0.70415  1.0000
  H   H5660     1.0  0.68005  0.51692  0.60755  1.0000
  H   H5661     1.0  0.70023  0.52350  0.59527  1.0000
  H   H5662     1.0  0.68311  0.51467  0.65873  1.0000
  H   H5663     1.0  0.70368  0.52024  0.64373  1.0000
  H   H5664     1.0  0.60273  0.83592  0.63910  1.0000
  H   H5665     1.0  0.66057  0.51806  0.64258  1.0000
  H   H5666     1.0  0.70226  0.53842  0.55343  1.0000
  H   H5667     1.0  0.70965  0.55799  0.55490  1.0000
  H   H5668     1.0  0.70249  0.57268  0.58869  1.0000
  H   H5669     1.0  0.69870  0.56939  0.62651  1.0000
  H   H5670     1.0  0.73027  0.57531  0.58427  1.0000
  H   H5671     1.0  0.72334  0.58854  0.60281  1.0000
  H   H5672     1.0  0.72693  0.57123  0.62227  1.0000
  H   H5673     1.0  0.59878  0.86763  0.58715  1.0000
  C   C3195     1.0  0.66406  0.82490  0.53528  1.0000
  H   H5674     1.0  0.61894  0.53089  0.93606  1.0000
  C   C3196     1.0  0.64492  0.98028  0.93381  1.0000
  H   H5675     1.0  0.64757  0.54490  0.65683  1.0000
  H   H5676     1.0  0.63686  0.52511  0.66295  1.0000
  N   N178      1.0  0.74921  0.88150  0.72420  1.0000
  C   C3197     1.0  0.75724  0.87411  0.74494  1.0000
  C   C3198     1.0  0.74344  0.89463  0.73338  1.0000
  C   C3199     1.0  0.73532  0.86920  0.72454  1.0000
  H   H5677     1.0  0.65840  0.75593  0.79950  1.0000
  C   C3200     1.0  0.72466  0.87470  0.70615  1.0000
  H   H5678     1.0  0.66347  0.49774  0.76055  1.0000
  H   H5679     1.0  0.62784  0.63748  0.71661  1.0000
  C   C3201     1.0  0.70994  0.86192  0.71150  1.0000
  C   C3202     1.0  0.60720  0.62135  0.78751  1.0000
  C   C3203     1.0  0.69445  0.49028  0.74799  1.0000
  H   H5680     1.0  0.74222  0.90308  0.71479  1.0000
  H   H5681     1.0  0.73161  0.89011  0.74795  1.0000
  H   H5682     1.0  0.72812  0.86384  0.74670  1.0000
  H   H5683     1.0  0.75336  0.89279  0.67981  1.0000
  H   H5684     1.0  0.67826  0.61029  0.90164  1.0000
  H   H5685     1.0  0.73058  0.87760  0.68327  1.0000
  H   H5686     1.0  0.72114  0.88508  0.71062  1.0000
  H   H5687     1.0  0.66686  0.98608  0.94366  1.0000
  H   H5688     1.0  0.60229  0.62150  0.74598  1.0000
  H   H5689     1.0  0.69512  0.96582  0.73593  1.0000
  S   S732      1.0  0.75843  0.98678  0.70468  1.0000
  H   H5690     1.0  0.67820  0.63228  0.97406  1.0000
  H   H5691     1.0  0.71274  0.85167  0.70496  1.0000
  H   H5692     1.0  0.70353  0.85834  0.73419  1.0000
  H   H5693     1.0  0.70233  0.86640  0.69891  1.0000
  C   C3204     1.0  0.58496  0.94416  0.80763  1.0000
  C   C3205     1.0  0.78217  0.62752  0.51978  1.0000
  H   H5694     1.0  0.75397  0.58821  0.75703  1.0000
  H   H5695     1.0  0.69685  0.97383  0.69900  1.0000
  H   H5696     1.0  0.75446  0.85047  0.73891  1.0000
  N   N179      1.0  0.60211  0.92690  0.97301  1.0000
  H   H5697     1.0  0.76545  0.65914  0.63859  1.0000
  H   H5698     1.0  0.61938  0.64737  0.74097  1.0000
  H   H5699     1.0  0.58633  0.62064  0.83247  1.0000
  H   H5700     1.0  0.76179  0.87713  0.68630  1.0000
  H   H5701     1.0  0.67228  0.49765  0.97479  1.0000
  H   H5702     1.0  0.61610  0.91860  0.89294  1.0000
  H   H5703     1.0  0.77226  0.97185  0.89036  1.0000
  C   C3206     1.0  0.75295  0.90402  0.74943  1.0000
  H   H5704     1.0  0.69829  0.75849  0.75829  1.0000
  H   H5705     1.0  0.68353  0.70536  0.89135  1.0000
  H   H5706     1.0  0.64338  0.64603  0.96901  1.0000
  S   S733      1.0  0.76734  0.76488  0.79898  1.0000
  H   H5707     1.0  0.75683  0.80304  0.68486  1.0000
  H   H5708     1.0  0.62575  0.85295  0.63291  1.0000
  H   H5709     1.0  0.69206  0.51343  0.74255  1.0000
  H   H5710     1.0  0.61289  0.49875  0.92806  1.0000
  H   H5711     1.0  0.67104  0.74435  0.78814  1.0000
  H   H5712     1.0  0.70015  0.79588  0.76339  1.0000
  C   C3207     1.0  0.76379  0.86045  0.73833  1.0000
  H   H5713     1.0  0.58356  0.57290  0.81861  1.0000
  H   H5714     1.0  0.73047  0.53665  0.49896  1.0000
  C   C3208     1.0  0.65475  0.62439  0.94941  1.0000
  H   H5715     1.0  0.59916  0.65695  0.83952  1.0000
  H   H5716     1.0  0.65484  0.63534  0.93413  1.0000
  C   C3209     1.0  0.68321  0.51931  0.78893  1.0000
  H   H5717     1.0  0.77905  0.90548  0.64362  1.0000
  C   C3210     1.0  0.71027  0.79184  0.75462  1.0000
  C   C3211     1.0  0.77994  0.55058  0.48201  1.0000
  C   C3212     1.0  0.69706  0.53385  0.78090  1.0000
  C   C3213     1.0  0.71206  0.95921  0.70789  1.0000
  C   C3214     1.0  0.77217  0.85455  0.76024  1.0000
  H   H5718     1.0  0.65650  0.53310  0.61762  1.0000
  C   C3215     1.0  0.69145  0.54859  0.78055  1.0000
  H   H5719     1.0  0.70282  0.50218  0.70297  1.0000
  H   H5720     1.0  0.65050  0.87260  0.61108  1.0000
  H   H5721     1.0  0.74502  0.56921  0.75485  1.0000
  H   H5722     1.0  0.78179  0.64769  0.53484  1.0000
  H   H5723     1.0  0.67604  0.51849  0.81028  1.0000
  H   H5724     1.0  0.67607  0.52214  0.77407  1.0000
  N   N180      1.0  0.59582  0.85753  0.63191  1.0000
  H   H5725     1.0  0.73412  0.91254  0.76990  1.0000
  C   C3216     1.0  0.64811  0.51246  0.93547  1.0000
  H   H5726     1.0  0.59934  0.94990  0.97328  1.0000
  H   H5727     1.0  0.66493  0.83532  0.54373  1.0000
  S   S734      1.0  0.61655  0.97292  0.92213  1.0000
  H   H5728     1.0  0.70458  0.53532  0.75955  1.0000
  H   H5729     1.0  0.70407  0.53304  0.79651  1.0000
  H   H5730     1.0  0.70037  0.82132  0.67985  1.0000
  C   C3217     1.0  0.68992  0.81140  0.68692  1.0000
  C   C3218     1.0  0.66723  0.75508  0.78140  1.0000
  C   C3219     1.0  0.59205  0.93807  0.97615  1.0000
  H   H5731     1.0  0.68423  0.54711  0.52649  1.0000
  H   H5732     1.0  0.71862  0.95620  0.72375  1.0000
  H   H5733     1.0  0.71433  0.80149  0.69546  1.0000
  H   H5734     1.0  0.67649  0.77979  0.76631  1.0000
  H   H5735     1.0  0.68404  0.55003  0.76568  1.0000
  H   H5736     1.0  0.68471  0.54812  0.80202  1.0000
  H   H5737     1.0  0.70149  0.55891  0.77349  1.0000
  H   H5738     1.0  0.63284  0.55300  0.87974  1.0000
  C   C3220     1.0  0.65864  0.77610  0.53124  1.0000
  C   C3221     1.0  0.67506  0.81386  0.57331  1.0000
  C   C3222     1.0  0.71706  0.97852  0.79388  1.0000
  H   H5739     1.0  0.61285  0.61971  0.84078  1.0000
  S   S735      1.0  0.59693  0.96306  0.80139  1.0000
  C   C3223     1.0  0.70348  0.97124  0.71487  1.0000
  C   C3224     1.0  0.70614  0.82221  0.53197  1.0000
  C   C3225     1.0  0.66019  0.80244  0.59381  1.0000
  C   C3226     1.0  0.66076  0.80080  0.62462  1.0000
  H   H5740     1.0  0.75294  0.72849  0.71233  1.0000
  H   H5741     1.0  0.78190  0.97834  0.92998  1.0000
  H   H5742     1.0  0.75430  0.95440  0.87177  1.0000
  C   C3227     1.0  0.69436  0.55558  0.52815  1.0000
  H   H5743     1.0  0.68458  0.80899  0.57870  1.0000
  H   H5744     1.0  0.67630  0.82506  0.57930  1.0000
  H   H5745     1.0  0.59465  0.73592  0.73077  1.0000
  H   H5746     1.0  0.71763  0.49714  0.71952  1.0000
  H   H5747     1.0  0.78174  0.65019  0.49791  1.0000
  H   H5748     1.0  0.68038  0.79399  0.54580  1.0000
  H   H5749     1.0  0.74735  0.70765  0.72548  1.0000
  C   C3228     1.0  0.69181  0.82782  0.52645  1.0000
  S   S736      1.0  0.71259  0.50856  0.54381  1.0000
  H   H5750     1.0  0.68533  0.77016  0.79130  1.0000
  H   H5751     1.0  0.73105  0.82839  0.51544  1.0000
  H   H5752     1.0  0.70729  0.82238  0.55356  1.0000
  C   C3229     1.0  0.62252  0.97744  0.97169  1.0000
  Fe  Fe372     1.0  0.77549  0.78982  0.79979  1.0000
  H   H5753     1.0  0.64952  0.79356  0.63900  1.0000
  C   C3230     1.0  0.60855  0.92795  0.94212  1.0000
  H   H5754     1.0  0.62841  0.51761  0.89585  1.0000
  C   C3231     1.0  0.58691  0.73519  0.71643  1.0000
  C   C3232     1.0  0.72106  0.83286  0.51137  1.0000
  H   H5755     1.0  0.63362  0.93104  0.89551  1.0000
  H   H5756     1.0  0.64642  0.51619  0.83139  1.0000
  H   H5757     1.0  0.71951  0.49272  0.83350  1.0000
  C   C3233     1.0  0.71591  0.72562  0.97156  1.0000
  H   H5758     1.0  0.65226  0.81748  0.54620  1.0000
  H   H5759     1.0  0.58920  0.83916  0.56330  1.0000
  H   H5760     1.0  0.58975  0.84617  0.69249  1.0000
  H   H5761     1.0  0.70366  0.94846  0.70831  1.0000
  H   H5762     1.0  0.66795  0.51617  0.97223  1.0000
  H   H5763     1.0  0.61067  0.87166  0.65049  1.0000
  H   H5764     1.0  0.76471  0.69196  0.70596  1.0000
  H   H5765     1.0  0.63148  0.50349  0.51024  1.0000
  H   H5766     1.0  0.59349  0.76006  0.69713  1.0000
  C   C3234     1.0  0.62048  0.50447  0.96434  1.0000
  N   N181      1.0  0.71026  0.72686  0.89564  1.0000
  C   C3235     1.0  0.70687  0.72617  0.92676  1.0000
  C   C3236     1.0  0.69643  0.72961  0.88524  1.0000
  C   C3237     1.0  0.71354  0.71173  0.89197  1.0000
  C   C3238     1.0  0.72417  0.73990  0.87859  1.0000
  C   C3239     1.0  0.72381  0.75626  0.88264  1.0000
  H   H5767     1.0  0.62973  0.54004  0.85761  1.0000
  C   C3240     1.0  0.71541  0.70949  0.86169  1.0000
  C   C3241     1.0  0.68157  0.71606  0.89691  1.0000
  C   C3242     1.0  0.73865  0.76835  0.86490  1.0000
  H   H5768     1.0  0.71011  0.75585  0.71379  1.0000
  C   C3243     1.0  0.71720  0.69323  0.86116  1.0000
  H   H5769     1.0  0.73114  0.78735  0.71164  1.0000
  H   H5770     1.0  0.70244  0.73623  0.93082  1.0000
  H   H5771     1.0  0.69324  0.73994  0.89080  1.0000
  H   H5772     1.0  0.69930  0.73263  0.86174  1.0000
  H   H5773     1.0  0.70444  0.70172  0.90691  1.0000
  H   H5774     1.0  0.72442  0.71049  0.89771  1.0000
  H   H5775     1.0  0.73498  0.73729  0.88281  1.0000
  H   H5776     1.0  0.72564  0.74099  0.85555  1.0000
  H   H5777     1.0  0.72269  0.75646  0.90502  1.0000
  H   H5778     1.0  0.71405  0.76000  0.87579  1.0000
  C   C3244     1.0  0.77495  0.89905  0.68966  1.0000
  H   H5779     1.0  0.73067  0.73523  0.92962  1.0000
  H   H5780     1.0  0.72580  0.71801  0.84675  1.0000
  H   H5781     1.0  0.70524  0.71089  0.85371  1.0000
  C   C3245     1.0  0.58684  0.50775  0.71436  1.0000
  H   H5782     1.0  0.67751  0.71351  0.92027  1.0000
  H   H5783     1.0  0.66556  0.73046  0.89021  1.0000
  H   H5784     1.0  0.73823  0.77996  0.86811  1.0000
  H   H5785     1.0  0.74891  0.76536  0.87104  1.0000
  H   H5786     1.0  0.74000  0.76910  0.84206  1.0000
  H   H5787     1.0  0.72370  0.81406  0.72359  1.0000
  H   H5788     1.0  0.71232  0.78421  0.77329  1.0000
  H   H5789     1.0  0.69398  0.49191  0.66086  1.0000
  H   H5790     1.0  0.71871  0.69203  0.83919  1.0000
  H   H5791     1.0  0.72747  0.69118  0.86844  1.0000
  H   H5792     1.0  0.70670  0.68427  0.87480  1.0000
  C   C3246     1.0  0.58995  0.68921  0.69532  1.0000
  H   H5793     1.0  0.63173  0.91057  0.90045  1.0000
  H   H5794     1.0  0.67166  0.72213  0.86128  1.0000
  S   S737      1.0  0.77680  0.59070  0.64840  1.0000
  H   H5795     1.0  0.77131  0.95180  0.81379  1.0000
  H   H5796     1.0  0.66304  0.81231  0.62921  1.0000
  H   H5797     1.0  0.69265  0.83926  0.53158  1.0000
  C   C3247     1.0  0.59423  0.66190  0.77298  1.0000
  C   C3248     1.0  0.66899  0.50702  0.96101  1.0000
  C   C3249     1.0  0.60218  0.56561  0.83244  1.0000
  C   C3250     1.0  0.59786  0.84120  0.67974  1.0000
  H   H5798     1.0  0.61077  0.56910  0.84417  1.0000
  H   H5799     1.0  0.67957  0.62939  0.92970  1.0000
  C   C3251     1.0  0.77280  0.67791  0.65725  1.0000
  C   C3252     1.0  0.62535  0.91940  0.90429  1.0000
  H   H5800     1.0  0.67448  0.84144  0.49377  1.0000
  H   H5801     1.0  0.78158  0.89514  0.70475  1.0000
  H   H5802     1.0  0.75910  0.55183  0.68642  1.0000
  H   H5803     1.0  0.69150  0.56687  0.52812  1.0000
  H   H5804     1.0  0.63461  0.63837  0.74774  1.0000
  C   C3253     1.0  0.62424  0.63726  0.73930  1.0000
  C   C3254     1.0  0.66847  0.63785  0.97775  1.0000
  C   C3255     1.0  0.61855  0.91655  0.93604  1.0000
  H   H5805     1.0  0.61027  0.50900  0.97090  1.0000
  H   H5806     1.0  0.77076  0.54367  0.72637  1.0000
  H   H5807     1.0  0.61464  0.53850  0.88821  1.0000
  H   H5808     1.0  0.77665  0.84473  0.75510  1.0000
  C   C3256     1.0  0.59474  0.84169  0.65025  1.0000
  H   H5809     1.0  0.62902  0.67627  0.97089  1.0000
  C   C3257     1.0  0.77003  0.71715  0.69532  1.0000
  H   H5810     1.0  0.61794  0.62304  0.79482  1.0000
  C   C3258     1.0  0.62609  0.49808  0.85516  1.0000
  C   C3259     1.0  0.65446  0.98364  0.95156  1.0000
  C   C3260     1.0  0.70625  0.98461  0.80927  1.0000
  H   H5811     1.0  0.62354  0.62102  0.96881  1.0000
  H   H5812     1.0  0.59324  0.62676  0.87468  1.0000
  H   H5813     1.0  0.60976  0.84780  0.67782  1.0000
  H   H5814     1.0  0.62839  0.91786  0.94580  1.0000
  H   H5815     1.0  0.66196  0.76944  0.54933  1.0000
  H   H5816     1.0  0.77078  0.57629  0.78526  1.0000
  H   H5817     1.0  0.75322  0.92385  0.76712  1.0000
  H   H5818     1.0  0.58515  0.59924  0.77468  1.0000
  H   H5819     1.0  0.76511  0.90912  0.73710  1.0000
  H   H5820     1.0  0.77476  0.95706  0.85867  1.0000
  H   H5821     1.0  0.60471  0.81940  0.68542  1.0000
  C   C3261     1.0  0.67501  0.80184  0.53295  1.0000
  H   H5822     1.0  0.60687  0.59143  0.78739  1.0000
  H   H5823     1.0  0.61733  0.61234  0.75232  1.0000
  H   H5824     1.0  0.62694  0.86308  0.59725  1.0000
  H   H5825     1.0  0.61144  0.90436  0.94421  1.0000
  H   H5826     1.0  0.73650  0.55995  0.80745  1.0000
  C   C3262     1.0  0.76125  0.94842  0.83256  1.0000
  C   C3263     1.0  0.65165  0.49879  0.86206  1.0000
  H   H5827     1.0  0.61169  0.88030  0.61478  1.0000
  C   C3264     1.0  0.73457  0.76031  0.69824  1.0000
  C   C3265     1.0  0.75212  0.54830  0.70869  1.0000
  H   H5828     1.0  0.76185  0.67393  0.67432  1.0000
  C   C3266     1.0  0.69693  0.50113  0.80843  1.0000
  H   H5829     1.0  0.59075  0.88867  0.62790  1.0000
  C   C3267     1.0  0.64130  0.67742  0.96397  1.0000
  H   H5830     1.0  0.77540  0.72739  0.67682  1.0000
  H   H5831     1.0  0.61378  0.59639  0.81547  1.0000
  H   H5832     1.0  0.65800  0.71011  0.89352  1.0000
  C   C3268     1.0  0.75943  0.88711  0.69441  1.0000
  C   C3269     1.0  0.66844  0.72003  0.88465  1.0000
  H   H5833     1.0  0.75751  0.97668  0.82526  1.0000
  H   H5834     1.0  0.64997  0.98002  0.91247  1.0000
  H   H5835     1.0  0.64988  0.79136  0.55381  1.0000
  C   C3270     1.0  0.76607  0.57037  0.77040  1.0000
  Fe  Fe373     1.0  0.78090  0.77264  0.75310  1.0000
  S   S738      1.0  0.61350  0.50563  0.83736  1.0000
  H   H5836     1.0  0.74689  0.71675  0.68984  1.0000
  H   H5837     1.0  0.75280  0.89643  0.77009  1.0000
  H   H5838     1.0  0.77763  0.84708  0.86934  1.0000
  H   H5839     1.0  0.74530  0.57917  0.80975  1.0000
  H   H5840     1.0  0.68231  0.55757  0.58146  1.0000
  C   C3271     1.0  0.72048  0.72531  0.94058  1.0000
  C   C3272     1.0  0.67224  0.49136  0.79821  1.0000
  C   C3273     1.0  0.65379  0.50021  0.95464  1.0000
  C   C3274     1.0  0.70381  0.79230  0.70823  1.0000
  C   C3275     1.0  0.61219  0.62205  0.75561  1.0000
  C   C3276     1.0  0.72131  0.77729  0.72371  1.0000
  H   H5841     1.0  0.64637  0.53185  0.88745  1.0000
  C   C3277     1.0  0.69386  0.76825  0.74821  1.0000
  C   C3278     1.0  0.72429  0.80627  0.74341  1.0000
  H   H5842     1.0  0.74756  0.97379  0.89677  1.0000
  H   H5843     1.0  0.64528  0.50728  0.91841  1.0000
  H   H5844     1.0  0.65806  0.52269  0.92414  1.0000
  H   H5845     1.0  0.70540  0.81027  0.52961  1.0000
  H   H5846     1.0  0.69125  0.80672  0.72982  1.0000
  H   H5847     1.0  0.65910  0.79066  0.59052  1.0000
  H   H5848     1.0  0.72018  0.96371  0.68646  1.0000
  Fe  Fe374     1.0  0.62616  0.97483  0.87567  1.0000
  H   H5849     1.0  0.75975  0.93609  0.84367  1.0000
  H   H5850     1.0  0.58461  0.98430  0.83100  1.0000
  H   H5851     1.0  0.72494  0.77142  0.74219  1.0000
  H   H5852     1.0  0.58617  0.74863  0.67527  1.0000
  C   C3279     1.0  0.71293  0.87216  0.48743  1.0000
  C   C3280     1.0  0.69030  0.80003  0.71393  1.0000
  H   H5853     1.0  0.74327  0.55504  0.71074  1.0000
  H   H5854     1.0  0.65767  0.60326  0.91620  1.0000
  H   H5855     1.0  0.58491  0.50147  0.75906  1.0000
  N   N182      1.0  0.76510  0.98643  0.85780  1.0000
  H   H5856     1.0  0.73350  0.75256  0.68397  1.0000
  H   H5857     1.0  0.70836  0.51084  0.75461  1.0000
  H   H5858     1.0  0.74915  0.86977  0.76652  1.0000
  H   H5859     1.0  0.67963  0.81611  0.69101  1.0000
  H   H5860     1.0  0.64690  0.76987  0.53120  1.0000
  C   C3281     1.0  0.75120  0.57561  0.76748  1.0000
  C   C3282     1.0  0.61067  0.86900  0.62977  1.0000
  C   C3283     1.0  0.63379  0.52923  0.89750  1.0000
  H   H5861     1.0  0.73616  0.75359  0.71828  1.0000
  H   H5862     1.0  0.72538  0.80845  0.78557  1.0000
  H   H5863     1.0  0.74491  0.77020  0.68781  1.0000
  C   C3284     1.0  0.74909  0.98306  0.87714  1.0000
  H   H5864     1.0  0.72518  0.98881  0.69798  1.0000
  H   H5865     1.0  0.64444  0.61580  0.94887  1.0000
  H   H5866     1.0  0.69735  0.71575  0.93915  1.0000
  H   H5867     1.0  0.73886  0.85958  0.71676  1.0000
  H   H5868     1.0  0.63965  0.87713  0.64115  1.0000
  H   H5869     1.0  0.71494  0.82083  0.76825  1.0000
  H   H5870     1.0  0.60407  0.84989  0.59480  1.0000
  H   H5871     1.0  0.65442  0.50359  0.79055  1.0000
  H   H5872     1.0  0.73522  0.80261  0.73951  1.0000
  C   C3285     1.0  0.71478  0.98618  0.71576  1.0000
  C   C3286     1.0  0.76407  0.95864  0.85246  1.0000
  C   C3287     1.0  0.63993  0.87621  0.61927  1.0000
  C   C3288     1.0  0.72505  0.81579  0.76502  1.0000
  H   H5873     1.0  0.71873  0.77234  0.68345  1.0000
  H   H5874     1.0  0.77702  0.59698  0.72611  1.0000
  H   H5875     1.0  0.73437  0.96560  0.86303  1.0000
  C   C3289     1.0  0.58391  0.93213  0.83114  1.0000
  C   C3290     1.0  0.71995  0.97770  0.88417  1.0000
  C   C3291     1.0  0.59796  0.70546  0.74109  1.0000
  C   C3292     1.0  0.61362  0.71362  0.71881  1.0000
  C   C3293     1.0  0.66763  0.61357  0.91063  1.0000
  C   C3294     1.0  0.64184  0.50541  0.84783  1.0000
  N   N183      1.0  0.68713  0.50403  0.78795  1.0000
  C   C3295     1.0  0.65016  0.83477  0.49868  1.0000
  C   C3296     1.0  0.62710  0.70960  0.72984  1.0000
  N   N184      1.0  0.77834  0.57353  0.74313  1.0000
  S   S739      1.0  0.73071  0.49028  0.48408  1.0000
  H   H5876     1.0  0.70406  0.55737  0.50933  1.0000
  H   H5877     1.0  0.59469  0.72107  0.68939  1.0000
  H   H5878     1.0  0.72279  0.84473  0.51446  1.0000
  C   C3297     1.0  0.69747  0.87175  0.48832  1.0000
  H   H5879     1.0  0.63831  0.54193  0.92732  1.0000
  C   C3298     1.0  0.77098  0.70180  0.68698  1.0000
  H   H5880     1.0  0.59801  0.71121  0.75863  1.0000
  H   H5881     1.0  0.59822  0.69335  0.75064  1.0000
  H   H5882     1.0  0.61546  0.72642  0.71400  1.0000
  H   H5883     1.0  0.61422  0.71040  0.69861  1.0000
  H   H5884     1.0  0.76906  0.54118  0.49060  1.0000
  H   H5885     1.0  0.60494  0.59951  0.85911  1.0000
  H   H5886     1.0  0.70806  0.51016  0.80148  1.0000
  H   H5887     1.0  0.66754  0.82218  0.49147  1.0000
  H   H5888     1.0  0.66682  0.77663  0.51110  1.0000
  H   H5889     1.0  0.60052  0.68711  0.70130  1.0000
  H   H5890     1.0  0.68190  0.80416  0.51068  1.0000
  H   H5891     1.0  0.71280  0.73662  0.97327  1.0000
  H   H5892     1.0  0.67835  0.51193  0.94109  1.0000
  H   H5893     1.0  0.63820  0.71624  0.71429  1.0000
  H   H5894     1.0  0.62702  0.71252  0.75032  1.0000
  H   H5895     1.0  0.62640  0.69701  0.73290  1.0000
  C   C3299     1.0  0.59535  0.85600  0.60263  1.0000
  H   H5896     1.0  0.58505  0.60638  0.89306  1.0000
  N   N185      1.0  0.70703  0.78261  0.73378  1.0000
  H   H5897     1.0  0.75499  0.54697  0.75024  1.0000
  H   H5898     1.0  0.68457  0.98641  0.73461  1.0000
  C   C3300     1.0  0.76606  0.97604  0.83800  1.0000
  H   H5899     1.0  0.68090  0.49189  0.63841  1.0000
  C   C3301     1.0  0.75325  0.71746  0.70638  1.0000
  H   H5900     1.0  0.67916  0.79103  0.72120  1.0000
  C   C3302     1.0  0.69587  0.50537  0.75803  1.0000
  C   C3303     1.0  0.60302  0.59347  0.80854  1.0000
  C   C3304     1.0  0.59574  0.61519  0.87986  1.0000
  N   N186      1.0  0.63468  0.51773  0.94986  1.0000
  H   H5901     1.0  0.64978  0.80643  0.59115  1.0000
  H   H5902     1.0  0.65436  0.79822  0.51642  1.0000
  H   H5903     1.0  0.77742  0.98014  0.82198  1.0000
  H   H5904     1.0  0.73632  0.98502  0.84369  1.0000
  H   H5905     1.0  0.66183  0.75420  0.76365  1.0000
  H   H5906     1.0  0.77221  0.86409  0.71726  1.0000
  H   H5907     1.0  0.72943  0.57630  0.79365  1.0000
  C   C3305     1.0  0.59599  0.82450  0.69639  1.0000
  H   H5908     1.0  0.59137  0.67360  0.66813  1.0000
  H   H5909     1.0  0.69529  0.98880  0.75941  1.0000
  H   H5910     1.0  0.65058  0.53412  0.96274  1.0000
  C   C3306     1.0  0.58499  0.71966  0.70787  1.0000
  H   H5911     1.0  0.61559  0.94001  0.93084  1.0000
  C   C3307     1.0  0.59338  0.65655  0.82279  1.0000
  H   H5912     1.0  0.76415  0.85028  0.78177  1.0000
  H   H5913     1.0  0.58549  0.51107  0.67108  1.0000
  C   C3308     1.0  0.76250  0.55106  0.72839  1.0000
  C   C3309     1.0  0.66673  0.68286  0.97268  1.0000
  H   H5914     1.0  0.58934  0.94686  0.93346  1.0000
  H   H5915     1.0  0.77583  0.71853  0.71237  1.0000
  H   H5916     1.0  0.66379  0.50451  0.85679  1.0000
  H   H5917     1.0  0.59930  0.92591  0.93110  1.0000
  C   C3310     1.0  0.77631  0.98373  0.87564  1.0000
  C   C3311     1.0  0.59001  0.60960  0.83496  1.0000
  H   H5918     1.0  0.74616  0.53577  0.71406  1.0000
  Fe  Fe375     1.0  0.78082  0.56999  0.63326  1.0000
  H   H5919     1.0  0.75066  0.94949  0.82555  1.0000
  C   C3312     1.0  0.59343  0.74917  0.69049  1.0000
  H   H5920     1.0  0.64510  0.49383  0.97473  1.0000
  H   H5921     1.0  0.64018  0.82440  0.50767  1.0000
  H   H5922     1.0  0.78210  0.86388  0.76009  1.0000
  H   H5923     1.0  0.59080  0.93420  0.84576  1.0000
  H   H5924     1.0  0.58451  0.85773  0.55456  1.0000
  H   H5925     1.0  0.77654  0.65462  0.66365  1.0000
  H   H5926     1.0  0.71030  0.97343  0.87515  1.0000
  C   C3313     1.0  0.69219  0.49804  0.64059  1.0000
  H   H5927     1.0  0.61601  0.64539  0.96928  1.0000
  H   H5928     1.0  0.77282  0.91038  0.69173  1.0000
  N   N187      1.0  0.58342  0.70542  0.73117  1.0000
  H   H5929     1.0  0.71908  0.98309  0.73488  1.0000
  H   H5930     1.0  0.62407  0.94244  0.97014  1.0000
  H   H5931     1.0  0.71799  0.96996  0.90567  1.0000
  H   H5932     1.0  0.77868  0.56048  0.49121  1.0000
  C   C3314     1.0  0.70544  0.49322  0.71882  1.0000
  H   H5933     1.0  0.58729  0.57860  0.84939  1.0000
  C   C3315     1.0  0.73523  0.97765  0.86495  1.0000
  C   C3316     1.0  0.77541  0.66392  0.64641  1.0000
  S   S740      1.0  0.78020  0.79512  0.84061  1.0000
  H   H5934     1.0  0.59308  0.69946  0.67683  1.0000
  H   H5935     1.0  0.78231  0.67416  0.49730  1.0000
  H   H5936     1.0  0.58321  0.86481  0.66620  1.0000
  N   N188      1.0  0.65353  0.62683  0.97864  1.0000
  S   S741      1.0  0.73640  0.98955  0.78133  1.0000
  S   S742      1.0  0.79940  0.99771  0.13148  1.0000
  H   H5937     1.0  0.89492  0.08755  0.35432  1.0000
  H   H5938     1.0  0.89508  0.33220  0.20843  1.0000
  C   C3317     1.0  0.87566  0.00376  0.02594  1.0000
  H   H5939     1.0  0.88657  0.47528  0.21185  1.0000
  H   H5940     1.0  0.80614  0.29709  0.23970  1.0000
  Fe  Fe376     1.0  0.90493  0.45272  0.28128  1.0000
  S   S743      1.0  0.89775  0.44966  0.24203  1.0000
  S   S744      1.0  0.88906  0.45466  0.32090  1.0000
  Fe  Fe377     1.0  0.93959  0.45824  0.25436  1.0000
  S   S745      1.0  0.93519  0.45505  0.21289  1.0000
  S   S746      1.0  0.96332  0.46204  0.26450  1.0000
  Fe  Fe378     1.0  0.91832  0.46972  0.21921  1.0000
  H   H5941     1.0  0.85400  0.43618  0.20447  1.0000
  Fe  Fe379     1.0  0.91482  0.43506  0.23827  1.0000
  S   S747      1.0  0.91005  0.41147  0.22805  1.0000
  S   S748      1.0  0.92411  0.47419  0.25873  1.0000
  S   S749      1.0  0.92065  0.43677  0.27949  1.0000
  C   C3318     1.0  0.79151  0.27464  0.03128  1.0000
  S   S750      1.0  0.81085  0.01233  0.99729  1.0000
  Fe  Fe380     1.0  0.82011  0.39779  0.44048  1.0000
  H   H5942     1.0  0.81044  0.36672  0.08907  1.0000
  S   S751      1.0  0.83734  0.39575  0.40262  1.0000
  H   H5943     1.0  0.83404  0.05371  0.01041  1.0000
  C   C3319     1.0  0.80776  0.00797  0.03459  1.0000
  S   S752      1.0  0.79516  0.39298  0.43967  1.0000
  H   H5944     1.0  0.92035  0.31487  0.98258  1.0000
  S   S753      1.0  0.95804  0.32931  0.10804  1.0000
  S   S754      1.0  0.96556  0.19559  0.16805  1.0000
  Fe  Fe381     1.0  0.96917  0.18652  0.21089  1.0000
  S   S755      1.0  0.94876  0.17472  0.24983  1.0000
  Fe  Fe382     1.0  0.86247  0.12114  0.29626  1.0000
  S   S756      1.0  0.84967  0.09970  0.33136  1.0000
  S   S757      1.0  0.88653  0.12285  0.26976  1.0000
  Fe  Fe383     1.0  0.83358  0.13323  0.29956  1.0000
  S   S758      1.0  0.81877  0.11254  0.33505  1.0000
  S   S759      1.0  0.82722  0.15206  0.26976  1.0000
  Fe  Fe384     1.0  0.83941  0.11569  0.35405  1.0000
  S   S760      1.0  0.83760  0.10980  0.40234  1.0000
  Fe  Fe385     1.0  0.83019  0.09809  0.30991  1.0000
  S   S761      1.0  0.81931  0.07424  0.30380  1.0000
  S   S762      1.0  0.85351  0.13735  0.31972  1.0000
  S   S763      1.0  0.84367  0.11850  0.27391  1.0000
  Fe  Fe386     1.0  0.96127  0.13008  0.00546  1.0000
  S   S764      1.0  0.96011  0.10537  0.00276  1.0000
  S   S765      1.0  0.95834  0.13504  0.04946  1.0000
  H   H5945     1.0  0.82869  0.40120  0.00836  1.0000
  H   H5946     1.0  0.91336  0.38484  0.16128  1.0000
  H   H5947     1.0  0.92885  0.38441  0.10074  1.0000
  Fe  Fe387     1.0  0.85183  0.32922  0.15592  1.0000
  S   S766      1.0  0.85854  0.32961  0.10982  1.0000
  S   S767      1.0  0.84157  0.30749  0.19247  1.0000
  Fe  Fe388     1.0  0.86069  0.36445  0.14500  1.0000
  S   S768      1.0  0.86729  0.36750  0.09810  1.0000
  S   S769      1.0  0.86264  0.38668  0.15992  1.0000
  Fe  Fe389     1.0  0.84615  0.34850  0.10380  1.0000
  S   S770      1.0  0.83371  0.35230  0.06889  1.0000
  Fe  Fe390     1.0  0.87919  0.34853  0.10725  1.0000
  S   S771      1.0  0.90246  0.35401  0.07589  1.0000
  S   S772      1.0  0.83815  0.34714  0.15011  1.0000
  S   S773      1.0  0.87387  0.34647  0.15402  1.0000
  H   H5948     1.0  0.98104  0.26038  0.00574  1.0000
  C   C3320     1.0  0.81782  0.33919  0.06457  1.0000
  C   C3321     1.0  0.81453  0.34167  0.03802  1.0000
  C   C3322     1.0  0.80161  0.33209  0.03376  1.0000
  C   C3323     1.0  0.79174  0.31992  0.05609  1.0000
  C   C3324     1.0  0.79491  0.31750  0.08282  1.0000
  C   C3325     1.0  0.80799  0.32700  0.08700  1.0000
  H   H5949     1.0  0.82208  0.35103  0.02051  1.0000
  H   H5950     1.0  0.81745  0.40133  0.08594  1.0000
  C   C3326     1.0  0.94514  0.35590  0.98859  1.0000
  H   H5951     1.0  0.81034  0.32504  0.10761  1.0000
  H   H5952     1.0  0.84332  0.04191  0.20881  1.0000
  C   C3327     1.0  0.79802  0.04530  0.26280  1.0000
  H   H5953     1.0  0.87790  0.47901  0.36071  1.0000
  H   H5954     1.0  0.90339  0.38489  0.09311  1.0000
  H   H5955     1.0  0.83206  0.32155  0.35183  1.0000
  C   C3328     1.0  0.81022  0.06745  0.27859  1.0000
  C   C3329     1.0  0.80879  0.07749  0.25440  1.0000
  C   C3330     1.0  0.80229  0.07146  0.23439  1.0000
  H   H5956     1.0  0.97225  0.19792  0.99286  1.0000
  C   C3331     1.0  0.80473  0.05132  0.28260  1.0000
  H   H5957     1.0  0.81272  0.08991  0.25105  1.0000
  C   C3332     1.0  0.97603  0.47866  0.26851  1.0000
  H   H5958     1.0  0.80571  0.04339  0.30119  1.0000
  H   H5959     1.0  0.82751  0.04601  0.19464  1.0000
  C   C3333     1.0  0.96269  0.14702  0.09451  1.0000
  C   C3334     1.0  0.96701  0.14950  0.06487  1.0000
  H   H5960     1.0  0.96652  0.15527  0.13075  1.0000
  H   H5961     1.0  0.95390  0.13671  0.10730  1.0000
  C   C3335     1.0  0.90328  0.13839  0.26210  1.0000
  C   C3336     1.0  0.91694  0.13805  0.24352  1.0000
  C   C3337     1.0  0.93075  0.14964  0.23818  1.0000
  C   C3338     1.0  0.93113  0.16155  0.25183  1.0000
  C   C3339     1.0  0.91739  0.16203  0.27008  1.0000
  C   C3340     1.0  0.90349  0.15066  0.27485  1.0000
  H   H5962     1.0  0.91691  0.12864  0.23349  1.0000
  H   H5963     1.0  0.94125  0.14900  0.22438  1.0000
  H   H5964     1.0  0.91758  0.17119  0.28074  1.0000
  H   H5965     1.0  0.89301  0.15123  0.28872  1.0000
  C   C3341     1.0  0.88732  0.48597  0.19671  1.0000
  H   H5966     1.0  0.90218  0.07106  0.16903  1.0000
  C   C3342     1.0  0.84166  0.11828  0.43007  1.0000
  C   C3343     1.0  0.84799  0.13420  0.42555  1.0000
  C   C3344     1.0  0.85181  0.14013  0.44792  1.0000
  H   H5967     1.0  0.90318  0.09151  0.16231  1.0000
  H   H5968     1.0  0.85007  0.14192  0.40474  1.0000
  H   H5969     1.0  0.85690  0.15242  0.44394  1.0000
  C   C3345     1.0  0.94265  0.33637  0.09927  1.0000
  C   C3346     1.0  0.94504  0.34790  0.07433  1.0000
  C   C3347     1.0  0.93268  0.35359  0.06791  1.0000
  C   C3348     1.0  0.91780  0.34755  0.08610  1.0000
  C   C3349     1.0  0.91538  0.33609  0.11118  1.0000
  C   C3350     1.0  0.92783  0.33058  0.11784  1.0000
  H   H5970     1.0  0.95647  0.35258  0.06018  1.0000
  H   H5971     1.0  0.93460  0.36260  0.04867  1.0000
  H   H5972     1.0  0.90389  0.33132  0.12515  1.0000
  H   H5973     1.0  0.92596  0.32167  0.13723  1.0000
  H   H5974     1.0  0.87479  0.11480  0.46742  1.0000
  C   C3351     1.0  0.94060  0.30842  0.04820  1.0000
  H   H5975     1.0  0.91478  0.33064  0.20201  1.0000
  H   H5976     1.0  0.89967  0.46811  0.42954  1.0000
  C   C3352     1.0  0.79691  0.05532  0.23829  1.0000
  C   C3353     1.0  0.96982  0.15758  0.10793  1.0000
  H   H5977     1.0  0.87759  0.09177  0.34611  1.0000
  C   C3354     1.0  0.89335  0.06305  0.03957  1.0000
  H   H5978     1.0  0.86000  0.03951  0.98574  1.0000
  H   H5979     1.0  0.81823  0.32600  0.39587  1.0000
  H   H5980     1.0  0.86651  0.06231  0.02135  1.0000
  C   C3355     1.0  0.89641  0.40466  0.20984  1.0000
  C   C3356     1.0  0.88827  0.41426  0.19693  1.0000
  C   C3357     1.0  0.87785  0.40847  0.18211  1.0000
  C   C3358     1.0  0.87566  0.39318  0.17946  1.0000
  C   C3359     1.0  0.88368  0.38352  0.19261  1.0000
  C   C3360     1.0  0.89388  0.38921  0.20790  1.0000
  H   H5981     1.0  0.89006  0.42611  0.19840  1.0000
  H   H5982     1.0  0.87142  0.41584  0.17256  1.0000
  H   H5983     1.0  0.88184  0.37163  0.19132  1.0000
  H   H5984     1.0  0.89977  0.38155  0.21845  1.0000
  H   H5985     1.0  0.82770  0.37924  0.98564  1.0000
  H   H5986     1.0  0.83107  0.03296  0.05036  1.0000
  H   H5987     1.0  0.91410  0.36804  0.12499  1.0000
  H   H5988     1.0  0.86268  0.48322  0.20614  1.0000
  C   C3361     1.0  0.85141  0.41234  0.37973  1.0000
  C   C3362     1.0  0.86126  0.41085  0.35547  1.0000
  C   C3363     1.0  0.87271  0.42377  0.33705  1.0000
  C   C3364     1.0  0.87448  0.43826  0.34291  1.0000
  C   C3365     1.0  0.86458  0.43978  0.36706  1.0000
  C   C3366     1.0  0.85306  0.42689  0.38537  1.0000
  H   H5989     1.0  0.86006  0.39964  0.35095  1.0000
  H   H5990     1.0  0.88027  0.42246  0.31849  1.0000
  H   H5991     1.0  0.86585  0.45093  0.37178  1.0000
  H   H5992     1.0  0.84556  0.42818  0.40397  1.0000
  C   C3367     1.0  0.81190  0.26363  0.18068  1.0000
  C   C3368     1.0  0.81269  0.26485  0.20773  1.0000
  C   C3369     1.0  0.82198  0.27831  0.21102  1.0000
  C   C3370     1.0  0.83006  0.29083  0.18743  1.0000
  C   C3371     1.0  0.82904  0.28967  0.16043  1.0000
  C   C3372     1.0  0.82020  0.27600  0.15707  1.0000
  H   H5993     1.0  0.80651  0.25526  0.22597  1.0000
  H   H5994     1.0  0.82298  0.27903  0.23188  1.0000
  H   H5995     1.0  0.83531  0.29918  0.14210  1.0000
  H   H5996     1.0  0.81978  0.27502  0.13612  1.0000
  C   C3373     1.0  0.87344  0.02011  0.01705  1.0000
  H   H5997     1.0  0.79787  0.28144  0.28282  1.0000
  C   C3374     1.0  0.80702  0.16855  0.25490  1.0000
  C   C3375     1.0  0.81117  0.15981  0.27748  1.0000
  C   C3376     1.0  0.80302  0.15819  0.30525  1.0000
  H   H5998     1.0  0.80055  0.25585  0.30558  1.0000
  H   H5999     1.0  0.82515  0.99536  0.03666  1.0000
  H   H6000     1.0  0.81312  0.16960  0.23337  1.0000
  H   H6001     1.0  0.80612  0.15145  0.32278  1.0000
  N   N189      1.0  0.93720  0.46559  0.35005  1.0000
  C   C3377     1.0  0.92518  0.45351  0.34440  1.0000
  C   C3378     1.0  0.83876  0.10853  0.45757  1.0000
  C   C3379     1.0  0.93258  0.46790  0.37939  1.0000
  H   H6002     1.0  0.83987  0.34100  0.35364  1.0000
  C   C3380     1.0  0.92255  0.43661  0.36237  1.0000
  H   H6003     1.0  0.88223  0.48885  0.13173  1.0000
  H   H6004     1.0  0.95028  0.44929  0.36337  1.0000
  H   H6005     1.0  0.80673  0.38129  0.39250  1.0000
  C   C3381     1.0  0.90681  0.42642  0.36384  1.0000
  H   H6006     1.0  0.92839  0.45337  0.32175  1.0000
  H   H6007     1.0  0.91394  0.45652  0.34724  1.0000
  H   H6008     1.0  0.93669  0.45999  0.39475  1.0000
  H   H6009     1.0  0.86913  0.47977  0.25232  1.0000
  H   H6010     1.0  0.90916  0.45257  0.39887  1.0000
  C   C3382     1.0  0.94046  0.48063  0.32751  1.0000
  H   H6011     1.0  0.93157  0.43137  0.35262  1.0000
  H   H6012     1.0  0.92334  0.43622  0.38431  1.0000
  H   H6013     1.0  0.95798  0.33822  0.99045  1.0000
  C   C3383     1.0  0.80227  0.00179  0.09422  1.0000
  C   C3384     1.0  0.81610  0.34133  0.43664  1.0000
  H   H6014     1.0  0.88479  0.46065  0.17448  1.0000
  C   C3385     1.0  0.79109  0.16569  0.31032  1.0000
  C   C3386     1.0  0.80727  0.35233  0.42283  1.0000
  H   H6015     1.0  0.89738  0.43072  0.37483  1.0000
  H   H6016     1.0  0.90557  0.42637  0.34225  1.0000
  H   H6017     1.0  0.90559  0.41430  0.37578  1.0000
  N   N190      1.0  0.80636  0.38687  0.06299  1.0000
  H   H6018     1.0  0.80070  0.14067  0.44799  1.0000
  H   H6019     1.0  0.96369  0.47678  0.36711  1.0000
  H   H6020     1.0  0.87971  0.03970  0.05859  1.0000
  H   H6021     1.0  0.83726  0.45303  0.45333  1.0000
  C   C3387     1.0  0.79111  0.26081  0.05596  1.0000
  H   H6022     1.0  0.85055  0.48263  0.13563  1.0000
  C   C3388     1.0  0.82023  0.39807  0.06567  1.0000
  H   H6023     1.0  0.93852  0.47982  0.37947  1.0000
  H   H6024     1.0  0.82823  0.33901  0.46971  1.0000
  H   H6025     1.0  0.88424  0.02843  0.01646  1.0000
  H   H6026     1.0  0.79532  0.26813  0.26096  1.0000
  C   C3389     1.0  0.79379  0.39521  0.06098  1.0000
  C   C3390     1.0  0.98002  0.24537  0.23107  1.0000
  H   H6027     1.0  0.82217  0.14455  0.47120  1.0000
  H   H6028     1.0  0.87393  0.06753  0.25393  1.0000
  C   C3391     1.0  0.96965  0.37902  0.09512  1.0000
  H   H6029     1.0  0.94973  0.31155  0.00359  1.0000
  H   H6030     1.0  0.87056  0.05456  0.06724  1.0000
  H   H6031     1.0  0.81204  0.22188  0.30770  1.0000
  C   C3392     1.0  0.96639  0.47181  0.34884  1.0000
  H   H6032     1.0  0.89541  0.47717  0.13235  1.0000
  H   H6033     1.0  0.82240  0.30528  0.05931  1.0000
  H   H6034     1.0  0.94455  0.47875  0.30623  1.0000
  H   H6035     1.0  0.78483  0.35633  0.37631  1.0000
  N   N191      1.0  0.78766  0.26335  0.08520  1.0000
  H   H6036     1.0  0.86176  0.01953  0.05901  1.0000
  H   H6037     1.0  0.89091  0.45294  0.12089  1.0000
  C   C3393     1.0  0.78658  0.36058  0.08992  1.0000
  H   H6038     1.0  0.81052  0.04632  0.47414  1.0000
  H   H6039     1.0  0.80729  0.34979  0.35598  1.0000
  H   H6040     1.0  0.89205  0.11031  0.47494  1.0000
  H   H6041     1.0  0.85281  0.46106  0.11121  1.0000
  H   H6042     1.0  0.79584  0.29080  0.17259  1.0000
  C   C3394     1.0  0.80969  0.21910  0.26642  1.0000
  H   H6043     1.0  0.78926  0.27932  0.22382  1.0000
  H   H6044     1.0  0.95373  0.40559  0.16048  1.0000
  H   H6045     1.0  0.83877  0.38848  0.04566  1.0000
  Fe  Fe391     1.0  0.98037  0.21832  0.16838  1.0000
  H   H6046     1.0  0.82061  0.99021  0.08892  1.0000
  H   H6047     1.0  0.89719  0.31608  0.07942  1.0000
  C   C3395     1.0  0.88759  0.11816  0.46028  1.0000
  C   C3396     1.0  0.85935  0.02214  0.03794  1.0000
  C   C3397     1.0  0.78727  0.17480  0.28770  1.0000
  C   C3398     1.0  0.89038  0.09565  0.34029  1.0000
  S   S774      1.0  0.80152  0.24649  0.17535  1.0000
  C   C3399     1.0  0.84443  0.48756  0.09622  1.0000
  C   C3400     1.0  0.95193  0.46022  0.34685  1.0000
  C   C3401     1.0  0.82954  0.33301  0.35153  1.0000
  N   N192      1.0  0.89364  0.12939  0.37789  1.0000
  C   C3402     1.0  0.88540  0.13941  0.36158  1.0000
  C   C3403     1.0  0.88994  0.11340  0.37304  1.0000
  C   C3404     1.0  0.88698  0.12763  0.40901  1.0000
  C   C3405     1.0  0.91090  0.13631  0.37036  1.0000
  C   C3406     1.0  0.91880  0.14617  0.33936  1.0000
  C   C3407     1.0  0.88607  0.15554  0.36763  1.0000
  C   C3408     1.0  0.89300  0.11676  0.43011  1.0000
  C   C3409     1.0  0.89573  0.11225  0.34245  1.0000
  C   C3410     1.0  0.93637  0.14966  0.33331  1.0000
  C   C3411     1.0  0.88217  0.16671  0.34434  1.0000
  H   H6048     1.0  0.87294  0.13330  0.36625  1.0000
  H   H6049     1.0  0.88985  0.14129  0.33849  1.0000
  H   H6050     1.0  0.89515  0.10548  0.38595  1.0000
  H   H6051     1.0  0.87719  0.10821  0.38009  1.0000
  H   H6052     1.0  0.87419  0.12320  0.41466  1.0000
  H   H6053     1.0  0.88930  0.13911  0.41384  1.0000
  H   H6054     1.0  0.91387  0.14409  0.38394  1.0000
  H   H6055     1.0  0.91688  0.12694  0.37518  1.0000
  H   H6056     1.0  0.91577  0.15748  0.33543  1.0000
  H   H6057     1.0  0.91534  0.14041  0.32352  1.0000
  H   H6058     1.0  0.87756  0.15424  0.38783  1.0000
  H   H6059     1.0  0.89759  0.16099  0.36974  1.0000
  H   H6060     1.0  0.90579  0.11959  0.42428  1.0000
  H   H6061     1.0  0.89140  0.11984  0.32725  1.0000
  H   H6062     1.0  0.90852  0.11530  0.33602  1.0000
  H   H6063     1.0  0.89479  0.09526  0.31813  1.0000
  H   H6064     1.0  0.94020  0.13875  0.33527  1.0000
  H   H6065     1.0  0.94166  0.15706  0.31133  1.0000
  H   H6066     1.0  0.94057  0.15599  0.34805  1.0000
  H   H6067     1.0  0.88259  0.17802  0.34953  1.0000
  H   H6068     1.0  0.89063  0.16878  0.32367  1.0000
  H   H6069     1.0  0.87037  0.16194  0.34252  1.0000
  H   H6070     1.0  0.80359  0.33089  0.22708  1.0000
  C   C3412     1.0  0.86418  0.44530  0.20401  1.0000
  C   C3413     1.0  0.81732  0.39410  0.00845  1.0000
  C   C3414     1.0  0.98114  0.26066  0.02778  1.0000
  H   H6071     1.0  0.88970  0.07898  0.14970  1.0000
  H   H6072     1.0  0.95637  0.29371  0.04127  1.0000
  H   H6073     1.0  0.87829  0.05149  0.00637  1.0000
  H   H6074     1.0  0.80684  0.26810  0.99884  1.0000
  H   H6075     1.0  0.91683  0.48063  0.32360  1.0000
  H   H6076     1.0  0.82221  0.35595  0.37175  1.0000
  H   H6077     1.0  0.90555  0.33322  0.17324  1.0000
  H   H6078     1.0  0.94510  0.36996  0.10535  1.0000
  H   H6079     1.0  0.90122  0.05989  0.02292  1.0000
  H   H6080     1.0  0.88844  0.10443  0.43067  1.0000
  H   H6081     1.0  0.96855  0.27033  0.13385  1.0000
  C   C3415     1.0  0.98161  0.17072  0.09192  1.0000
  S   S775      1.0  0.78469  0.43277  0.44782  1.0000
  H   H6082     1.0  0.79213  0.18283  0.24246  1.0000
  H   H6083     1.0  0.97682  0.43372  0.26089  1.0000
  S   S776      1.0  0.78955  0.04847  0.21134  1.0000
  C   C3416     1.0  0.81375  0.99660  0.07828  1.0000
  C   C3417     1.0  0.80126  0.37301  0.08846  1.0000
  H   H6084     1.0  0.86022  0.45447  0.21274  1.0000
  H   H6085     1.0  0.79930  0.33416  0.01317  1.0000
  H   H6086     1.0  0.87079  0.43987  0.21779  1.0000
  H   H6087     1.0  0.97437  0.24278  0.21436  1.0000
  H   H6088     1.0  0.79006  0.12398  0.47737  1.0000
  H   H6089     1.0  0.98297  0.42228  0.23724  1.0000
  C   C3418     1.0  0.79354  0.01011  0.08019  1.0000
  C   C3419     1.0  0.91227  0.47063  0.41991  1.0000
  H   H6090     1.0  0.78610  0.18404  0.17388  1.0000
  H   H6091     1.0  0.83076  0.04955  0.47272  1.0000
  H   H6092     1.0  0.84910  0.01272  0.03957  1.0000
  H   H6093     1.0  0.85659  0.48178  0.33698  1.0000
  H   H6094     1.0  0.91750  0.46447  0.43561  1.0000
  H   H6095     1.0  0.97501  0.23546  0.08546  1.0000
  H   H6096     1.0  0.97091  0.48148  0.32923  1.0000
  H   H6097     1.0  0.97607  0.45494  0.37261  1.0000
  H   H6098     1.0  0.80987  0.32107  0.25650  1.0000
  C   C3420     1.0  0.91996  0.32732  0.02802  1.0000
  C   C3421     1.0  0.90547  0.31341  0.03701  1.0000
  H   H6099     1.0  0.97289  0.23464  0.01523  1.0000
  H   H6100     1.0  0.82326  0.40917  0.04882  1.0000
  H   H6101     1.0  0.80144  0.07938  0.21567  1.0000
  H   H6102     1.0  0.79591  0.28100  0.98551  1.0000
  C   C3422     1.0  0.89295  0.31549  0.06029  1.0000
  H   H6103     1.0  0.78951  0.01967  0.03981  1.0000
  C   C3423     1.0  0.98000  0.27017  0.12291  1.0000
  C   C3424     1.0  0.85633  0.48488  0.11287  1.0000
  C   C3425     1.0  0.80908  0.32152  0.23450  1.0000
  H   H6104     1.0  0.82202  0.29835  0.09617  1.0000
  H   H6105     1.0  0.91728  0.48335  0.41507  1.0000
  C   C3426     1.0  0.81569  0.28005  0.07543  1.0000
  H   H6106     1.0  0.94937  0.34050  0.02348  1.0000
  H   H6107     1.0  0.92319  0.32922  0.04745  1.0000
  H   H6108     1.0  0.91607  0.33774  0.01950  1.0000
  S   S777      1.0  0.78599  0.00348  0.20532  1.0000
  C   C3427     1.0  0.97389  0.22817  0.07029  1.0000
  H   H6109     1.0  0.79965  0.37677  0.10839  1.0000
  H   H6110     1.0  0.92974  0.30730  0.06406  1.0000
  H   H6111     1.0  0.85331  0.06456  0.99036  1.0000
  H   H6112     1.0  0.89205  0.07485  0.03071  1.0000
  H   H6113     1.0  0.82210  0.06582  0.46745  1.0000
  C   C3428     1.0  0.87091  0.47917  0.27371  1.0000
  H   H6114     1.0  0.82723  0.33767  0.33085  1.0000
  H   H6115     1.0  0.83745  0.29691  0.06881  1.0000
  H   H6116     1.0  0.93016  0.30099  0.01638  1.0000
  C   C3429     1.0  0.86292  0.47114  0.10683  1.0000
  H   H6117     1.0  0.88944  0.32632  0.05284  1.0000
  H   H6118     1.0  0.88263  0.30551  0.06631  1.0000
  H   H6119     1.0  0.94955  0.31803  0.05011  1.0000
  C   C3430     1.0  0.80364  0.21534  0.29856  1.0000
  C   C3431     1.0  0.80134  0.37630  0.37748  1.0000
  H   H6120     1.0  0.78501  0.16450  0.17093  1.0000
  H   H6121     1.0  0.95496  0.45734  0.32617  1.0000
  H   H6122     1.0  0.79472  0.40627  0.09602  1.0000
  H   H6123     1.0  0.85130  0.41497  0.04793  1.0000
  N   N193      1.0  0.79955  0.34741  0.40107  1.0000
  H   H6124     1.0  0.78985  0.25249  0.12660  1.0000
  C   C3432     1.0  0.81133  0.34681  0.37552  1.0000
  H   H6125     1.0  0.83298  0.04735  0.10455  1.0000
  C   C3433     1.0  0.81644  0.99959  0.04865  1.0000
  H   H6126     1.0  0.80028  0.28527  0.03001  1.0000
  S   S778      1.0  0.98274  0.31916  0.04472  1.0000
  H   H6127     1.0  0.79397  0.03288  0.26627  1.0000
  H   H6128     1.0  0.92921  0.39871  0.13672  1.0000
  C   C3434     1.0  0.95437  0.20484  0.10614  1.0000
  S   S779      1.0  0.97288  0.24037  0.15554  1.0000
  H   H6129     1.0  0.81849  0.45343  0.44776  1.0000
  C   C3435     1.0  0.87305  0.48931  0.35932  1.0000
  C   C3436     1.0  0.97942  0.46392  0.35206  1.0000
  H   H6130     1.0  0.79515  0.28841  0.07395  1.0000
  C   C3437     1.0  0.91502  0.46513  0.39293  1.0000
  H   H6131     1.0  0.92776  0.35564  0.14791  1.0000
  H   H6132     1.0  0.84546  0.40847  0.08631  1.0000
  H   H6133     1.0  0.87806  0.00157  0.04711  1.0000
  H   H6134     1.0  0.96312  0.22949  0.06411  1.0000
  N   N194      1.0  0.85562  0.03771  0.03088  1.0000
  H   H6135     1.0  0.78450  0.38848  0.05385  1.0000
  C   C3438     1.0  0.92393  0.38598  0.14465  1.0000
  C   C3439     1.0  0.82680  0.45716  0.45989  1.0000
  H   H6136     1.0  0.79617  0.27938  0.10817  1.0000
  C   C3440     1.0  0.86956  0.05100  0.02577  1.0000
  C   C3441     1.0  0.79631  0.01320  0.05051  1.0000
  H   H6137     1.0  0.80857  0.38010  0.98200  1.0000
  C   C3442     1.0  0.79997  0.30586  0.23294  1.0000
  C   C3443     1.0  0.90637  0.38831  0.11173  1.0000
  C   C3444     1.0  0.79114  0.35950  0.39186  1.0000
  H   H6138     1.0  0.95167  0.21201  0.12098  1.0000
  H   H6139     1.0  0.94623  0.20469  0.09247  1.0000
  H   H6140     1.0  0.95271  0.19271  0.11863  1.0000
  H   H6141     1.0  0.89189  0.13025  0.46147  1.0000
  H   H6142     1.0  0.83306  0.38215  0.08376  1.0000
  H   H6143     1.0  0.83780  0.01755  0.08851  1.0000
  C   C3445     1.0  0.82169  0.34687  0.46042  1.0000
  C   C3446     1.0  0.84136  0.03035  0.08492  1.0000
  H   H6144     1.0  0.84221  0.05082  0.05251  1.0000
  H   H6145     1.0  0.94759  0.29190  0.07787  1.0000
  H   H6146     1.0  0.90050  0.31251  0.01881  1.0000
  H   H6147     1.0  0.80965  0.40189  0.00472  1.0000
  C   C3447     1.0  0.97104  0.21120  0.08818  1.0000
  H   H6148     1.0  0.96714  0.21618  0.98497  1.0000
  C   C3448     1.0  0.85739  0.46640  0.29528  1.0000
  C   C3449     1.0  0.84433  0.05364  0.99427  1.0000
  H   H6149     1.0  0.95452  0.36042  0.12939  1.0000
  C   C3450     1.0  0.78886  0.25746  0.30532  1.0000
  C   C3451     1.0  0.81556  0.33109  0.37592  1.0000
  C   C3452     1.0  0.85502  0.45131  0.28611  1.0000
  C   C3453     1.0  0.79809  0.27821  0.08612  1.0000
  H   H6150     1.0  0.87104  0.08679  0.29721  1.0000
  H   H6151     1.0  0.88875  0.08682  0.27328  1.0000
  H   H6152     1.0  0.82100  0.32443  0.22068  1.0000
  H   H6153     1.0  0.79256  0.21863  0.30391  1.0000
  H   H6154     1.0  0.84486  0.12423  0.17899  1.0000
  H   H6155     1.0  0.87781  0.06940  0.30049  1.0000
  H   H6156     1.0  0.98152  0.16539  0.02597  1.0000
  H   H6157     1.0  0.88136  0.47468  0.27360  1.0000
  H   H6158     1.0  0.84638  0.46989  0.29755  1.0000
  H   H6159     1.0  0.85998  0.46369  0.31618  1.0000
  H   H6160     1.0  0.81946  0.27125  0.08954  1.0000
  C   C3454     1.0  0.87766  0.05113  0.04997  1.0000
  S   S780      1.0  0.81950  0.41823  0.45847  1.0000
  H   H6161     1.0  0.82806  0.02797  0.12760  1.0000
  H   H6162     1.0  0.80580  0.32250  0.37346  1.0000
  C   C3455     1.0  0.79024  0.24998  0.10570  1.0000
  H   H6163     1.0  0.82944  0.35881  0.45209  1.0000
  H   H6164     1.0  0.85249  0.03321  0.09040  1.0000
  H   H6165     1.0  0.86571  0.44715  0.28386  1.0000
  H   H6166     1.0  0.84564  0.44218  0.30245  1.0000
  H   H6167     1.0  0.85178  0.45305  0.26570  1.0000
  C   C3456     1.0  0.90662  0.33645  0.19304  1.0000
  H   H6168     1.0  0.90308  0.48280  0.08030  1.0000
  C   C3457     1.0  0.82490  0.29612  0.07497  1.0000
  H   H6169     1.0  0.82634  0.04424  0.23155  1.0000
  C   C3458     1.0  0.91891  0.38077  0.11971  1.0000
  H   H6170     1.0  0.85537  0.13797  0.19388  1.0000
  C   C3459     1.0  0.81014  0.38129  0.03672  1.0000
  H   H6171     1.0  0.96924  0.25562  0.04163  1.0000
  H   H6172     1.0  0.90915  0.47115  0.37845  1.0000
  C   C3460     1.0  0.88122  0.45506  0.11159  1.0000
  C   C3461     1.0  0.86552  0.46006  0.15413  1.0000
  C   C3462     1.0  0.82936  0.03481  0.10566  1.0000
  H   H6173     1.0  0.88560  0.00255  0.01034  1.0000
  H   H6174     1.0  0.82652  0.34136  0.42073  1.0000
  C   C3463     1.0  0.87442  0.45222  0.17381  1.0000
  C   C3464     1.0  0.86989  0.43919  0.11504  1.0000
  C   C3465     1.0  0.87855  0.42778  0.10523  1.0000
  H   H6175     1.0  0.81793  0.03226  0.10088  1.0000
  H   H6176     1.0  0.84116  0.02868  0.00571  1.0000
  C   C3466     1.0  0.79513  0.17604  0.25997  1.0000
  C   C3467     1.0  0.81977  0.38694  0.98342  1.0000
  H   H6177     1.0  0.83440  0.47724  0.10279  1.0000
  N   N195      1.0  0.87416  0.46672  0.12334  1.0000
  C   C3468     1.0  0.94709  0.33977  0.00283  1.0000
  H   H6178     1.0  0.85448  0.45150  0.15647  1.0000
  H   H6179     1.0  0.86198  0.46932  0.16325  1.0000
  C   C3469     1.0  0.97829  0.16305  0.04876  1.0000
  H   H6180     1.0  0.79923  0.39907  0.35742  1.0000
  H   H6181     1.0  0.86817  0.47392  0.08364  1.0000
  C   C3470     1.0  0.92697  0.48844  0.32660  1.0000
  Fe  Fe392     1.0  0.98021  0.33477  0.07376  1.0000
  C   C3471     1.0  0.85045  0.03915  0.00378  1.0000
  H   H6182     1.0  0.81604  0.48542  0.00327  1.0000
  H   H6183     1.0  0.87829  0.44266  0.16657  1.0000
  H   H6184     1.0  0.86328  0.43368  0.13734  1.0000
  H   H6185     1.0  0.86154  0.44072  0.10210  1.0000
  H   H6186     1.0  0.88489  0.43237  0.08252  1.0000
  H   H6187     1.0  0.88683  0.42550  0.11806  1.0000
  H   H6188     1.0  0.87021  0.41653  0.10800  1.0000
  H   H6189     1.0  0.80043  0.21313  0.25827  1.0000
  H   H6190     1.0  0.91039  0.40117  0.10625  1.0000
  H   H6191     1.0  0.81173  0.23180  0.25784  1.0000
  H   H6192     1.0  0.78660  0.38321  0.35049  1.0000
  H   H6193     1.0  0.97159  0.43564  0.22783  1.0000
  H   H6194     1.0  0.93634  0.28322  0.05692  1.0000
  C   C3472     1.0  0.97809  0.21268  0.01989  1.0000
  Fe  Fe393     1.0  0.79403  0.41196  0.46185  1.0000
  C   C3473     1.0  0.80175  0.13125  0.46513  1.0000
  H   H6195     1.0  0.98226  0.45842  0.33454  1.0000
  H   H6196     1.0  0.80207  0.24857  0.09834  1.0000
  H   H6197     1.0  0.81600  0.36366  0.41338  1.0000
  H   H6198     1.0  0.79840  0.40644  0.04435  1.0000
  H   H6199     1.0  0.90354  0.35918  0.17864  1.0000
  H   H6200     1.0  0.83884  0.12297  0.21631  1.0000
  C   C3474     1.0  0.84234  0.03849  0.05379  1.0000
  H   H6201     1.0  0.89575  0.38434  0.12951  1.0000
  H   H6202     1.0  0.79486  0.22046  0.12317  1.0000
  N   N196      1.0  0.83329  0.21913  0.22731  1.0000
  C   C3475     1.0  0.84747  0.21287  0.22417  1.0000
  C   C3476     1.0  0.83780  0.23676  0.21956  1.0000
  C   C3477     1.0  0.82443  0.21335  0.25815  1.0000
  C   C3478     1.0  0.82282  0.21338  0.21001  1.0000
  C   C3479     1.0  0.82999  0.21734  0.17777  1.0000
  C   C3480     1.0  0.84464  0.19491  0.23164  1.0000
  H   H6203     1.0  0.89875  0.06342  0.05743  1.0000
  C   C3481     1.0  0.85322  0.24527  0.19685  1.0000
  C   C3482     1.0  0.85478  0.26273  0.18747  1.0000
  C   C3483     1.0  0.81864  0.20969  0.16317  1.0000
  C   C3484     1.0  0.85988  0.19020  0.22626  1.0000
  H   H6204     1.0  0.93496  0.35848  0.00110  1.0000
  H   H6205     1.0  0.85472  0.21722  0.23763  1.0000
  H   H6206     1.0  0.85492  0.21722  0.20222  1.0000
  H   H6207     1.0  0.82847  0.24139  0.21241  1.0000
  H   H6208     1.0  0.83895  0.24106  0.23849  1.0000
  H   H6209     1.0  0.83216  0.21653  0.27172  1.0000
  H   H6210     1.0  0.82038  0.20047  0.26478  1.0000
  H   H6211     1.0  0.81796  0.20062  0.21807  1.0000
  H   H6212     1.0  0.81263  0.21837  0.21247  1.0000
  H   H6213     1.0  0.84059  0.21324  0.17287  1.0000
  H   H6214     1.0  0.83268  0.23007  0.16845  1.0000
  H   H6215     1.0  0.83867  0.18949  0.25431  1.0000
  H   H6216     1.0  0.83773  0.18987  0.21849  1.0000
  Fe  Fe394     1.0  0.78449  0.46600  0.00574  1.0000
  H   H6217     1.0  0.88661  0.45981  0.08846  1.0000
  H   H6218     1.0  0.86311  0.24361  0.20580  1.0000
  H   H6219     1.0  0.85428  0.24091  0.17771  1.0000
  H   H6220     1.0  0.84591  0.26503  0.17613  1.0000
  H   H6221     1.0  0.85346  0.26777  0.20594  1.0000
  H   H6222     1.0  0.86633  0.26866  0.17278  1.0000
  H   H6223     1.0  0.80804  0.21396  0.16640  1.0000
  H   H6224     1.0  0.82403  0.21267  0.14006  1.0000
  H   H6225     1.0  0.81547  0.19685  0.17159  1.0000
  H   H6226     1.0  0.86626  0.19470  0.20356  1.0000
  H   H6227     1.0  0.86721  0.19464  0.23943  1.0000
  H   H6228     1.0  0.85749  0.17732  0.23204  1.0000
  H   H6229     1.0  0.97201  0.37090  0.08206  1.0000
  H   H6230     1.0  0.78727  0.30821  0.10031  1.0000
  N   N197      1.0  0.93373  0.32602  0.00700  1.0000
  N   N198      1.0  0.93475  0.37786  0.15725  1.0000
  C   C3485     1.0  0.92845  0.36041  0.16637  1.0000
  C   C3486     1.0  0.95063  0.38243  0.13674  1.0000
  C   C3487     1.0  0.93653  0.38311  0.18336  1.0000
  C   C3488     1.0  0.91215  0.35408  0.18731  1.0000
  C   C3489     1.0  0.94332  0.40081  0.17854  1.0000
  C   C3490     1.0  0.95406  0.37190  0.11690  1.0000
  H   H6231     1.0  0.79953  0.37398  0.03401  1.0000
  C   C3491     1.0  0.94785  0.40427  0.20475  1.0000
  H   H6232     1.0  0.93657  0.35489  0.17624  1.0000
  H   H6233     1.0  0.95308  0.39450  0.12317  1.0000
  H   H6234     1.0  0.95981  0.38265  0.14840  1.0000
  H   H6235     1.0  0.94384  0.37671  0.19407  1.0000
  H   H6236     1.0  0.92524  0.38031  0.19915  1.0000
  H   H6237     1.0  0.91218  0.35657  0.20804  1.0000
  H   H6238     1.0  0.93453  0.40720  0.17429  1.0000
  H   H6239     1.0  0.97872  0.21084  0.10270  1.0000
  C   C3492     1.0  0.94552  0.29337  0.05645  1.0000
  H   H6240     1.0  0.81886  0.27872  0.05365  1.0000
  H   H6241     1.0  0.78496  0.16462  0.33185  1.0000
  C   C3493     1.0  0.84841  0.40477  0.06654  1.0000
  H   H6242     1.0  0.81067  0.37662  0.35913  1.0000
  H   H6243     1.0  0.95146  0.41703  0.20165  1.0000
  H   H6244     1.0  0.93792  0.39935  0.22377  1.0000
  H   H6245     1.0  0.95761  0.39928  0.20847  1.0000
  N   N199      1.0  0.85995  0.08606  0.21889  1.0000
  C   C3494     1.0  0.84914  0.07005  0.22637  1.0000
  C   C3495     1.0  0.86553  0.08889  0.24431  1.0000
  C   C3496     1.0  0.85081  0.09770  0.21124  1.0000
  C   C3497     1.0  0.87343  0.08867  0.19377  1.0000
  C   C3498     1.0  0.88303  0.07648  0.19524  1.0000
  C   C3499     1.0  0.84162  0.06588  0.20293  1.0000
  C   C3500     1.0  0.85965  0.11509  0.20374  1.0000
  C   C3501     1.0  0.86779  0.07468  0.26499  1.0000
  C   C3502     1.0  0.87692  0.07976  0.28520  1.0000
  C   C3503     1.0  0.89524  0.07976  0.16731  1.0000
  C   C3504     1.0  0.83428  0.04844  0.20998  1.0000
  C   C3505     1.0  0.84898  0.12566  0.19789  1.0000
  H   H6246     1.0  0.83957  0.06862  0.24530  1.0000
  H   H6247     1.0  0.85496  0.06087  0.23297  1.0000
  H   H6248     1.0  0.87648  0.09826  0.23747  1.0000
  H   H6249     1.0  0.85716  0.09335  0.25793  1.0000
  H   H6250     1.0  0.84040  0.09568  0.22900  1.0000
  H   H6251     1.0  0.84644  0.09619  0.19260  1.0000
  H   H6252     1.0  0.86956  0.08977  0.17393  1.0000
  H   H6253     1.0  0.88181  0.09999  0.19053  1.0000
  H   H6254     1.0  0.87574  0.06455  0.19935  1.0000
  H   H6255     1.0  0.88928  0.07707  0.21188  1.0000
  H   H6256     1.0  0.83234  0.07192  0.20096  1.0000
  H   H6257     1.0  0.85014  0.06918  0.18208  1.0000
  H   H6258     1.0  0.86925  0.11816  0.18432  1.0000
  H   H6259     1.0  0.86456  0.11783  0.22113  1.0000
  H   H6260     1.0  0.85631  0.06713  0.27796  1.0000
  H   H6261     1.0  0.96961  0.39016  0.08089  1.0000
  H   H6262     1.0  0.80031  0.30678  0.21034  1.0000
  S   S781      1.0  0.78524  0.47799  0.04100  1.0000
  H   H6263     1.0  0.79088  0.34279  0.12194  1.0000
  C   C3506     1.0  0.97605  0.21053  0.99129  1.0000
  C   C3507     1.0  0.83502  0.39213  0.06518  1.0000
  H   H6264     1.0  0.87203  0.02193  0.99527  1.0000
  C   C3508     1.0  0.98088  0.43376  0.23836  1.0000
  H   H6265     1.0  0.80148  0.20269  0.30830  1.0000
  S   S782      1.0  0.80154  0.45342  0.98903  1.0000
  H   H6266     1.0  0.81800  0.37351  0.03888  1.0000
  H   H6267     1.0  0.85876  0.40012  0.06646  1.0000
  H   H6268     1.0  0.80226  0.25754  0.05111  1.0000
  H   H6269     1.0  0.97617  0.25501  0.23829  1.0000
  C   C3509     1.0  0.79542  0.27082  0.00277  1.0000
  C   C3510     1.0  0.95921  0.36888  0.98616  1.0000
  H   H6270     1.0  0.83378  0.09622  0.46144  1.0000
  C   C3511     1.0  0.78762  0.33212  0.41500  1.0000
  H   H6271     1.0  0.94992  0.48958  0.32999  1.0000
  H   H6272     1.0  0.97624  0.23485  0.24926  1.0000
  H   H6273     1.0  0.97856  0.28426  0.01755  1.0000
  H   H6274     1.0  0.78616  0.13112  0.28292  1.0000
  H   H6275     1.0  0.79309  0.32261  0.42140  1.0000
  H   H6276     1.0  0.80879  0.32932  0.44605  1.0000
  H   H6277     1.0  0.88566  0.48608  0.30919  1.0000
  C   C3512     1.0  0.78607  0.39911  0.08830  1.0000
  H   H6278     1.0  0.86383  0.48720  0.37902  1.0000
  H   H6279     1.0  0.96677  0.20707  0.03553  1.0000
  H   H6280     1.0  0.97910  0.38104  0.10580  1.0000
  C   C3513     1.0  0.79172  0.38708  0.36689  1.0000
  S   S783      1.0  0.98235  0.20992  0.21261  1.0000
  H   H6281     1.0  0.79858  0.35420  0.44012  1.0000
  H   H6282     1.0  0.97643  0.09407  0.05655  1.0000
  H   H6283     1.0  0.97341  0.20306  0.07538  1.0000
  H   H6284     1.0  0.78899  0.35453  0.07305  1.0000
  C   C3514     1.0  0.84905  0.13033  0.47533  1.0000
  H   H6285     1.0  0.78643  0.26081  0.00208  1.0000
  H   H6286     1.0  0.83020  0.47004  0.45466  1.0000
  H   H6287     1.0  0.86522  0.99490  0.02654  1.0000
  C   C3515     1.0  0.88690  0.48068  0.12093  1.0000
  H   H6288     1.0  0.80820  0.12383  0.45517  1.0000
  H   H6289     1.0  0.90817  0.30226  0.04529  1.0000
  C   C3516     1.0  0.93851  0.31138  0.01762  1.0000
  H   H6290     1.0  0.78469  0.01421  0.09215  1.0000
  C   C3517     1.0  0.79008  0.27107  0.28039  1.0000
  H   H6291     1.0  0.96145  0.36862  0.00723  1.0000
  H   H6292     1.0  0.81172  0.34682  0.47744  1.0000
  C   C3518     1.0  0.92945  0.32563  0.97958  1.0000
  H   H6293     1.0  0.78344  0.30346  0.27251  1.0000
  C   C3519     1.0  0.98294  0.23013  0.01887  1.0000
  H   H6294     1.0  0.78364  0.25967  0.32571  1.0000
  C   C3520     1.0  0.78333  0.28616  0.17497  1.0000
  C   C3521     1.0  0.78801  0.43203  0.53554  1.0000
  H   H6295     1.0  0.87891  0.47763  0.81699  1.0000
  C   C3522     1.0  0.82932  0.46352  0.56586  1.0000
  H   H6296     1.0  0.89088  0.08382  0.96442  1.0000
  H   H6297     1.0  0.78535  0.26277  0.92405  1.0000
  H   H6298     1.0  0.86718  0.08918  0.56448  1.0000
  S   S784      1.0  0.82059  0.40898  0.53901  1.0000
  Fe  Fe395     1.0  0.89146  0.45010  0.59728  1.0000
  S   S785      1.0  0.87425  0.44613  0.63870  1.0000
  S   S786      1.0  0.88497  0.44128  0.56015  1.0000
  Fe  Fe396     1.0  0.91862  0.46706  0.61892  1.0000
  S   S787      1.0  0.90277  0.46392  0.66159  1.0000
  H   H6299     1.0  0.97989  0.32352  0.67775  1.0000
  Fe  Fe397     1.0  0.89281  0.43978  0.65851  1.0000
  S   S788      1.0  0.88627  0.41908  0.69670  1.0000
  Fe  Fe398     1.0  0.88579  0.47054  0.63769  1.0000
  S   S789      1.0  0.90967  0.44226  0.61730  1.0000
  H   H6300     1.0  0.95463  0.17631  0.55695  1.0000
  H   H6301     1.0  0.81458  0.48516  0.83903  1.0000
  Fe  Fe399     1.0  0.96190  0.33010  0.79375  1.0000
  S   S790      1.0  0.94359  0.33888  0.77480  1.0000
  S   S791      1.0  0.96142  0.30567  0.81578  1.0000
  H   H6302     1.0  0.93238  0.15116  0.93099  1.0000
  Fe  Fe400     1.0  0.83490  0.13177  0.60882  1.0000
  S   S792      1.0  0.85362  0.14948  0.57437  1.0000
  S   S793      1.0  0.81368  0.13552  0.63606  1.0000
  Fe  Fe401     1.0  0.85086  0.10606  0.60434  1.0000
  S   S794      1.0  0.87120  0.12214  0.56947  1.0000
  S   S795      1.0  0.84962  0.08048  0.62266  1.0000
  Fe  Fe402     1.0  0.87021  0.13947  0.59593  1.0000
  S   S796      1.0  0.89088  0.15760  0.59965  1.0000
  Fe  Fe403     1.0  0.85316  0.13092  0.55051  1.0000
  S   S797      1.0  0.85428  0.13848  0.50272  1.0000
  S   S798      1.0  0.85127  0.12270  0.63178  1.0000
  S   S799      1.0  0.83307  0.11387  0.58390  1.0000
  Fe  Fe404     1.0  0.94767  0.18704  0.70113  1.0000
  S   S800      1.0  0.92762  0.16991  0.69310  1.0000
  S   S801      1.0  0.94541  0.19014  0.74534  1.0000
  Fe  Fe405     1.0  0.96637  0.14133  0.94081  1.0000
  H   H6303     1.0  0.80368  0.03957  0.59880  1.0000
  Fe  Fe406     1.0  0.86398  0.01931  0.93353  1.0000
  S   S802      1.0  0.84243  0.02599  0.92610  1.0000
  S   S803      1.0  0.88765  0.03533  0.93220  1.0000
  Fe  Fe407     1.0  0.83899  0.00728  0.90272  1.0000
  S   S804      1.0  0.82973  0.01263  0.86284  1.0000
  S   S805      1.0  0.86176  0.00198  0.90677  1.0000
  Fe  Fe408     1.0  0.83612  0.31910  0.76313  1.0000
  S   S806      1.0  0.83743  0.29439  0.76693  1.0000
  S   S807      1.0  0.81888  0.32775  0.79086  1.0000
  Fe  Fe409     1.0  0.86328  0.33207  0.71078  1.0000
  S   S808      1.0  0.86686  0.30850  0.71049  1.0000
  S   S809      1.0  0.87922  0.35230  0.67599  1.0000
  Fe  Fe410     1.0  0.84100  0.30047  0.71943  1.0000
  S   S810      1.0  0.83114  0.28872  0.68873  1.0000
  Fe  Fe411     1.0  0.86318  0.30475  0.75739  1.0000
  S   S811      1.0  0.87867  0.29510  0.78248  1.0000
  S   S812      1.0  0.83779  0.32454  0.71654  1.0000
  S   S813      1.0  0.86148  0.32893  0.75698  1.0000
  H   H6304     1.0  0.84954  0.05424  0.94945  1.0000
  H   H6305     1.0  0.83090  0.05028  0.58860  1.0000
  H   H6306     1.0  0.79454  0.26230  0.59594  1.0000
  S   S814      1.0  0.79552  0.29590  0.92247  1.0000
  H   H6307     1.0  0.83317  0.23502  0.71931  1.0000
  C   C3523     1.0  0.81220  0.31857  0.82728  1.0000
  C   C3524     1.0  0.80431  0.32594  0.84525  1.0000
  C   C3525     1.0  0.79904  0.31903  0.87452  1.0000
  C   C3526     1.0  0.80155  0.30464  0.88587  1.0000
  C   C3527     1.0  0.80911  0.29708  0.86783  1.0000
  C   C3528     1.0  0.81462  0.30412  0.83859  1.0000
  H   H6308     1.0  0.80237  0.33710  0.83654  1.0000
  C   C3529     1.0  0.97899  0.16964  0.59292  1.0000
  H   H6309     1.0  0.81098  0.28589  0.87657  1.0000
  H   H6310     1.0  0.82065  0.29835  0.82482  1.0000
  C   C3530     1.0  0.92056  0.06726  0.94982  1.0000
  C   C3531     1.0  0.91272  0.05447  0.94179  1.0000
  C   C3532     1.0  0.89695  0.05201  0.94213  1.0000
  H   H6311     1.0  0.81716  0.47116  0.75905  1.0000
  H   H6312     1.0  0.91892  0.04629  0.93556  1.0000
  Fe  Fe412     1.0  0.96812  0.18418  0.74402  1.0000
  C   C3533     1.0  0.97412  0.15194  0.85904  1.0000
  C   C3534     1.0  0.97560  0.15295  0.83009  1.0000
  H   H6313     1.0  0.97297  0.17081  0.64578  1.0000
  H   H6314     1.0  0.80060  0.29570  0.55827  1.0000
  C   C3535     1.0  0.90037  0.16091  0.62666  1.0000
  C   C3536     1.0  0.91084  0.17540  0.62215  1.0000
  C   C3537     1.0  0.91914  0.17846  0.64219  1.0000
  C   C3538     1.0  0.91723  0.16697  0.66709  1.0000
  C   C3539     1.0  0.90670  0.15251  0.67168  1.0000
  C   C3540     1.0  0.89832  0.14949  0.65173  1.0000
  H   H6315     1.0  0.91248  0.18440  0.60300  1.0000
  H   H6316     1.0  0.92684  0.18976  0.63853  1.0000
  H   H6317     1.0  0.90502  0.14353  0.69086  1.0000
  H   H6318     1.0  0.89039  0.13827  0.65564  1.0000
  H   H6319     1.0  0.83821  0.48582  0.71561  1.0000
  H   H6320     1.0  0.95250  0.15127  0.59814  1.0000
  H   H6321     1.0  0.81899  0.27870  0.59921  1.0000
  C   C3541     1.0  0.97114  0.16471  0.81296  1.0000
  H   H6322     1.0  0.82591  0.17268  0.48607  1.0000
  C   C3542     1.0  0.80505  0.04085  0.65628  1.0000
  C   C3543     1.0  0.81932  0.03800  0.65807  1.0000
  C   C3544     1.0  0.83288  0.05023  0.64743  1.0000
  C   C3545     1.0  0.83228  0.06547  0.63548  1.0000
  C   C3546     1.0  0.81800  0.06833  0.63388  1.0000
  C   C3547     1.0  0.80451  0.05604  0.64389  1.0000
  H   H6323     1.0  0.81992  0.02632  0.66722  1.0000
  H   H6324     1.0  0.84389  0.04787  0.64853  1.0000
  H   H6325     1.0  0.81735  0.07999  0.62485  1.0000
  Fe  Fe413     1.0  0.82961  0.00700  0.96580  1.0000
  C   C3548     1.0  0.92507  0.32698  0.77878  1.0000
  C   C3549     1.0  0.91883  0.31306  0.80005  1.0000
  C   C3550     1.0  0.90437  0.30353  0.80151  1.0000
  C   C3551     1.0  0.89595  0.30801  0.78207  1.0000
  C   C3552     1.0  0.90188  0.32227  0.76163  1.0000
  C   C3553     1.0  0.91643  0.33163  0.75991  1.0000
  H   H6326     1.0  0.92530  0.30954  0.81502  1.0000
  H   H6327     1.0  0.89978  0.29256  0.81750  1.0000
  H   H6328     1.0  0.89552  0.32583  0.74650  1.0000
  H   H6329     1.0  0.92119  0.34232  0.74341  1.0000
  H   H6330     1.0  0.96426  0.19376  0.58106  1.0000
  C   C3554     1.0  0.95825  0.25597  0.77020  1.0000
  H   H6331     1.0  0.96323  0.27358  0.79242  1.0000
  H   H6332     1.0  0.94695  0.25034  0.78444  1.0000
  C   C3555     1.0  0.79439  0.28696  0.57878  1.0000
  H   H6333     1.0  0.81314  0.14678  0.56103  1.0000
  C   C3556     1.0  0.82532  0.16399  0.50594  1.0000
  H   H6334     1.0  0.81969  0.48895  0.71289  1.0000
  H   H6335     1.0  0.87041  0.35955  0.86502  1.0000
  C   C3557     1.0  0.88344  0.40073  0.68985  1.0000
  C   C3558     1.0  0.87408  0.38767  0.71119  1.0000
  C   C3559     1.0  0.87250  0.37275  0.70696  1.0000
  C   C3560     1.0  0.88051  0.37083  0.68154  1.0000
  C   C3561     1.0  0.88987  0.38387  0.66017  1.0000
  C   C3562     1.0  0.89117  0.39882  0.66416  1.0000
  H   H6336     1.0  0.86795  0.38913  0.73096  1.0000
  H   H6337     1.0  0.86513  0.36274  0.72335  1.0000
  H   H6338     1.0  0.89618  0.38240  0.64055  1.0000
  H   H6339     1.0  0.89849  0.40881  0.64769  1.0000
  H   H6340     1.0  0.82802  0.18113  0.53125  1.0000
  C   C3563     1.0  0.83859  0.41883  0.54344  1.0000
  C   C3564     1.0  0.83870  0.42392  0.56812  1.0000
  C   C3565     1.0  0.85267  0.43111  0.57330  1.0000
  C   C3566     1.0  0.86683  0.43312  0.55405  1.0000
  H   H6341     1.0  0.82789  0.42222  0.58349  1.0000
  H   H6342     1.0  0.85249  0.43495  0.59236  1.0000
  C   C3567     1.0  0.81721  0.27081  0.69646  1.0000
  C   C3568     1.0  0.81158  0.26087  0.72380  1.0000
  C   C3569     1.0  0.80069  0.24661  0.72877  1.0000
  C   C3570     1.0  0.95317  0.48702  0.65318  1.0000
  C   C3571     1.0  0.80084  0.25219  0.67925  1.0000
  C   C3572     1.0  0.81181  0.26639  0.67424  1.0000
  H   H6343     1.0  0.81571  0.26412  0.74101  1.0000
  C   C3573     1.0  0.81632  0.05195  0.51136  1.0000
  H   H6344     1.0  0.79683  0.24889  0.66198  1.0000
  H   H6345     1.0  0.81618  0.27400  0.65304  1.0000
  C   C3574     1.0  0.79546  0.17856  0.61314  1.0000
  H   H6346     1.0  0.81860  0.09306  0.54573  1.0000
  C   C3575     1.0  0.79335  0.15343  0.64421  1.0000
  C   C3576     1.0  0.80712  0.15237  0.62713  1.0000
  C   C3577     1.0  0.81529  0.16466  0.60346  1.0000
  C   C3578     1.0  0.80941  0.17768  0.59640  1.0000
  H   H6347     1.0  0.81470  0.08423  0.51810  1.0000
  H   H6348     1.0  0.95305  0.22697  0.81091  1.0000
  H   H6349     1.0  0.82611  0.16411  0.59070  1.0000
  H   H6350     1.0  0.81567  0.18710  0.57789  1.0000
  S   S815      1.0  0.90205  0.47518  0.59477  1.0000
  N   N200      1.0  0.82214  0.19679  0.66972  1.0000
  C   C3579     1.0  0.80542  0.19099  0.68640  1.0000
  C   C3580     1.0  0.82356  0.20712  0.64081  1.0000
  C   C3581     1.0  0.82782  0.18273  0.66548  1.0000
  C   C3582     1.0  0.83210  0.20511  0.68530  1.0000
  C   C3583     1.0  0.82744  0.21920  0.69403  1.0000
  C   C3584     1.0  0.80221  0.18006  0.71649  1.0000
  C   C3585     1.0  0.84398  0.18602  0.64465  1.0000
  C   C3586     1.0  0.81241  0.21786  0.63872  1.0000
  C   C3587     1.0  0.81730  0.22970  0.60979  1.0000
  S   S816      1.0  0.94510  0.13243  0.97719  1.0000
  C   C3588     1.0  0.84847  0.17089  0.64281  1.0000
  H   H6351     1.0  0.79856  0.18474  0.67431  1.0000
  H   H6352     1.0  0.80016  0.20072  0.68912  1.0000
  H   H6353     1.0  0.83561  0.21443  0.63149  1.0000
  H   H6354     1.0  0.82127  0.19992  0.62595  1.0000
  H   H6355     1.0  0.81947  0.17509  0.65769  1.0000
  H   H6356     1.0  0.82846  0.17551  0.68593  1.0000
  H   H6357     1.0  0.83282  0.19681  0.70452  1.0000
  H   H6358     1.0  0.81502  0.21649  0.70494  1.0000
  H   H6359     1.0  0.83024  0.22915  0.67505  1.0000
  H   H6360     1.0  0.80564  0.16914  0.71553  1.0000
  C   C3589     1.0  0.78481  0.45800  0.54003  1.0000
  H   H6361     1.0  0.80063  0.21070  0.64134  1.0000
  H   H6362     1.0  0.81163  0.22428  0.65512  1.0000
  H   H6363     1.0  0.80914  0.23719  0.60875  1.0000
  H   H6364     1.0  0.82903  0.23726  0.60627  1.0000
  H   H6365     1.0  0.81717  0.22367  0.59269  1.0000
  S   S817      1.0  0.82202  0.47638  0.91067  1.0000
  S   S818      1.0  0.94445  0.48026  0.60570  1.0000
  H   H6366     1.0  0.80590  0.48275  0.81123  1.0000
  H   H6367     1.0  0.84909  0.16436  0.66380  1.0000
  H   H6368     1.0  0.83998  0.16344  0.63517  1.0000
  H   H6369     1.0  0.81463  0.02041  0.81921  1.0000
  H   H6370     1.0  0.91741  0.13413  0.95283  1.0000
  C   C3590     1.0  0.82199  0.00146  0.84111  1.0000
  C   C3591     1.0  0.81114  0.08320  0.54110  1.0000
  H   H6371     1.0  0.83748  0.45753  0.55580  1.0000
  C   C3592     1.0  0.96359  0.18854  0.60352  1.0000
  H   H6372     1.0  0.86913  0.09648  0.52703  1.0000
  H   H6373     1.0  0.78707  0.12554  0.54618  1.0000
  H   H6374     1.0  0.83960  0.05612  0.51456  1.0000
  C   C3593     1.0  0.83398  0.17271  0.52387  1.0000
  H   H6375     1.0  0.94713  0.31548  0.95928  1.0000
  H   H6376     1.0  0.78752  0.29438  0.76079  1.0000
  H   H6377     1.0  0.80191  0.01184  0.60948  1.0000
  C   C3594     1.0  0.82695  0.04785  0.56995  1.0000
  H   H6378     1.0  0.79578  0.28130  0.78171  1.0000
  H   H6379     1.0  0.84178  0.01666  0.71358  1.0000
  H   H6380     1.0  0.85248  0.46465  0.81748  1.0000
  H   H6381     1.0  0.78555  0.28912  0.83758  1.0000
  H   H6382     1.0  0.82290  0.47180  0.52772  1.0000
  H   H6383     1.0  0.89217  0.35234  0.88283  1.0000
  N   N201      1.0  0.96393  0.17168  0.60875  1.0000
  C   C3595     1.0  0.85642  0.07212  0.54510  1.0000
  C   C3596     1.0  0.87659  0.48737  0.69781  1.0000
  H   H6384     1.0  0.90165  0.35179  0.84763  1.0000
  H   H6385     1.0  0.79352  0.05834  0.64234  1.0000
  H   H6386     1.0  0.78983  0.14264  0.50686  1.0000
  S   S819      1.0  0.78436  0.47968  0.96301  1.0000
  C   C3597     1.0  0.89708  0.07565  0.95815  1.0000
  H   H6387     1.0  0.81737  0.33245  0.92048  1.0000
  H   H6388     1.0  0.82901  0.45720  0.85355  1.0000
  H   H6389     1.0  0.78749  0.28110  0.52981  1.0000
  C   C3598     1.0  0.82987  0.06153  0.51956  1.0000
  H   H6390     1.0  0.86157  0.48023  0.78598  1.0000
  H   H6391     1.0  0.81987  0.01482  0.58357  1.0000
  H   H6392     1.0  0.94170  0.48037  0.66526  1.0000
  H   H6393     1.0  0.81580  0.07362  0.72232  1.0000
  H   H6394     1.0  0.82115  0.43250  0.84028  1.0000
  H   H6395     1.0  0.93928  0.17949  0.58162  1.0000
  H   H6396     1.0  0.83605  0.31638  0.91429  1.0000
  N   N202      1.0  0.79615  0.44871  0.53223  1.0000
  H   H6397     1.0  0.94697  0.32638  0.90997  1.0000
  C   C3599     1.0  0.85038  0.18168  0.50679  1.0000
  H   H6398     1.0  0.79828  0.29214  0.59519  1.0000
  C   C3600     1.0  0.83958  0.05394  0.96668  1.0000
  C   C3601     1.0  0.87791  0.35379  0.85283  1.0000
  C   C3602     1.0  0.81707  0.06274  0.71638  1.0000
  H   H6399     1.0  0.88048  0.08367  0.53913  1.0000
  H   H6400     1.0  0.82572  0.00864  0.74459  1.0000
  N   N203      1.0  0.82943  0.05684  0.72812  1.0000
  C   C3603     1.0  0.82763  0.03987  0.72901  1.0000
  C   C3604     1.0  0.82863  0.33543  0.92575  1.0000
  C   C3605     1.0  0.84500  0.06580  0.70820  1.0000
  C   C3606     1.0  0.82931  0.05967  0.75679  1.0000
  C   C3607     1.0  0.81442  0.05150  0.78067  1.0000
  C   C3608     1.0  0.83922  0.03200  0.74134  1.0000
  C   C3609     1.0  0.84784  0.08379  0.69867  1.0000
  H   H6401     1.0  0.85693  0.06227  0.56202  1.0000
  H   H6402     1.0  0.83375  0.21538  0.73421  1.0000
  C   C3610     1.0  0.81675  0.05313  0.80940  1.0000
  H   H6403     1.0  0.93982  0.15911  0.61969  1.0000
  C   C3611     1.0  0.86470  0.09157  0.68267  1.0000
  H   H6404     1.0  0.82842  0.03839  0.70732  1.0000
  H   H6405     1.0  0.81604  0.03265  0.74173  1.0000
  Fe  Fe414     1.0  0.80012  0.46598  0.94611  1.0000
  H   H6406     1.0  0.79095  0.47042  0.53595  1.0000
  H   H6407     1.0  0.84688  0.06186  0.68844  1.0000
  H   H6408     1.0  0.85449  0.06351  0.71790  1.0000
  H   H6409     1.0  0.83923  0.05644  0.76402  1.0000
  H   H6410     1.0  0.83112  0.07224  0.75553  1.0000
  H   H6411     1.0  0.81074  0.03896  0.78214  1.0000
  H   H6412     1.0  0.80502  0.05704  0.77686  1.0000
  H   H6413     1.0  0.85135  0.03868  0.73141  1.0000
  H   H6414     1.0  0.83680  0.03070  0.76453  1.0000
  H   H6415     1.0  0.84512  0.08879  0.71684  1.0000
  C   C3612     1.0  0.83646  0.22464  0.71416  1.0000
  H   H6416     1.0  0.78703  0.14398  0.66266  1.0000
  H   H6417     1.0  0.80562  0.05583  0.51667  1.0000
  C   C3613     1.0  0.83783  0.01580  0.73652  1.0000
  H   H6418     1.0  0.92108  0.47885  0.70312  1.0000
  H   H6419     1.0  0.80594  0.04707  0.82622  1.0000
  H   H6420     1.0  0.82610  0.04782  0.81459  1.0000
  H   H6421     1.0  0.81976  0.06556  0.80942  1.0000
  N   N204      1.0  0.82704  0.06285  0.54971  1.0000
  H   H6422     1.0  0.85704  0.17363  0.49973  1.0000
  S   S820      1.0  0.96732  0.16270  0.90669  1.0000
  H   H6423     1.0  0.86803  0.08719  0.66382  1.0000
  H   H6424     1.0  0.86632  0.10433  0.67536  1.0000
  H   H6425     1.0  0.87246  0.08936  0.69663  1.0000
  N   N205      1.0  0.85885  0.38217  0.60914  1.0000
  C   C3614     1.0  0.86193  0.36631  0.61653  1.0000
  C   C3615     1.0  0.87384  0.39397  0.59271  1.0000
  C   C3616     1.0  0.85346  0.38622  0.63669  1.0000
  C   C3617     1.0  0.84669  0.38276  0.59279  1.0000
  C   C3618     1.0  0.84542  0.37169  0.57313  1.0000
  C   C3619     1.0  0.84840  0.35334  0.63803  1.0000
  C   C3620     1.0  0.85131  0.40287  0.63423  1.0000
  C   C3621     1.0  0.88195  0.39175  0.56405  1.0000
  C   C3622     1.0  0.89784  0.40321  0.55164  1.0000
  C   C3623     1.0  0.83511  0.37559  0.55367  1.0000
  C   C3624     1.0  0.85025  0.33714  0.63692  1.0000
  C   C3625     1.0  0.84427  0.40491  0.66323  1.0000
  H   H6426     1.0  0.87209  0.36693  0.62563  1.0000
  H   H6427     1.0  0.86537  0.36225  0.59742  1.0000
  H   H6428     1.0  0.87201  0.40582  0.58728  1.0000
  H   H6429     1.0  0.88218  0.39448  0.60608  1.0000
  H   H6430     1.0  0.86160  0.38461  0.65011  1.0000
  H   H6431     1.0  0.84214  0.37818  0.64925  1.0000
  H   H6432     1.0  0.83497  0.37998  0.60744  1.0000
  H   H6433     1.0  0.84845  0.39484  0.57980  1.0000
  H   H6434     1.0  0.84028  0.35951  0.58595  1.0000
  H   H6435     1.0  0.85677  0.37217  0.55957  1.0000
  H   H6436     1.0  0.84812  0.35434  0.65989  1.0000
  H   H6437     1.0  0.83710  0.35429  0.63410  1.0000
  H   H6438     1.0  0.84355  0.40528  0.62045  1.0000
  H   H6439     1.0  0.86256  0.41170  0.62558  1.0000
  H   H6440     1.0  0.88377  0.37995  0.56615  1.0000
  H   H6441     1.0  0.87505  0.39407  0.54854  1.0000
  H   H6442     1.0  0.89676  0.41536  0.54785  1.0000
  H   H6443     1.0  0.90539  0.40146  0.56619  1.0000
  H   H6444     1.0  0.90340  0.40144  0.53107  1.0000
  H   H6445     1.0  0.85294  0.41726  0.50485  1.0000
  H   H6446     1.0  0.95716  0.38032  0.97742  1.0000
  H   H6447     1.0  0.85014  0.33534  0.61571  1.0000
  H   H6448     1.0  0.86122  0.33554  0.64181  1.0000
  H   H6449     1.0  0.84055  0.32817  0.65286  1.0000
  H   H6450     1.0  0.84296  0.41695  0.66083  1.0000
  H   H6451     1.0  0.83271  0.39670  0.67298  1.0000
  H   H6452     1.0  0.85192  0.40296  0.67753  1.0000
  C   C3626     1.0  0.80095  0.27251  0.57809  1.0000
  H   H6453     1.0  0.80849  0.46871  0.49676  1.0000
  H   H6454     1.0  0.92419  0.33535  0.97288  1.0000
  C   C3627     1.0  0.81045  0.13805  0.48451  1.0000
  H   H6455     1.0  0.80517  0.17817  0.51686  1.0000
  H   H6456     1.0  0.97249  0.29893  0.94727  1.0000
  H   H6457     1.0  0.83540  0.06445  0.96031  1.0000
  H   H6458     1.0  0.85638  0.18760  0.52024  1.0000
  H   H6459     1.0  0.97598  0.33297  0.70591  1.0000
  H   H6460     1.0  0.87755  0.42958  0.51417  1.0000
  H   H6461     1.0  0.82491  0.39630  0.96343  1.0000
  H   H6462     1.0  0.94217  0.37083  0.78773  1.0000
  C   C3628     1.0  0.80922  0.00060  0.80244  1.0000
  N   N206      1.0  0.82952  0.48064  0.80384  1.0000
  H   H6463     1.0  0.79743  0.45331  0.48744  1.0000
  H   H6464     1.0  0.84123  0.08657  0.53579  1.0000
  C   C3629     1.0  0.95751  0.48848  0.62407  1.0000
  C   C3630     1.0  0.78966  0.29067  0.78195  1.0000
  H   H6465     1.0  0.81707  0.13531  0.53766  1.0000
  H   H6466     1.0  0.84008  0.10686  0.50082  1.0000
  C   C3631     1.0  0.95714  0.21623  0.81256  1.0000
  H   H6467     1.0  0.80500  0.03324  0.56715  1.0000
  H   H6468     1.0  0.80206  0.05850  0.55960  1.0000
  H   H6469     1.0  0.85148  0.33219  0.91455  1.0000
  C   C3632     1.0  0.87069  0.33614  0.85974  1.0000
  H   H6470     1.0  0.81272  0.48907  0.76312  1.0000
  C   C3633     1.0  0.84054  0.32921  0.90832  1.0000
  C   C3634     1.0  0.78504  0.17549  0.73170  1.0000
  S   S821      1.0  0.87210  0.48810  0.64487  1.0000
  H   H6471     1.0  0.83140  0.45760  0.80134  1.0000
  H   H6472     1.0  0.94841  0.14141  0.64835  1.0000
  C   C3635     1.0  0.93723  0.32617  0.92757  1.0000
  H   H6473     1.0  0.83501  0.16437  0.54253  1.0000
  H   H6474     1.0  0.87116  0.33068  0.88154  1.0000
  C   C3636     1.0  0.92006  0.48699  0.71665  1.0000
  H   H6475     1.0  0.79656  0.42502  0.53245  1.0000
  H   H6476     1.0  0.84350  0.48017  0.76363  1.0000
  H   H6477     1.0  0.83375  0.07329  0.50438  1.0000
  H   H6478     1.0  0.95551  0.38914  0.78352  1.0000
  C   C3637     1.0  0.79294  0.13057  0.56066  1.0000
  H   H6479     1.0  0.84908  0.22789  0.70420  1.0000
  H   H6480     1.0  0.93792  0.42332  0.62756  1.0000
  H   H6481     1.0  0.79314  0.32488  0.88830  1.0000
  C   C3638     1.0  0.85273  0.42111  0.52391  1.0000
  H   H6482     1.0  0.95227  0.18941  0.61561  1.0000
  C   C3639     1.0  0.81230  0.06754  0.55906  1.0000
  C   C3640     1.0  0.85403  0.36027  0.78621  1.0000
  H   H6483     1.0  0.86502  0.48017  0.84579  1.0000
  H   H6484     1.0  0.95968  0.37752  0.75934  1.0000
  H   H6485     1.0  0.85714  0.36231  0.82654  1.0000
  H   H6486     1.0  0.85233  0.30873  0.88435  1.0000
  C   C3641     1.0  0.95031  0.16242  0.60151  1.0000
  C   C3642     1.0  0.97548  0.21626  0.60324  1.0000
  H   H6487     1.0  0.82494  0.28599  0.56098  1.0000
  H   H6488     1.0  0.97480  0.19609  0.63486  1.0000
  H   H6489     1.0  0.80941  0.43242  0.87400  1.0000
  H   H6490     1.0  0.79967  0.12129  0.59877  1.0000
  H   H6491     1.0  0.88008  0.48720  0.73912  1.0000
  S   S822      1.0  0.78770  0.02584  0.66813  1.0000
  H   H6492     1.0  0.80412  0.00636  0.78694  1.0000
  H   H6493     1.0  0.92615  0.48415  0.73334  1.0000
  N   N207      1.0  0.80877  0.15501  0.52023  1.0000
  H   H6494     1.0  0.84422  0.20966  0.67215  1.0000
  H   H6495     1.0  0.82399  0.45687  0.58831  1.0000
  N   N208      1.0  0.92593  0.38583  0.71619  1.0000
  C   C3643     1.0  0.93470  0.37892  0.73593  1.0000
  C   C3644     1.0  0.91779  0.37310  0.70542  1.0000
  C   C3645     1.0  0.93721  0.39862  0.69220  1.0000
  C   C3646     1.0  0.91405  0.39272  0.73112  1.0000
  C   C3647     1.0  0.90221  0.38169  0.75822  1.0000
  C   C3648     1.0  0.94185  0.38963  0.75273  1.0000
  C   C3649     1.0  0.93054  0.40579  0.66781  1.0000
  C   C3650     1.0  0.92842  0.36588  0.68658  1.0000
  C   C3651     1.0  0.91897  0.35337  0.67648  1.0000
  C   C3652     1.0  0.89222  0.39064  0.77317  1.0000
  C   C3653     1.0  0.95030  0.38125  0.77195  1.0000
  C   C3654     1.0  0.94303  0.41839  0.64462  1.0000
  H   H6496     1.0  0.94444  0.37536  0.72394  1.0000
  H   H6497     1.0  0.92730  0.36796  0.75140  1.0000
  H   H6498     1.0  0.91022  0.36336  0.72343  1.0000
  H   H6499     1.0  0.90976  0.37726  0.69354  1.0000
  H   H6500     1.0  0.94730  0.39457  0.68289  1.0000
  H   H6501     1.0  0.94216  0.40844  0.70028  1.0000
  H   H6502     1.0  0.91972  0.40336  0.73632  1.0000
  H   H6503     1.0  0.90705  0.39681  0.71679  1.0000
  H   H6504     1.0  0.90789  0.37607  0.77358  1.0000
  H   H6505     1.0  0.89443  0.37246  0.75264  1.0000
  H   H6506     1.0  0.95033  0.40019  0.73816  1.0000
  H   H6507     1.0  0.93285  0.39325  0.76641  1.0000
  H   H6508     1.0  0.92138  0.41134  0.67565  1.0000
  H   H6509     1.0  0.92562  0.39691  0.65778  1.0000
  H   H6510     1.0  0.93607  0.37475  0.66746  1.0000
  H   H6511     1.0  0.93575  0.36034  0.69846  1.0000
  H   H6512     1.0  0.91265  0.35868  0.66195  1.0000
  H   H6513     1.0  0.92675  0.34763  0.66478  1.0000
  H   H6514     1.0  0.91055  0.34437  0.69466  1.0000
  H   H6515     1.0  0.88627  0.39662  0.75865  1.0000
  H   H6516     1.0  0.88334  0.38254  0.79178  1.0000
  H   H6517     1.0  0.89943  0.39945  0.78060  1.0000
  H   H6518     1.0  0.79647  0.23892  0.74994  1.0000
  H   H6519     1.0  0.83009  0.04358  0.96947  1.0000
  H   H6520     1.0  0.80224  0.11063  0.57234  1.0000
  C   C3655     1.0  0.81700  0.48788  0.81552  1.0000
  H   H6521     1.0  0.94796  0.42798  0.65323  1.0000
  N   N209      1.0  0.93846  0.29299  0.72983  1.0000
  C   C3656     1.0  0.95079  0.30801  0.71609  1.0000
  C   C3657     1.0  0.92289  0.29505  0.72630  1.0000
  C   C3658     1.0  0.93752  0.28905  0.76112  1.0000
  C   C3659     1.0  0.94232  0.27969  0.71874  1.0000
  C   C3660     1.0  0.94589  0.28206  0.68634  1.0000
  C   C3661     1.0  0.96729  0.30773  0.71902  1.0000
  C   C3662     1.0  0.92422  0.27491  0.78012  1.0000
  C   C3663     1.0  0.92262  0.30657  0.69876  1.0000
  C   C3664     1.0  0.90612  0.30548  0.69621  1.0000
  C   C3665     1.0  0.95154  0.26853  0.67810  1.0000
  Fe  Fe415     1.0  0.97484  0.31716  0.84247  1.0000
  C   C3666     1.0  0.92484  0.27175  0.81107  1.0000
  H   H6522     1.0  0.94753  0.31745  0.72516  1.0000
  H   H6523     1.0  0.95173  0.31196  0.69315  1.0000
  H   H6524     1.0  0.91491  0.28361  0.72860  1.0000
  H   H6525     1.0  0.91723  0.29958  0.74357  1.0000
  H   H6526     1.0  0.93645  0.29926  0.76949  1.0000
  H   H6527     1.0  0.94837  0.28659  0.76492  1.0000
  H   H6528     1.0  0.95222  0.27644  0.72590  1.0000
  H   H6529     1.0  0.93265  0.26904  0.72791  1.0000
  H   H6530     1.0  0.95502  0.29282  0.67479  1.0000
  H   H6531     1.0  0.93525  0.28240  0.67917  1.0000
  H   H6532     1.0  0.96781  0.30687  0.74123  1.0000
  H   H6533     1.0  0.97097  0.29788  0.71250  1.0000
  H   H6534     1.0  0.92501  0.26417  0.77353  1.0000
  H   H6535     1.0  0.91276  0.27698  0.77925  1.0000
  H   H6536     1.0  0.92758  0.31868  0.69915  1.0000
  H   H6537     1.0  0.92932  0.30447  0.67952  1.0000
  H   H6538     1.0  0.90612  0.31440  0.67724  1.0000
  H   H6539     1.0  0.90082  0.29383  0.69412  1.0000
  H   H6540     1.0  0.89898  0.30753  0.71517  1.0000
  H   H6541     1.0  0.96255  0.26797  0.68383  1.0000
  H   H6542     1.0  0.78791  0.26096  0.87452  1.0000
  H   H6543     1.0  0.95357  0.27015  0.65489  1.0000
  C   C3667     1.0  0.94276  0.32597  0.95443  1.0000
  C   C3668     1.0  0.93328  0.15885  0.56795  1.0000
  H   H6544     1.0  0.81967  0.02168  0.61501  1.0000
  H   H6545     1.0  0.91488  0.26201  0.82424  1.0000
  H   H6546     1.0  0.93563  0.26847  0.81347  1.0000
  H   H6547     1.0  0.92426  0.28212  0.81908  1.0000
  H   H6548     1.0  0.89862  0.36980  0.85413  1.0000
  C   C3669     1.0  0.88928  0.06292  0.94997  1.0000
  Fe  Fe416     1.0  0.94564  0.10857  0.97118  1.0000
  H   H6549     1.0  0.82242  0.26572  0.57744  1.0000
  N   N210      1.0  0.85460  0.33123  0.85628  1.0000
  C   C3670     1.0  0.84292  0.33619  0.87617  1.0000
  C   C3671     1.0  0.85410  0.33747  0.82598  1.0000
  C   C3672     1.0  0.85007  0.31369  0.86372  1.0000
  C   C3673     1.0  0.81964  0.45026  0.49168  1.0000
  Fe  Fe417     1.0  0.98092  0.11644  0.96550  1.0000
  H   H6550     1.0  0.78627  0.00676  0.88052  1.0000
  C   C3674     1.0  0.85812  0.30583  0.84232  1.0000
  C   C3675     1.0  0.85052  0.35362  0.81820  1.0000
  H   H6551     1.0  0.78684  0.07589  0.54184  1.0000
  H   H6552     1.0  0.82366  0.37586  0.56606  1.0000
  C   C3676     1.0  0.80080  0.05137  0.72404  1.0000
  C   C3677     1.0  0.85224  0.28814  0.85314  1.0000
  H   H6553     1.0  0.83141  0.33301  0.87170  1.0000
  H   H6554     1.0  0.81681  0.43746  0.49617  1.0000
  H   H6555     1.0  0.86508  0.33774  0.81108  1.0000
  H   H6556     1.0  0.84485  0.32951  0.82067  1.0000
  H   H6557     1.0  0.83748  0.30945  0.86676  1.0000
  H   H6558     1.0  0.80230  0.15894  0.48069  1.0000
  C   C3678     1.0  0.80680  0.44888  0.55158  1.0000
  C   C3679     1.0  0.81124  0.03551  0.58311  1.0000
  H   H6559     1.0  0.83792  0.07779  0.57235  1.0000
  H   H6560     1.0  0.95898  0.18276  0.86319  1.0000
  H   H6561     1.0  0.95636  0.21090  0.83510  1.0000
  H   H6562     1.0  0.78724  0.06827  0.72822  1.0000
  H   H6563     1.0  0.87081  0.30884  0.83921  1.0000
  H   H6564     1.0  0.85569  0.30925  0.82136  1.0000
  H   H6565     1.0  0.83805  0.35245  0.82721  1.0000
  C   C3680     1.0  0.94499  0.17049  0.57595  1.0000
  H   H6566     1.0  0.81412  0.03946  0.52199  1.0000
  H   H6567     1.0  0.78731  0.33101  0.54039  1.0000
  H   H6568     1.0  0.92344  0.15248  0.58660  1.0000
  S   S823      1.0  0.96967  0.17962  0.70130  1.0000
  C   C3681     1.0  0.81338  0.02005  0.59868  1.0000
  C   C3682     1.0  0.81524  0.00860  0.82071  1.0000
  H   H6569     1.0  0.93259  0.06871  0.94974  1.0000
  S   S824      1.0  0.98254  0.14077  0.96940  1.0000
  C   C3683     1.0  0.80015  0.16611  0.53078  1.0000
  H   H6570     1.0  0.85814  0.28257  0.83798  1.0000
  H   H6571     1.0  0.85463  0.28394  0.87392  1.0000
  H   H6572     1.0  0.83964  0.28447  0.85531  1.0000
  H   H6573     1.0  0.83599  0.47522  0.56541  1.0000
  C   C3684     1.0  0.84021  0.07542  0.55113  1.0000
  H   H6574     1.0  0.95280  0.16900  0.65261  1.0000
  H   H6575     1.0  0.81069  0.06834  0.58134  1.0000
  C   C3685     1.0  0.78755  0.16651  0.63731  1.0000
  C   C3686     1.0  0.79467  0.11703  0.58261  1.0000
  H   H6576     1.0  0.78447  0.24325  0.92124  1.0000
  C   C3687     1.0  0.83487  0.48620  0.77198  1.0000
  H   H6577     1.0  0.98021  0.14459  0.82088  1.0000
  H   H6578     1.0  0.87972  0.47656  0.69752  1.0000
  H   H6579     1.0  0.78548  0.13656  0.57241  1.0000
  C   C3688     1.0  0.96734  0.26922  0.77459  1.0000
  H   H6580     1.0  0.80969  0.47196  0.55952  1.0000
  H   H6581     1.0  0.93881  0.15035  0.55967  1.0000
  C   C3689     1.0  0.89353  0.35706  0.85983  1.0000
  H   H6582     1.0  0.80119  0.04223  0.71254  1.0000
  H   H6583     1.0  0.79267  0.06598  0.69277  1.0000
  N   N211      1.0  0.92767  0.12273  0.87494  1.0000
  C   C3690     1.0  0.94091  0.11540  0.86817  1.0000
  C   C3691     1.0  0.92879  0.13628  0.85042  1.0000
  C   C3692     1.0  0.92914  0.12902  0.90020  1.0000
  C   C3693     1.0  0.91222  0.11104  0.88298  1.0000
  C   C3694     1.0  0.90881  0.10202  0.86107  1.0000
  C   C3695     1.0  0.94085  0.10089  0.89100  1.0000
  C   C3696     1.0  0.91819  0.13938  0.90793  1.0000
  C   C3697     1.0  0.93481  0.13487  0.81995  1.0000
  C   C3698     1.0  0.93244  0.14800  0.79789  1.0000
  C   C3699     1.0  0.89469  0.08819  0.87427  1.0000
  C   C3700     1.0  0.95500  0.09486  0.88210  1.0000
  C   C3701     1.0  0.92030  0.14443  0.93439  1.0000
  H   H6584     1.0  0.95205  0.12418  0.86401  1.0000
  H   H6585     1.0  0.94143  0.11171  0.84837  1.0000
  H   H6586     1.0  0.91739  0.13910  0.85206  1.0000
  H   H6587     1.0  0.93692  0.14694  0.85143  1.0000
  H   H6588     1.0  0.94118  0.13599  0.89687  1.0000
  H   H6589     1.0  0.92692  0.11940  0.91956  1.0000
  H   H6590     1.0  0.91068  0.10247  0.90355  1.0000
  H   H6591     1.0  0.90267  0.11677  0.88694  1.0000
  H   H6592     1.0  0.91854  0.09737  0.85260  1.0000
  H   H6593     1.0  0.90620  0.10976  0.84333  1.0000
  H   H6594     1.0  0.94109  0.10360  0.91143  1.0000
  H   H6595     1.0  0.93047  0.09133  0.89436  1.0000
  H   H6596     1.0  0.90592  0.13307  0.91238  1.0000
  H   H6597     1.0  0.92057  0.15011  0.89060  1.0000
  H   H6598     1.0  0.94741  0.13574  0.81548  1.0000
  H   H6599     1.0  0.92909  0.12374  0.81676  1.0000
  H   H6600     1.0  0.93774  0.14732  0.77627  1.0000
  H   H6601     1.0  0.91994  0.14708  0.80007  1.0000
  H   H6602     1.0  0.93803  0.15950  0.80022  1.0000
  H   H6603     1.0  0.89197  0.08240  0.85783  1.0000
  H   H6604     1.0  0.89704  0.07954  0.89107  1.0000
  H   H6605     1.0  0.88446  0.09203  0.88351  1.0000
  H   H6606     1.0  0.95487  0.08473  0.89912  1.0000
  H   H6607     1.0  0.92865  0.16507  0.55133  1.0000
  H   H6608     1.0  0.96571  0.10405  0.87861  1.0000
  C   C3702     1.0  0.79461  0.08490  0.54795  1.0000
  C   C3703     1.0  0.95943  0.14764  0.65132  1.0000
  H   H6609     1.0  0.91250  0.15194  0.93930  1.0000
  H   H6610     1.0  0.96391  0.21741  0.61332  1.0000
  H   H6611     1.0  0.93302  0.33667  0.92129  1.0000
  C   C3704     1.0  0.98145  0.32065  0.95626  1.0000
  C   C3705     1.0  0.98169  0.27694  0.75574  1.0000
  H   H6612     1.0  0.80988  0.45984  0.85642  1.0000
  H   H6613     1.0  0.88005  0.35908  0.82982  1.0000
  H   H6614     1.0  0.87735  0.06160  0.94961  1.0000
  C   C3706     1.0  0.79525  0.24225  0.70657  1.0000
  H   H6615     1.0  0.94942  0.20797  0.80490  1.0000
  H   H6616     1.0  0.83543  0.04218  0.55973  1.0000
  C   C3707     1.0  0.81242  0.43777  0.85080  1.0000
  H   H6617     1.0  0.80849  0.18585  0.72971  1.0000
  H   H6618     1.0  0.83260  0.34824  0.92168  1.0000
  H   H6619     1.0  0.81440  0.44093  0.54808  1.0000
  H   H6620     1.0  0.85939  0.06932  0.52450  1.0000
  S   S825      1.0  0.78758  0.39567  0.50529  1.0000
  C   C3708     1.0  0.96485  0.17523  0.82518  1.0000
  H   H6621     1.0  0.84656  0.35269  0.77704  1.0000
  C   C3709     1.0  0.78891  0.05978  0.71564  1.0000
  H   H6622     1.0  0.98175  0.24363  0.79315  1.0000
  H   H6623     1.0  0.82061  0.06599  0.69280  1.0000
  C   C3710     1.0  0.82318  0.46324  0.81239  1.0000
  H   H6624     1.0  0.80011  0.44411  0.57407  1.0000
  H   H6625     1.0  0.87882  0.33172  0.84566  1.0000
  C   C3711     1.0  0.97631  0.19937  0.61164  1.0000
  C   C3712     1.0  0.80878  0.14202  0.54466  1.0000
  C   C3713     1.0  0.81694  0.46507  0.54982  1.0000
  C   C3714     1.0  0.81885  0.45531  0.84469  1.0000
  H   H6626     1.0  0.97788  0.22056  0.57988  1.0000
  C   C3715     1.0  0.82216  0.48374  0.75593  1.0000
  H   H6627     1.0  0.80161  0.16681  0.55206  1.0000
  C   C3716     1.0  0.96363  0.17441  0.85400  1.0000
  H   H6628     1.0  0.95583  0.13019  0.69073  1.0000
  H   H6629     1.0  0.79033  0.08376  0.57093  1.0000
  H   H6630     1.0  0.81250  0.46010  0.80529  1.0000
  H   H6631     1.0  0.79651  0.04543  0.74680  1.0000
  H   H6632     1.0  0.96087  0.18392  0.81240  1.0000
  C   C3717     1.0  0.95834  0.14302  0.68300  1.0000
  H   H6633     1.0  0.94283  0.25731  0.68903  1.0000
  C   C3718     1.0  0.84307  0.48530  0.81572  1.0000
  C   C3719     1.0  0.80500  0.45581  0.50162  1.0000
  H   H6634     1.0  0.86630  0.36143  0.77590  1.0000
  C   C3720     1.0  0.80215  0.14898  0.49819  1.0000
  H   H6635     1.0  0.82685  0.33007  0.94868  1.0000
  H   H6636     1.0  0.84067  0.38704  0.53813  1.0000
  H   H6637     1.0  0.83335  0.36671  0.54170  1.0000
  S   S826      1.0  0.85110  0.00100  0.97413  1.0000
  Fe  Fe418     1.0  0.81333  0.40139  0.50138  1.0000
  H   H6638     1.0  0.97728  0.20877  0.79761  1.0000
  C   C3721     1.0  0.97829  0.25730  0.72930  1.0000
  H   H6639     1.0  0.85305  0.19310  0.65162  1.0000
  H   H6640     1.0  0.95241  0.41348  0.63524  1.0000
  H   H6641     1.0  0.80181  0.43513  0.84334  1.0000
  H   H6642     1.0  0.84511  0.00978  0.74782  1.0000
  H   H6643     1.0  0.84065  0.08711  0.68418  1.0000
  C   C3722     1.0  0.97913  0.32260  0.70050  1.0000
  H   H6644     1.0  0.84575  0.34898  0.87254  1.0000
  S   S827      1.0  0.95154  0.23360  0.74228  1.0000
  H   H6645     1.0  0.84413  0.19222  0.62292  1.0000
  S   S828      1.0  0.96656  0.11789  0.93364  1.0000
  C   C3723     1.0  0.86902  0.08626  0.54384  1.0000
  C   C3724     1.0  0.86671  0.42810  0.52929  1.0000
  S   S829      1.0  0.92180  0.09411  0.96976  1.0000
  S   S830      1.0  0.97360  0.16575  0.77656  1.0000
  H   H6646     1.0  0.85999  0.17351  0.62770  1.0000
  C   C3725     1.0  0.91277  0.07793  0.95834  1.0000
  S   S831      1.0  0.96050  0.21218  0.67995  1.0000
  H   H6647     1.0  0.85171  0.37192  0.78150  1.0000
  Fe  Fe419     1.0  0.95978  0.21475  0.72423  1.0000
  H   H6648     1.0  0.96940  0.14822  0.68725  1.0000
  C   C3726     1.0  0.96831  0.16280  0.87101  1.0000
  H   H6649     1.0  0.79111  0.99829  0.92675  1.0000
  C   C3727     1.0  0.96370  0.24987  0.74766  1.0000
  C   C3728     1.0  0.85645  0.47745  0.80907  1.0000
  H   H6650     1.0  0.82861  0.45386  0.50257  1.0000
  H   H6651     1.0  0.98259  0.25282  0.71172  1.0000
  H   H6652     1.0  0.96891  0.14339  0.64047  1.0000
  H   H6653     1.0  0.81145  0.12818  0.50074  1.0000
  S   S832      1.0  0.98242  0.20886  0.72583  1.0000
  H   H6654     1.0  0.97767  0.14291  0.87197  1.0000
  H   H6655     1.0  0.80039  0.26900  0.55835  1.0000
  H   H6656     1.0  0.94888  0.14692  0.69501  1.0000
  S   S833      1.0  0.81580  0.38104  0.48318  1.0000
  H   H6657     1.0  0.97865  0.15711  0.59647  1.0000
  H   H6658     1.0  0.97372  0.22357  0.77206  1.0000
  C   C3729     1.0  0.84233  0.11449  0.48000  1.0000
  C   C3730     1.0  0.81786  0.27601  0.57897  1.0000
  H   H6659     1.0  0.94378  0.35650  0.96691  1.0000
  C   C3731     1.0  0.96239  0.16554  0.64002  1.0000
  H   H6660     1.0  0.95250  0.33639  0.94951  1.0000
  H   H6661     1.0  0.98095  0.31535  0.97803  1.0000
  H   H6662     1.0  0.96959  0.36769  0.97167  1.0000
  C   C3732     1.0  0.78853  0.98960  0.91468  1.0000
  H   H6663     1.0  0.83237  0.15614  0.49944  1.0000
  S   S834      1.0  0.78802  0.19463  0.60272  1.0000
  H   H6664     1.0  0.98144  0.23114  0.82547  1.0000
  C   C3733     1.0  0.86936  0.48319  0.82238  1.0000
  H   H6665     1.0  0.95496  0.09110  0.86240  1.0000
  Fe  Fe420     1.0  0.79062  0.37687  0.48286  1.0000
  S   S835      1.0  0.97333  0.34130  0.82286  1.0000
  H   H6666     1.0  0.83916  0.48299  0.83906  1.0000
  H   H6667     1.0  0.90767  0.48524  0.72702  1.0000
  S   S836      1.0  0.97004  0.30646  0.88975  1.0000
  H   H6668     1.0  0.79425  0.09650  0.53586  1.0000
  C   C3734     1.0  0.97668  0.31138  0.93882  1.0000
  H   H6669     1.0  0.79722  0.30078  0.78567  1.0000
  H   H6670     1.0  0.79032  0.31478  0.58456  1.0000
  Fe  Fe421     1.0  0.98243  0.20480  0.68308  1.0000
  S   S837      1.0  0.78683  0.32577  0.96769  1.0000
  H   H6671     1.0  0.78416  0.26857  0.63522  1.0000
  H   H6672     1.0  0.92788  0.31559  0.93082  1.0000
  C   C3735     1.0  0.97370  0.21975  0.79461  1.0000
  H   H6673     1.0  0.85016  0.19059  0.48801  1.0000
  C   C3736     1.0  0.97715  0.31819  0.91056  1.0000
  H   H6674     1.0  0.97624  0.16942  0.55062  1.0000
  C   C3737     1.0  0.98262  0.33430  0.89975  1.0000
  H   H6675     1.0  0.98307  0.33966  0.87805  1.0000
  H   H6676     1.0  0.78318  0.10889  0.59351  1.0000
  C   C3738     1.0  0.82023  0.05355  0.47948  1.0000
  H   H6677     1.0  0.79442  0.76613  0.35748  1.0000
  Fe  Fe422     1.0  0.85400  0.53351  0.07277  1.0000
  S   S838      1.0  0.83788  0.52818  0.11586  1.0000
  S   S839      1.0  0.84966  0.52163  0.03836  1.0000
  Fe  Fe423     1.0  0.87852  0.55782  0.08601  1.0000
  S   S840      1.0  0.86419  0.55395  0.13025  1.0000
  S   S841      1.0  0.90169  0.57573  0.06555  1.0000
  Fe  Fe424     1.0  0.85926  0.52856  0.13165  1.0000
  S   S842      1.0  0.85756  0.50937  0.17005  1.0000
  Fe  Fe425     1.0  0.84427  0.55391  0.11054  1.0000
  S   S843      1.0  0.82740  0.56847  0.11845  1.0000
  S   S844      1.0  0.87512  0.53224  0.08881  1.0000
  S   S845      1.0  0.85885  0.55941  0.06596  1.0000
  C   C3739     1.0  0.89518  0.70079  0.38512  1.0000
  S   S846      1.0  0.95622  0.66868  0.07002  1.0000
  H   H6678     1.0  0.79666  0.70574  0.19601  1.0000
  C   C3740     1.0  0.87888  0.49486  0.30576  1.0000
  S   S847      1.0  0.96393  0.65834  0.13103  1.0000
  H   H6679     1.0  0.89920  0.60684  0.98287  1.0000
  Fe  Fe426     1.0  0.95342  0.64616  0.10197  1.0000
  S   S848      1.0  0.93013  0.62815  0.12060  1.0000
  Fe  Fe427     1.0  0.96865  0.68054  0.09719  1.0000
  S   S849      1.0  0.96430  0.70349  0.10368  1.0000
  C   C3741     1.0  0.89633  0.48993  0.09040  1.0000
  C   C3742     1.0  0.90779  0.50460  0.09057  1.0000
  H   H6680     1.0  0.79887  0.58733  0.19164  1.0000
  H   H6681     1.0  0.83747  0.68442  0.16979  1.0000
  H   H6682     1.0  0.92619  0.51195  0.22594  1.0000
  H   H6683     1.0  0.90156  0.51267  0.09874  1.0000
  H   H6684     1.0  0.82079  0.76951  0.24424  1.0000
  H   H6685     1.0  0.88723  0.89252  0.99503  1.0000
  H   H6686     1.0  0.89169  0.63553  0.06288  1.0000
  H   H6687     1.0  0.89422  0.85402  0.00858  1.0000
  H   H6688     1.0  0.80246  0.80592  0.20456  1.0000
  Fe  Fe428     1.0  0.96883  0.77918  0.21395  1.0000
  S   S850      1.0  0.94327  0.77764  0.23141  1.0000
  C   C3743     1.0  0.78547  0.94325  0.13557  1.0000
  H   H6689     1.0  0.94171  0.51171  0.30476  1.0000
  H   H6690     1.0  0.89499  0.74891  0.34478  1.0000
  H   H6691     1.0  0.84655  0.92709  0.98568  1.0000
  C   C3744     1.0  0.79634  0.77098  0.33435  1.0000
  H   H6692     1.0  0.81531  0.69519  0.18171  1.0000
  H   H6693     1.0  0.90203  0.49177  0.24217  1.0000
  H   H6694     1.0  0.92096  0.59415  0.00572  1.0000
  C   C3745     1.0  0.81125  0.66193  0.31878  1.0000
  H   H6695     1.0  0.81151  0.79052  0.05026  1.0000
  C   C3746     1.0  0.88913  0.51360  0.15721  1.0000
  C   C3747     1.0  0.80611  0.79993  0.05202  1.0000
  C   C3748     1.0  0.90920  0.77023  0.34853  1.0000
  Fe  Fe429     1.0  0.83152  0.69554  0.33947  1.0000
  S   S851      1.0  0.81934  0.71251  0.35505  1.0000
  S   S852      1.0  0.81584  0.67151  0.34462  1.0000
  Fe  Fe430     1.0  0.86345  0.71843  0.32666  1.0000
  S   S853      1.0  0.85320  0.73676  0.34090  1.0000
  S   S854      1.0  0.88951  0.72074  0.31575  1.0000
  Fe  Fe431     1.0  0.83790  0.71735  0.37800  1.0000
  S   S855      1.0  0.83086  0.71984  0.42341  1.0000
  Fe  Fe432     1.0  0.83556  0.73031  0.31696  1.0000
  S   S856      1.0  0.82955  0.74966  0.28744  1.0000
  S   S857      1.0  0.84896  0.69918  0.36513  1.0000
  S   S858      1.0  0.84695  0.71318  0.29992  1.0000
  S   S859      1.0  0.80732  0.84217  0.00288  1.0000
  C   C3749     1.0  0.80263  0.82514  0.03086  1.0000
  H   H6696     1.0  0.85677  0.75227  0.42790  1.0000
  C   C3750     1.0  0.90393  0.75223  0.35604  1.0000
  H   H6697     1.0  0.84467  0.73819  0.20000  1.0000
  H   H6698     1.0  0.91830  0.79005  0.31160  1.0000
  C   C3751     1.0  0.80434  0.57833  0.18743  1.0000
  H   H6699     1.0  0.80804  0.77908  0.32594  1.0000
  C   C3752     1.0  0.97271  0.49318  0.26545  1.0000
  H   H6700     1.0  0.78399  0.81449  0.29795  1.0000
  C   C3753     1.0  0.90086  0.63006  0.05474  1.0000
  C   C3754     1.0  0.85959  0.50147  0.27976  1.0000
  H   H6701     1.0  0.79286  0.93562  0.14234  1.0000
  H   H6702     1.0  0.88209  0.55837  0.00413  1.0000
  H   H6703     1.0  0.79940  0.55148  0.08815  1.0000
  C   C3755     1.0  0.79940  0.73516  0.28997  1.0000
  H   H6704     1.0  0.80383  0.62048  0.35070  1.0000
  H   H6705     1.0  0.79075  0.64600  0.34801  1.0000
  H   H6706     1.0  0.80002  0.72618  0.30743  1.0000
  H   H6707     1.0  0.85028  0.75734  0.39641  1.0000
  C   C3756     1.0  0.79799  0.64944  0.32658  1.0000
  H   H6708     1.0  0.81328  0.60547  0.36061  1.0000
  H   H6709     1.0  0.84968  0.49006  0.07314  1.0000
  H   H6710     1.0  0.79520  0.53055  0.09822  1.0000
  C   C3757     1.0  0.79246  0.81313  0.24148  1.0000
  C   C3758     1.0  0.78764  0.58467  0.40158  1.0000
  H   H6711     1.0  0.91196  0.63635  0.05749  1.0000
  H   H6712     1.0  0.80700  0.69714  0.27723  1.0000
  H   H6713     1.0  0.96354  0.81064  0.07246  1.0000
  H   H6714     1.0  0.89796  0.61781  0.06743  1.0000
  C   C3759     1.0  0.78497  0.74543  0.25748  1.0000
  H   H6715     1.0  0.90509  0.64323  0.01181  1.0000
  H   H6716     1.0  0.82392  0.66128  0.25019  1.0000
  H   H6717     1.0  0.90893  0.60977  0.02279  1.0000
  H   H6718     1.0  0.83333  0.65395  0.47343  1.0000
  H   H6719     1.0  0.94079  0.62004  0.98396  1.0000
  H   H6720     1.0  0.78810  0.81667  0.19963  1.0000
  C   C3760     1.0  0.81102  0.75958  0.25444  1.0000
  H   H6721     1.0  0.79016  0.96592  0.10406  1.0000
  H   H6722     1.0  0.93588  0.57882  0.98250  1.0000
  H   H6723     1.0  0.84986  0.49438  0.29801  1.0000
  C   C3761     1.0  0.92856  0.76168  0.25508  1.0000
  C   C3762     1.0  0.91302  0.76193  0.25770  1.0000
  C   C3763     1.0  0.90094  0.74965  0.27651  1.0000
  C   C3764     1.0  0.90428  0.73686  0.29276  1.0000
  C   C3765     1.0  0.91983  0.73666  0.29039  1.0000
  C   C3766     1.0  0.93191  0.74902  0.27175  1.0000
  H   H6724     1.0  0.91030  0.77175  0.24515  1.0000
  H   H6725     1.0  0.88905  0.75003  0.27821  1.0000
  H   H6726     1.0  0.92255  0.72687  0.30298  1.0000
  H   H6727     1.0  0.94380  0.74884  0.27040  1.0000
  H   H6728     1.0  0.82230  0.87528  0.05365  1.0000
  H   H6729     1.0  0.91566  0.50166  0.10394  1.0000
  H   H6730     1.0  0.91912  0.77408  0.35712  1.0000
  H   H6731     1.0  0.79704  0.76719  0.22694  1.0000
  C   C3767     1.0  0.85471  0.71487  0.44815  1.0000
  C   C3768     1.0  0.84091  0.71941  0.45044  1.0000
  C   C3769     1.0  0.78585  0.73404  0.28049  1.0000
  H   H6732     1.0  0.83091  0.67556  0.28488  1.0000
  C   C3770     1.0  0.78319  0.56493  0.35905  1.0000
  H   H6733     1.0  0.85927  0.71119  0.42972  1.0000
  C   C3771     1.0  0.78888  0.81121  0.07986  1.0000
  H   H6734     1.0  0.78898  0.55644  0.32184  1.0000
  C   C3772     1.0  0.80317  0.49010  0.04022  1.0000
  H   H6735     1.0  0.88363  0.50627  0.23390  1.0000
  H   H6736     1.0  0.78848  0.68033  0.32188  1.0000
  H   H6737     1.0  0.82539  0.86759  0.02324  1.0000
  H   H6738     1.0  0.82044  0.82875  0.10168  1.0000
  C   C3773     1.0  0.95304  0.76723  0.07887  1.0000
  C   C3774     1.0  0.80406  0.49829  0.06094  1.0000
  H   H6739     1.0  0.88589  0.69959  0.37389  1.0000
  H   H6740     1.0  0.95977  0.73037  0.26518  1.0000
  H   H6741     1.0  0.79589  0.94680  0.07720  1.0000
  H   H6742     1.0  0.85812  0.55030  0.99057  1.0000
  C   C3775     1.0  0.97635  0.64329  0.99587  1.0000
  H   H6743     1.0  0.79775  0.79594  0.29067  1.0000
  C   C3776     1.0  0.81210  0.74790  0.27683  1.0000
  H   H6744     1.0  0.79372  0.57470  0.35136  1.0000
  H   H6745     1.0  0.85849  0.68414  0.46094  1.0000
  C   C3777     1.0  0.81821  0.50796  0.06077  1.0000
  H   H6746     1.0  0.81875  0.51423  0.07676  1.0000
  C   C3778     1.0  0.91005  0.58953  0.08200  1.0000
  C   C3779     1.0  0.92421  0.60036  0.06732  1.0000
  C   C3780     1.0  0.93064  0.61216  0.07891  1.0000
  C   C3781     1.0  0.92305  0.61312  0.10552  1.0000
  C   C3782     1.0  0.90917  0.60200  0.12056  1.0000
  C   C3783     1.0  0.90271  0.59024  0.10893  1.0000
  H   H6747     1.0  0.93020  0.59970  0.04678  1.0000
  H   H6748     1.0  0.94142  0.62055  0.06721  1.0000
  H   H6749     1.0  0.90345  0.60246  0.14139  1.0000
  H   H6750     1.0  0.89209  0.58172  0.12078  1.0000
  H   H6751     1.0  0.83437  0.50952  0.23782  1.0000
  H   H6752     1.0  0.82931  0.50055  0.27536  1.0000
  C   C3784     1.0  0.93184  0.50325  0.30226  1.0000
  C   C3785     1.0  0.87471  0.50430  0.17378  1.0000
  C   C3786     1.0  0.79213  0.82412  0.05639  1.0000
  H   H6753     1.0  0.89972  0.77524  0.35698  1.0000
  H   H6754     1.0  0.80741  0.67302  0.46082  1.0000
  H   H6755     1.0  0.90875  0.72266  0.35695  1.0000
  S   S860      1.0  0.97581  0.64198  0.08057  1.0000
  H   H6756     1.0  0.78746  0.58941  0.42040  1.0000
  H   H6757     1.0  0.89007  0.69528  0.40812  1.0000
  C   C3787     1.0  0.81869  0.56732  0.15373  1.0000
  C   C3788     1.0  0.81878  0.55515  0.17598  1.0000
  C   C3789     1.0  0.79214  0.96297  0.21882  1.0000
  C   C3790     1.0  0.83973  0.73710  0.22275  1.0000
  H   H6758     1.0  0.82434  0.54617  0.17162  1.0000
  H   H6759     1.0  0.81175  0.54520  0.22122  1.0000
  C   C3791     1.0  0.81150  0.57890  0.15951  1.0000
  C   C3792     1.0  0.83160  0.50948  0.03987  1.0000
  C   C3793     1.0  0.81655  0.65807  0.27142  1.0000
  N   N212      1.0  0.91904  0.62506  0.98058  1.0000
  H   H6760     1.0  0.86151  0.50227  0.33339  1.0000
  H   H6761     1.0  0.93216  0.65206  0.99957  1.0000
  N   N213      1.0  0.87366  0.49510  0.27883  1.0000
  H   H6762     1.0  0.82525  0.72007  0.26021  1.0000
  H   H6763     1.0  0.86156  0.51091  0.23415  1.0000
  H   H6764     1.0  0.96026  0.71063  0.27936  1.0000
  H   H6765     1.0  0.92205  0.50874  0.30215  1.0000
  C   C3794     1.0  0.97350  0.71343  0.12485  1.0000
  H   H6766     1.0  0.86617  0.77065  0.40183  1.0000
  H   H6767     1.0  0.83565  0.71242  0.23416  1.0000
  C   C3795     1.0  0.83069  0.50125  0.01925  1.0000
  C   C3796     1.0  0.98219  0.77487  0.07131  1.0000
  H   H6768     1.0  0.80260  0.81232  0.25001  1.0000
  C   C3797     1.0  0.80375  0.61065  0.36822  1.0000
  C   C3798     1.0  0.86063  0.75819  0.40490  1.0000
  H   H6769     1.0  0.97504  0.80398  0.11291  1.0000
  H   H6770     1.0  0.94878  0.59555  0.98628  1.0000
  H   H6771     1.0  0.78937  0.55563  0.39654  1.0000
  C   C3799     1.0  0.97125  0.72809  0.12633  1.0000
  H   H6772     1.0  0.86558  0.49583  0.10654  1.0000
  C   C3800     1.0  0.81167  0.55462  0.20399  1.0000
  H   H6773     1.0  0.83295  0.85588  0.07984  1.0000
  H   H6774     1.0  0.88698  0.50618  0.30382  1.0000
  H   H6775     1.0  0.95141  0.77450  0.09393  1.0000
  C   C3801     1.0  0.78861  0.69153  0.45775  1.0000
  C   C3802     1.0  0.79387  0.64150  0.30679  1.0000
  H   H6776     1.0  0.94362  0.76691  0.06795  1.0000
  H   H6777     1.0  0.91229  0.51864  0.20908  1.0000
  H   H6778     1.0  0.79810  0.70187  0.44515  1.0000
  H   H6779     1.0  0.78690  0.68319  0.44470  1.0000
  C   C3803     1.0  0.78496  0.68258  0.27946  1.0000
  H   H6780     1.0  0.97925  0.74662  0.05678  1.0000
  H   H6781     1.0  0.92446  0.62538  0.02058  1.0000
  H   H6782     1.0  0.79740  0.54912  0.34984  1.0000
  C   C3804     1.0  0.79645  0.95749  0.11220  1.0000
  C   C3805     1.0  0.81299  0.69060  0.22770  1.0000
  C   C3806     1.0  0.95993  0.71911  0.26009  1.0000
  H   H6783     1.0  0.79559  0.94651  0.17968  1.0000
  S   S861      1.0  0.79551  0.56519  0.24497  1.0000
  H   H6784     1.0  0.97059  0.72072  0.24326  1.0000
  H   H6785     1.0  0.83354  0.74629  0.22464  1.0000
  H   H6786     1.0  0.90460  0.77427  0.30690  1.0000
  H   H6787     1.0  0.85000  0.49116  0.24888  1.0000
  H   H6788     1.0  0.78932  0.77796  0.28548  1.0000
  H   H6789     1.0  0.81232  0.96292  0.07068  1.0000
  H   H6790     1.0  0.79890  0.58158  0.39711  1.0000
  C   C3807     1.0  0.80945  0.81289  0.02860  1.0000
  H   H6791     1.0  0.92034  0.73360  0.46508  1.0000
  C   C3808     1.0  0.87384  0.49050  0.19353  1.0000
  H   H6792     1.0  0.88992  0.52431  0.14198  1.0000
  C   C3809     1.0  0.79157  0.70161  0.21928  1.0000
  H   H6793     1.0  0.83020  0.82926  0.14439  1.0000
  H   H6794     1.0  0.82081  0.68895  0.24174  1.0000
  H   H6795     1.0  0.83364  0.67251  0.45119  1.0000
  C   C3810     1.0  0.83858  0.50864  0.25727  1.0000
  H   H6796     1.0  0.91687  0.52585  0.23820  1.0000
  C   C3811     1.0  0.91517  0.51550  0.22971  1.0000
  H   H6797     1.0  0.91396  0.74835  0.34596  1.0000
  H   H6798     1.0  0.88267  0.72553  0.37852  1.0000
  C   C3812     1.0  0.85421  0.67139  0.46507  1.0000
  C   C3813     1.0  0.91435  0.77721  0.31650  1.0000
  C   C3814     1.0  0.79605  0.79917  0.07784  1.0000
  C   C3815     1.0  0.83476  0.72361  0.47506  1.0000
  C   C3816     1.0  0.90212  0.63082  0.02353  1.0000
  C   C3817     1.0  0.79780  0.81567  0.20949  1.0000
  H   H6799     1.0  0.84098  0.50217  0.00325  1.0000
  H   H6800     1.0  0.92408  0.77283  0.30680  1.0000
  H   H6801     1.0  0.85783  0.79954  0.01917  1.0000
  C   C3818     1.0  0.87182  0.75050  0.38937  1.0000
  H   H6802     1.0  0.78627  0.59512  0.35779  1.0000
  C   C3819     1.0  0.78379  0.55575  0.44969  1.0000
  C   C3820     1.0  0.78688  0.55222  0.34518  1.0000
  C   C3821     1.0  0.80440  0.56619  0.20976  1.0000
  N   N214      1.0  0.93128  0.72004  0.21163  1.0000
  C   C3822     1.0  0.92971  0.70391  0.20760  1.0000
  C   C3823     1.0  0.91667  0.72025  0.23188  1.0000
  C   C3824     1.0  0.93401  0.73139  0.18325  1.0000
  C   C3825     1.0  0.94479  0.72476  0.22368  1.0000
  C   C3826     1.0  0.94560  0.71307  0.25050  1.0000
  C   C3827     1.0  0.94416  0.70122  0.18893  1.0000
  C   C3828     1.0  0.93325  0.74819  0.18400  1.0000
  C   C3829     1.0  0.90167  0.71665  0.22185  1.0000
  C   C3830     1.0  0.88788  0.71862  0.24254  1.0000
  H   H6803     1.0  0.79955  0.97429  0.20471  1.0000
  C   C3831     1.0  0.94185  0.68418  0.18861  1.0000
  C   C3832     1.0  0.93782  0.75898  0.15415  1.0000
  H   H6804     1.0  0.92033  0.70100  0.19712  1.0000
  H   H6805     1.0  0.92610  0.69506  0.22842  1.0000
  H   H6806     1.0  0.91456  0.71160  0.25252  1.0000
  H   H6807     1.0  0.91787  0.73163  0.23706  1.0000
  H   H6808     1.0  0.92580  0.72708  0.17136  1.0000
  H   H6809     1.0  0.94561  0.73233  0.16971  1.0000
  H   H6810     1.0  0.95595  0.72732  0.20742  1.0000
  H   H6811     1.0  0.94476  0.73588  0.22944  1.0000
  H   H6812     1.0  0.94630  0.70171  0.24644  1.0000
  H   H6813     1.0  0.93535  0.71120  0.26827  1.0000
  H   H6814     1.0  0.94621  0.70809  0.16682  1.0000
  H   H6815     1.0  0.95464  0.70456  0.19633  1.0000
  H   H6816     1.0  0.94121  0.75310  0.19566  1.0000
  H   H6817     1.0  0.92141  0.74851  0.19432  1.0000
  H   H6818     1.0  0.90280  0.72445  0.20086  1.0000
  H   H6819     1.0  0.89879  0.70446  0.22051  1.0000
  H   H6820     1.0  0.88604  0.71089  0.26399  1.0000
  H   H6821     1.0  0.88970  0.73086  0.24371  1.0000
  H   H6822     1.0  0.87726  0.71555  0.23530  1.0000
  H   H6823     1.0  0.90362  0.69455  0.37696  1.0000
  H   H6824     1.0  0.86416  0.82823  0.00663  1.0000
  C   C3833     1.0  0.85030  0.80595  0.00939  1.0000
  H   H6825     1.0  0.95224  0.68272  0.17450  1.0000
  H   H6826     1.0  0.94013  0.67668  0.21021  1.0000
  H   H6827     1.0  0.93177  0.68036  0.18033  1.0000
  H   H6828     1.0  0.93722  0.77090  0.15534  1.0000
  H   H6829     1.0  0.94986  0.75950  0.14329  1.0000
  H   H6830     1.0  0.92988  0.75492  0.14166  1.0000
  H   H6831     1.0  0.88879  0.49362  0.07698  1.0000
  C   C3834     1.0  0.78820  0.59862  0.37688  1.0000
  H   H6832     1.0  0.84661  0.86723  0.04701  1.0000
  H   H6833     1.0  0.83546  0.81118  0.14337  1.0000
  C   C3835     1.0  0.82055  0.66618  0.29105  1.0000
  C   C3836     1.0  0.81448  0.71851  0.22521  1.0000
  H   H6834     1.0  0.81156  0.85599  0.05591  1.0000
  H   H6835     1.0  0.81732  0.81345  0.00885  1.0000
  C   C3837     1.0  0.79510  0.54097  0.10639  1.0000
  N   N215      1.0  0.85938  0.60456  0.16684  1.0000
  C   C3838     1.0  0.85498  0.60360  0.13967  1.0000
  C   C3839     1.0  0.84542  0.60526  0.18815  1.0000
  C   C3840     1.0  0.87251  0.61886  0.16050  1.0000
  C   C3841     1.0  0.86471  0.59054  0.17890  1.0000
  C   C3842     1.0  0.85307  0.57455  0.18514  1.0000
  C   C3843     1.0  0.86708  0.60006  0.11692  1.0000
  C   C3844     1.0  0.87701  0.62337  0.18649  1.0000
  C   C3845     1.0  0.83917  0.61981  0.18059  1.0000
  C   C3846     1.0  0.82583  0.61967  0.20481  1.0000
  C   C3847     1.0  0.85984  0.56131  0.19707  1.0000
  C   C3848     1.0  0.86313  0.60262  0.08834  1.0000
  C   C3849     1.0  0.89075  0.63766  0.17705  1.0000
  H   H6836     1.0  0.85264  0.61471  0.12962  1.0000
  H   H6837     1.0  0.84395  0.59465  0.14396  1.0000
  H   H6838     1.0  0.83555  0.59518  0.19102  1.0000
  H   H6839     1.0  0.84768  0.60414  0.20943  1.0000
  H   H6840     1.0  0.87005  0.62913  0.14741  1.0000
  H   H6841     1.0  0.88320  0.61739  0.14731  1.0000
  H   H6842     1.0  0.87571  0.59031  0.16470  1.0000
  H   H6843     1.0  0.86742  0.59118  0.19932  1.0000
  H   H6844     1.0  0.84996  0.57263  0.16570  1.0000
  H   H6845     1.0  0.84236  0.57363  0.20117  1.0000
  H   H6846     1.0  0.87876  0.60755  0.11343  1.0000
  H   H6847     1.0  0.86751  0.58780  0.12354  1.0000
  H   H6848     1.0  0.88046  0.61386  0.19950  1.0000
  H   H6849     1.0  0.86733  0.62615  0.20012  1.0000
  H   H6850     1.0  0.84818  0.63074  0.17646  1.0000
  H   H6851     1.0  0.83472  0.62000  0.16154  1.0000
  H   H6852     1.0  0.81643  0.60889  0.20992  1.0000
  H   H6853     1.0  0.82984  0.62040  0.22410  1.0000
  H   H6854     1.0  0.82103  0.62979  0.19864  1.0000
  H   H6855     1.0  0.87092  0.56176  0.18240  1.0000
  H   H6856     1.0  0.86186  0.56202  0.21795  1.0000
  H   H6857     1.0  0.85161  0.54998  0.19994  1.0000
  H   H6858     1.0  0.85132  0.59572  0.09045  1.0000
  H   H6859     1.0  0.86393  0.61509  0.07950  1.0000
  H   H6860     1.0  0.87139  0.59887  0.07327  1.0000
  H   H6861     1.0  0.88789  0.64777  0.16440  1.0000
  H   H6862     1.0  0.89380  0.64070  0.19590  1.0000
  H   H6863     1.0  0.90100  0.63528  0.16411  1.0000
  N   N216      1.0  0.89830  0.74403  0.38722  1.0000
  C   C3850     1.0  0.91170  0.74645  0.40043  1.0000
  C   C3851     1.0  0.88589  0.75038  0.40208  1.0000
  C   C3852     1.0  0.89167  0.72702  0.39039  1.0000
  C   C3853     1.0  0.90331  0.71791  0.37996  1.0000
  C   C3854     1.0  0.90849  0.73718  0.43184  1.0000
  N   N217      1.0  0.80417  0.70221  0.23460  1.0000
  C   C3855     1.0  0.92298  0.74026  0.44256  1.0000
  H   H6864     1.0  0.81553  0.81175  0.14929  1.0000
  H   H6865     1.0  0.91562  0.75891  0.39990  1.0000
  H   H6866     1.0  0.92189  0.74382  0.38778  1.0000
  H   H6867     1.0  0.89080  0.76236  0.40331  1.0000
  H   H6868     1.0  0.88106  0.74343  0.42449  1.0000
  H   H6869     1.0  0.88563  0.72097  0.41284  1.0000
  H   H6870     1.0  0.91257  0.71836  0.39117  1.0000
  H   H6871     1.0  0.89941  0.74062  0.44574  1.0000
  H   H6872     1.0  0.90472  0.72449  0.43462  1.0000
  H   H6873     1.0  0.80709  0.82660  0.20011  1.0000
  H   H6874     1.0  0.96431  0.73323  0.11387  1.0000
  H   H6875     1.0  0.82243  0.67022  0.19773  1.0000
  H   H6876     1.0  0.93237  0.73652  0.43002  1.0000
  H   H6877     1.0  0.79460  0.96528  0.16318  1.0000
  H   H6878     1.0  0.87937  0.87598  0.98337  1.0000
  H   H6879     1.0  0.86539  0.73846  0.39148  1.0000
  H   H6880     1.0  0.84934  0.73897  0.23310  1.0000
  C   C3856     1.0  0.79757  0.75831  0.24463  1.0000
  C   C3857     1.0  0.98282  0.50569  0.27032  1.0000
  H   H6881     1.0  0.96854  0.78623  0.04611  1.0000
  H   H6882     1.0  0.78346  0.63216  0.31296  1.0000
  H   H6883     1.0  0.91375  0.51623  0.14734  1.0000
  H   H6884     1.0  0.82558  0.81082  0.10064  1.0000
  S   S862      1.0  0.97534  0.77446  0.17113  1.0000
  H   H6885     1.0  0.93527  0.50059  0.28157  1.0000
  H   H6886     1.0  0.91486  0.51066  0.06867  1.0000
  S   S863      1.0  0.79779  0.63734  0.25232  1.0000
  C   C3858     1.0  0.88651  0.50601  0.25446  1.0000
  C   C3859     1.0  0.96860  0.77427  0.05709  1.0000
  C   C3860     1.0  0.82754  0.81838  0.13766  1.0000
  H   H6887     1.0  0.87533  0.75696  0.36670  1.0000
  C   C3861     1.0  0.81656  0.49166  0.01933  1.0000
  C   C3862     1.0  0.80307  0.64589  0.27895  1.0000
  H   H6888     1.0  0.79587  0.76123  0.32419  1.0000
  H   H6889     1.0  0.90322  0.84565  0.03471  1.0000
  H   H6890     1.0  0.81160  0.58843  0.14231  1.0000
  C   C3863     1.0  0.80450  0.95252  0.08697  1.0000
  H   H6891     1.0  0.89472  0.86148  0.03924  1.0000
  C   C3864     1.0  0.90260  0.50901  0.16027  1.0000
  N   N218      1.0  0.84848  0.83508  0.05679  1.0000
  C   C3865     1.0  0.84704  0.82011  0.04802  1.0000
  C   C3866     1.0  0.84566  0.83125  0.08858  1.0000
  C   C3867     1.0  0.83677  0.84302  0.04724  1.0000
  C   C3868     1.0  0.86434  0.84590  0.04337  1.0000
  C   C3869     1.0  0.87814  0.83907  0.04790  1.0000
  C   C3870     1.0  0.85193  0.82179  0.01574  1.0000
  C   C3871     1.0  0.83565  0.85806  0.05650  1.0000
  C   C3872     1.0  0.82897  0.82205  0.10586  1.0000
  C   C3873     1.0  0.78674  0.78680  0.29684  1.0000
  C   C3874     1.0  0.89348  0.85081  0.03161  1.0000
  H   H6892     1.0  0.80305  0.54138  0.12040  1.0000
  C   C3875     1.0  0.82294  0.86458  0.04670  1.0000
  H   H6893     1.0  0.83491  0.81302  0.05562  1.0000
  H   H6894     1.0  0.85372  0.81275  0.05840  1.0000
  H   H6895     1.0  0.85347  0.82416  0.09548  1.0000
  H   H6896     1.0  0.84871  0.84199  0.09565  1.0000
  H   H6897     1.0  0.82512  0.83488  0.05458  1.0000
  H   H6898     1.0  0.83925  0.84629  0.02378  1.0000
  H   H6899     1.0  0.86595  0.85051  0.02017  1.0000
  H   H6900     1.0  0.86561  0.85631  0.05179  1.0000
  H   H6901     1.0  0.87795  0.82844  0.04042  1.0000
  H   H6902     1.0  0.87800  0.83613  0.07065  1.0000
  H   H6903     1.0  0.78821  0.55896  0.13941  1.0000
  C   C3876     1.0  0.88077  0.88868  0.98017  1.0000
  H   H6904     1.0  0.85965  0.66791  0.44624  1.0000
  H   H6905     1.0  0.81148  0.94444  0.09362  1.0000
  C   C3877     1.0  0.90243  0.50209  0.25066  1.0000
  C   C3878     1.0  0.83666  0.66670  0.47041  1.0000
  C   C3879     1.0  0.91418  0.62233  0.01227  1.0000
  Fe  Fe433     1.0  0.97925  0.66531  0.05039  1.0000
  H   H6906     1.0  0.95228  0.75518  0.09061  1.0000
  H   H6907     1.0  0.80492  0.67893  0.23229  1.0000
  C   C3880     1.0  0.80752  0.67870  0.47843  1.0000
  H   H6908     1.0  0.81825  0.72265  0.20169  1.0000
  C   C3881     1.0  0.82887  0.72100  0.23720  1.0000
  C   C3882     1.0  0.90173  0.49517  0.17998  1.0000
  H   H6909     1.0  0.89058  0.62515  0.02167  1.0000
  H   H6910     1.0  0.80582  0.61529  0.38631  1.0000
  H   H6911     1.0  0.80556  0.96358  0.12050  1.0000
  C   C3883     1.0  0.82272  0.69437  0.19665  1.0000
  C   C3884     1.0  0.86248  0.71495  0.46980  1.0000
  S   S864      1.0  0.79318  0.78326  0.10722  1.0000
  C   C3885     1.0  0.97551  0.81607  0.07040  1.0000
  H   H6912     1.0  0.88809  0.51814  0.25654  1.0000
  H   H6913     1.0  0.92361  0.49201  0.34634  1.0000
  H   H6914     1.0  0.84110  0.52036  0.26102  1.0000
  H   H6915     1.0  0.87324  0.71154  0.46765  1.0000
  H   H6916     1.0  0.83920  0.68096  0.20568  1.0000
  H   H6917     1.0  0.83173  0.70547  0.19086  1.0000
  H   H6918     1.0  0.96958  0.76743  0.04123  1.0000
  H   H6919     1.0  0.86219  0.51330  0.28327  1.0000
  H   H6920     1.0  0.84477  0.82798  0.00455  1.0000
  H   H6921     1.0  0.92700  0.75280  0.44122  1.0000
  H   H6922     1.0  0.79496  0.56471  0.44205  1.0000
  H   H6923     1.0  0.81683  0.68969  0.46905  1.0000
  H   H6924     1.0  0.82405  0.72710  0.47715  1.0000
  H   H6925     1.0  0.84017  0.49767  0.10026  1.0000
  C   C3886     1.0  0.83093  0.68169  0.19230  1.0000
  H   H6926     1.0  0.78895  0.82367  0.24512  1.0000
  C   C3887     1.0  0.92619  0.59868  0.98263  1.0000
  C   C3888     1.0  0.98209  0.65925  0.98323  1.0000
  C   C3889     1.0  0.88203  0.56158  0.98145  1.0000
  H   H6927     1.0  0.96229  0.49477  0.25956  1.0000
  H   H6928     1.0  0.88230  0.49965  0.35779  1.0000
  H   H6929     1.0  0.90586  0.49957  0.27079  1.0000
  H   H6930     1.0  0.85386  0.80762  0.98612  1.0000
  H   H6931     1.0  0.78960  0.67258  0.27618  1.0000
  C   C3890     1.0  0.86629  0.49196  0.33370  1.0000
  C   C3891     1.0  0.85313  0.50267  0.25319  1.0000
  H   H6932     1.0  0.78673  0.83352  0.05823  1.0000
  H   H6933     1.0  0.86915  0.89094  0.98505  1.0000
  H   H6934     1.0  0.79377  0.49713  0.07720  1.0000
  H   H6935     1.0  0.80796  0.72678  0.23187  1.0000
  H   H6936     1.0  0.97516  0.63877  0.01823  1.0000
  C   C3892     1.0  0.79766  0.69804  0.26626  1.0000
  H   H6937     1.0  0.97972  0.76376  0.08771  1.0000
  C   C3893     1.0  0.78728  0.95368  0.17635  1.0000
  H   H6938     1.0  0.94696  0.64536  0.98009  1.0000
  H   H6939     1.0  0.96844  0.62078  0.98907  1.0000
  H   H6940     1.0  0.81270  0.52307  0.99139  1.0000
  H   H6941     1.0  0.78522  0.54541  0.44203  1.0000
  C   C3894     1.0  0.98228  0.70673  0.14131  1.0000
  H   H6942     1.0  0.98170  0.78373  0.08352  1.0000
  H   H6943     1.0  0.87101  0.53819  0.98297  1.0000
  H   H6944     1.0  0.79297  0.70746  0.27260  1.0000
  H   H6945     1.0  0.79945  0.95485  0.22320  1.0000
  H   H6946     1.0  0.78483  0.68941  0.22306  1.0000
  C   C3895     1.0  0.98201  0.81223  0.09333  1.0000
  H   H6947     1.0  0.78426  0.58322  0.14382  1.0000
  H   H6948     1.0  0.83815  0.79892  0.01745  1.0000
  H   H6949     1.0  0.78651  0.96496  0.23915  1.0000
  H   H6950     1.0  0.78463  0.78861  0.34028  1.0000
  H   H6951     1.0  0.97994  0.51676  0.26841  1.0000
  C   C3896     1.0  0.97758  0.73591  0.14435  1.0000
  H   H6952     1.0  0.97557  0.74706  0.14565  1.0000
  S   S865      1.0  0.97592  0.83006  0.01589  1.0000
  C   C3897     1.0  0.78393  0.77941  0.32886  1.0000
  H   H6953     1.0  0.78625  0.72411  0.21872  1.0000
  S   S866      1.0  0.91882  0.48966  0.18300  1.0000
  C   C3898     1.0  0.97254  0.63314  0.97934  1.0000
  H   H6954     1.0  0.79525  0.84422  0.85013  1.0000
  H   H6955     1.0  0.90121  0.52425  0.65429  1.0000
  H   H6956     1.0  0.91562  0.53916  0.62760  1.0000
  H   H6957     1.0  0.83060  0.51483  0.95651  1.0000
  C   C3899     1.0  0.97996  0.58871  0.77466  1.0000
  Fe  Fe434     1.0  0.88446  0.56978  0.75840  1.0000
  S   S867      1.0  0.86195  0.57623  0.76877  1.0000
  S   S868      1.0  0.90819  0.58540  0.75261  1.0000
  Fe  Fe435     1.0  0.86887  0.53802  0.75267  1.0000
  S   S869      1.0  0.84513  0.54204  0.76200  1.0000
  S   S870      1.0  0.87335  0.51459  0.75173  1.0000
  Fe  Fe436     1.0  0.85650  0.56608  0.73366  1.0000
  S   S871      1.0  0.84718  0.58077  0.70203  1.0000
  Fe  Fe437     1.0  0.85245  0.55174  0.79617  1.0000
  S   S872      1.0  0.83543  0.54606  0.83883  1.0000
  S   S873      1.0  0.87977  0.56126  0.72117  1.0000
  S   S874      1.0  0.87544  0.54615  0.78891  1.0000
  Fe  Fe438     1.0  0.94544  0.63052  0.84885  1.0000
  S   S875      1.0  0.96612  0.62202  0.85556  1.0000
  S   S876      1.0  0.92232  0.61464  0.85204  1.0000
  Fe  Fe439     1.0  0.96063  0.66362  0.84877  1.0000
  S   S877      1.0  0.84959  0.95969  0.96475  1.0000
  S   S878      1.0  0.95558  0.68655  0.85154  1.0000
  H   H6958     1.0  0.80965  0.59138  0.71322  1.0000
  H   H6959     1.0  0.83493  0.78852  0.72923  1.0000
  Fe  Fe440     1.0  0.96713  0.63629  0.88688  1.0000
  S   S879      1.0  0.97044  0.62594  0.92963  1.0000
  S   S880      1.0  0.95905  0.65179  0.81396  1.0000
  S   S881      1.0  0.94536  0.64298  0.88302  1.0000
  S   S882      1.0  0.82470  0.98889  0.94216  1.0000
  S   S883      1.0  0.95706  0.77338  0.75875  1.0000
  C   C3900     1.0  0.81376  0.68753  0.53426  1.0000
  C   C3901     1.0  0.82247  0.98600  0.84313  1.0000
  S   S884      1.0  0.96815  0.80486  0.70624  1.0000
  Fe  Fe441     1.0  0.97241  0.79768  0.74979  1.0000
  S   S885      1.0  0.97194  0.81561  0.77650  1.0000
  Fe  Fe442     1.0  0.95443  0.77992  0.71391  1.0000
  S   S886      1.0  0.93026  0.77074  0.70684  1.0000
  C   C3902     1.0  0.80192  0.90241  0.77868  1.0000
  Fe  Fe443     1.0  0.84468  0.70054  0.62563  1.0000
  S   S887      1.0  0.83602  0.71504  0.59340  1.0000
  S   S888      1.0  0.82931  0.67626  0.64914  1.0000
  Fe  Fe444     1.0  0.87444  0.72663  0.61713  1.0000
  S   S889      1.0  0.86769  0.74233  0.58293  1.0000
  S   S890      1.0  0.89808  0.73469  0.62703  1.0000
  Fe  Fe445     1.0  0.84388  0.73434  0.61299  1.0000
  S   S891      1.0  0.82984  0.75182  0.62005  1.0000
  Fe  Fe446     1.0  0.86036  0.72155  0.56633  1.0000
  S   S892      1.0  0.85079  0.71943  0.64760  1.0000
  S   S893      1.0  0.86889  0.70620  0.59825  1.0000
  Fe  Fe447     1.0  0.97407  0.86999  0.93140  1.0000
  S   S894      1.0  0.95452  0.88057  0.92090  1.0000
  S   S895      1.0  0.97156  0.84437  0.94177  1.0000
  H   H6960     1.0  0.79347  0.69262  0.49744  1.0000
  C   C3903     1.0  0.80991  0.98524  0.80411  1.0000
  S   S896      1.0  0.80274  0.97466  0.78107  1.0000
  H   H6961     1.0  0.79279  0.73156  0.58345  1.0000
  H   H6962     1.0  0.88927  0.52098  0.61398  1.0000
  H   H6963     1.0  0.86986  0.89732  0.80165  1.0000
  C   C3904     1.0  0.97461  0.73379  0.68417  1.0000
  H   H6964     1.0  0.84385  0.87554  0.85210  1.0000
  H   H6965     1.0  0.96591  0.71366  0.71954  1.0000
  C   C3905     1.0  0.80999  0.90389  0.90803  1.0000
  H   H6966     1.0  0.93720  0.62043  0.95060  1.0000
  C   C3906     1.0  0.95523  0.80641  0.93218  1.0000
  S   S897      1.0  0.80204  0.62806  0.58450  1.0000
  C   C3907     1.0  0.90067  0.52123  0.60065  1.0000
  C   C3908     1.0  0.91121  0.51642  0.61907  1.0000
  S   S898      1.0  0.79471  0.75570  0.74104  1.0000
  H   H6967     1.0  0.90609  0.50406  0.63106  1.0000
  Fe  Fe448     1.0  0.86234  0.85314  0.94001  1.0000
  S   S899      1.0  0.86189  0.86692  0.89747  1.0000
  H   H6968     1.0  0.81614  0.61764  0.68034  1.0000
  H   H6969     1.0  0.85891  0.52000  0.96268  1.0000
  S   S900      1.0  0.82508  0.86301  0.92389  1.0000
  Fe  Fe449     1.0  0.83946  0.84937  0.90270  1.0000
  S   S901      1.0  0.83559  0.84269  0.86250  1.0000
  Fe  Fe450     1.0  0.84738  0.87954  0.92159  1.0000
  S   S902      1.0  0.85141  0.90556  0.90257  1.0000
  S   S903      1.0  0.84098  0.83443  0.94375  1.0000
  H   H6970     1.0  0.95004  0.87609  0.82972  1.0000
  H   H6971     1.0  0.79875  0.90326  0.92239  1.0000
  C   C3909     1.0  0.80806  0.81812  0.82378  1.0000
  C   C3910     1.0  0.82013  0.82843  0.82926  1.0000
  C   C3911     1.0  0.82010  0.82928  0.85706  1.0000
  C   C3912     1.0  0.80778  0.81966  0.87939  1.0000
  H   H6972     1.0  0.87930  0.91624  0.94471  1.0000
  H   H6973     1.0  0.80831  0.81758  0.80231  1.0000
  H   H6974     1.0  0.82959  0.83578  0.81181  1.0000
  H   H6975     1.0  0.80755  0.82015  0.90086  1.0000
  H   H6976     1.0  0.83463  0.77221  0.69549  1.0000
  C   C3913     1.0  0.84867  0.94452  0.94749  1.0000
  C   C3914     1.0  0.84994  0.94732  0.91842  1.0000
  C   C3915     1.0  0.85047  0.93517  0.90514  1.0000
  C   C3916     1.0  0.84952  0.92008  0.92078  1.0000
  C   C3917     1.0  0.84784  0.91716  0.94997  1.0000
  H   H6977     1.0  0.97325  0.61051  0.73425  1.0000
  H   H6978     1.0  0.85090  0.95892  0.90607  1.0000
  H   H6979     1.0  0.85179  0.93756  0.88254  1.0000
  H   H6980     1.0  0.89877  0.51299  0.58747  1.0000
  S   S904      1.0  0.79324  0.98203  0.70300  1.0000
  H   H6981     1.0  0.89371  0.91916  0.83835  1.0000
  H   H6982     1.0  0.91287  0.91380  0.86602  1.0000
  H   H6983     1.0  0.81928  0.86731  0.83214  1.0000
  C   C3918     1.0  0.87399  0.55480  0.88506  1.0000
  H   H6984     1.0  0.80433  0.68207  0.57992  1.0000
  C   C3919     1.0  0.82859  0.67118  0.49687  1.0000
  H   H6985     1.0  0.89680  0.96714  0.93544  1.0000
  C   C3920     1.0  0.93464  0.87067  0.93027  1.0000
  C   C3921     1.0  0.92865  0.85631  0.95050  1.0000
  C   C3922     1.0  0.79039  0.85042  0.86524  1.0000
  C   C3923     1.0  0.90272  0.85560  0.94390  1.0000
  C   C3924     1.0  0.90875  0.86975  0.92322  1.0000
  C   C3925     1.0  0.92459  0.87729  0.91659  1.0000
  H   H6986     1.0  0.91291  0.94958  0.89829  1.0000
  Fe  Fe451     1.0  0.84740  0.98427  0.94718  1.0000
  H   H6987     1.0  0.90119  0.87479  0.91229  1.0000
  H   H6988     1.0  0.92917  0.88822  0.90048  1.0000
  H   H6989     1.0  0.81146  0.70251  0.56237  1.0000
  C   C3926     1.0  0.81953  0.75244  0.65365  1.0000
  C   C3927     1.0  0.81953  0.74193  0.67843  1.0000
  C   C3928     1.0  0.81159  0.74297  0.70492  1.0000
  C   C3929     1.0  0.80358  0.75449  0.70694  1.0000
  C   C3930     1.0  0.80333  0.76485  0.68212  1.0000
  C   C3931     1.0  0.81130  0.76381  0.65557  1.0000
  H   H6990     1.0  0.82583  0.73317  0.67714  1.0000
  H   H6991     1.0  0.81182  0.73495  0.72407  1.0000
  H   H6992     1.0  0.91711  0.55670  0.70562  1.0000
  H   H6993     1.0  0.91624  0.64826  0.96528  1.0000
  C   C3932     1.0  0.92612  0.92398  0.93670  1.0000
  H   H6994     1.0  0.79409  0.62891  0.64411  1.0000
  C   C3933     1.0  0.81516  0.50482  0.89704  1.0000
  H   H6995     1.0  0.83414  0.68371  0.49360  1.0000
  H   H6996     1.0  0.87177  0.88191  0.82902  1.0000
  C   C3934     1.0  0.92176  0.76067  0.68422  1.0000
  C   C3935     1.0  0.93048  0.75774  0.66034  1.0000
  C   C3936     1.0  0.92307  0.74997  0.64307  1.0000
  C   C3937     1.0  0.90682  0.74500  0.64918  1.0000
  C   C3938     1.0  0.89815  0.74782  0.67317  1.0000
  C   C3939     1.0  0.90554  0.75554  0.69049  1.0000
  H   H6997     1.0  0.94295  0.76156  0.65502  1.0000
  H   H6998     1.0  0.93001  0.74783  0.62474  1.0000
  H   H6999     1.0  0.88576  0.74380  0.67860  1.0000
  H   H7000     1.0  0.89863  0.75756  0.70898  1.0000
  C   C3940     1.0  0.97409  0.63894  0.95031  1.0000
  S   S905      1.0  0.84927  0.86688  0.96391  1.0000
  C   C3941     1.0  0.78940  0.71520  0.62407  1.0000
  C   C3942     1.0  0.85710  0.78961  0.67996  1.0000
  C   C3943     1.0  0.90517  0.61903  0.97050  1.0000
  H   H7001     1.0  0.84879  0.78029  0.63575  1.0000
  C   C3944     1.0  0.90391  0.94172  0.91722  1.0000
  C   C3945     1.0  0.96311  0.70261  0.82175  1.0000
  C   C3946     1.0  0.96072  0.71712  0.82379  1.0000
  C   C3947     1.0  0.96734  0.73033  0.80078  1.0000
  H   H7002     1.0  0.79091  0.70575  0.61377  1.0000
  C   C3948     1.0  0.97253  0.59775  0.79455  1.0000
  C   C3949     1.0  0.97158  0.70120  0.79624  1.0000
  H   H7003     1.0  0.95404  0.71820  0.84346  1.0000
  H   H7004     1.0  0.96590  0.74159  0.80278  1.0000
  C   C3950     1.0  0.84754  0.92936  0.96318  1.0000
  C   C3951     1.0  0.85642  0.71928  0.49433  1.0000
  C   C3952     1.0  0.83209  0.52697  0.85968  1.0000
  C   C3953     1.0  0.81835  0.52030  0.88106  1.0000
  H   H7005     1.0  0.86509  0.56513  0.94061  1.0000
  C   C3954     1.0  0.84293  0.51832  0.85518  1.0000
  H   H7006     1.0  0.80993  0.52695  0.88468  1.0000
  C   C3955     1.0  0.98301  0.80892  0.82501  1.0000
  H   H7007     1.0  0.85359  0.52334  0.83883  1.0000
  C   C3956     1.0  0.91201  0.59369  0.78012  1.0000
  C   C3957     1.0  0.92702  0.60231  0.77766  1.0000
  C   C3958     1.0  0.93035  0.60894  0.79941  1.0000
  C   C3959     1.0  0.91868  0.60688  0.82386  1.0000
  C   C3960     1.0  0.90368  0.59831  0.82624  1.0000
  C   C3961     1.0  0.90033  0.59185  0.80436  1.0000
  H   H7008     1.0  0.93609  0.60386  0.75886  1.0000
  H   H7009     1.0  0.94191  0.61559  0.79734  1.0000
  H   H7010     1.0  0.89459  0.59676  0.84499  1.0000
  H   H7011     1.0  0.88870  0.58552  0.80614  1.0000
  C   C3962     1.0  0.86836  0.55387  0.94511  1.0000
  H   H7012     1.0  0.82024  0.56311  0.75293  1.0000
  H   H7013     1.0  0.83092  0.51151  0.81031  1.0000
  H   H7014     1.0  0.81112  0.69122  0.73914  1.0000
  H   H7015     1.0  0.84236  0.63698  0.68788  1.0000
  C   C3963     1.0  0.84172  0.53867  0.95548  1.0000
  H   H7016     1.0  0.79702  0.61953  0.69398  1.0000
  C   C3964     1.0  0.90845  0.61991  0.93841  1.0000
  H   H7017     1.0  0.86124  0.61862  0.63770  1.0000
  C   C3965     1.0  0.87270  0.50739  0.72197  1.0000
  C   C3966     1.0  0.86838  0.51534  0.69898  1.0000
  C   C3967     1.0  0.86804  0.50921  0.67553  1.0000
  H   H7018     1.0  0.80428  0.49962  0.91260  1.0000
  H   H7019     1.0  0.86522  0.52614  0.69932  1.0000
  C   C3968     1.0  0.79908  0.56919  0.77008  1.0000
  H   H7020     1.0  0.85393  0.76289  0.71891  1.0000
  C   C3969     1.0  0.81438  0.57567  0.65920  1.0000
  C   C3970     1.0  0.82699  0.58172  0.66894  1.0000
  C   C3971     1.0  0.83211  0.57216  0.68890  1.0000
  C   C3972     1.0  0.82478  0.55628  0.69857  1.0000
  C   C3973     1.0  0.81215  0.55016  0.68873  1.0000
  H   H7021     1.0  0.81048  0.58321  0.64394  1.0000
  H   H7022     1.0  0.83271  0.59388  0.66114  1.0000
  H   H7023     1.0  0.82874  0.54877  0.71375  1.0000
  H   H7024     1.0  0.81120  0.77197  0.63646  1.0000
  C   C3974     1.0  0.80946  0.64113  0.60329  1.0000
  C   C3975     1.0  0.80348  0.63893  0.63234  1.0000
  C   C3976     1.0  0.80963  0.64981  0.64610  1.0000
  C   C3977     1.0  0.82163  0.66308  0.63093  1.0000
  C   C3978     1.0  0.82760  0.66526  0.60193  1.0000
  C   C3979     1.0  0.82170  0.65424  0.58836  1.0000
  H   H7025     1.0  0.88537  0.78304  0.69946  1.0000
  H   H7026     1.0  0.80496  0.64802  0.66855  1.0000
  H   H7027     1.0  0.83699  0.67529  0.59003  1.0000
  H   H7028     1.0  0.82679  0.65581  0.56616  1.0000
  C   C3980     1.0  0.83812  0.89328  0.82130  1.0000
  H   H7029     1.0  0.79762  0.59284  0.68893  1.0000
  N   N219      1.0  0.86540  0.78124  0.66121  1.0000
  H   H7030     1.0  0.79666  0.50760  0.81141  1.0000
  H   H7031     1.0  0.85637  0.67312  0.71290  1.0000
  H   H7032     1.0  0.92244  0.51720  0.60460  1.0000
  H   H7033     1.0  0.80121  0.89756  0.83236  1.0000
  C   C3981     1.0  0.89157  0.90804  0.85466  1.0000
  C   C3982     1.0  0.79651  0.86797  0.85273  1.0000
  H   H7034     1.0  0.97548  0.63800  0.71045  1.0000
  C   C3983     1.0  0.80616  0.61396  0.69929  1.0000
  H   H7035     1.0  0.80521  0.58170  0.76336  1.0000
  S   S906      1.0  0.79046  0.55233  0.65848  1.0000
  H   H7036     1.0  0.87958  0.56650  0.88663  1.0000
  H   H7037     1.0  0.86616  0.56471  0.84860  1.0000
  H   H7038     1.0  0.81685  0.89820  0.92092  1.0000
  C   C3984     1.0  0.93760  0.65118  0.97821  1.0000
  H   H7039     1.0  0.83178  0.66476  0.51547  1.0000
  H   H7040     1.0  0.78936  0.54603  0.48877  1.0000
  C   C3985     1.0  0.89599  0.92292  0.89124  1.0000
  H   H7041     1.0  0.87279  0.60697  0.66555  1.0000
  H   H7042     1.0  0.94081  0.53666  0.61557  1.0000
  H   H7043     1.0  0.79331  0.87081  0.83241  1.0000
  C   C3986     1.0  0.91976  0.50780  0.67427  1.0000
  S   S907      1.0  0.97540  0.77282  0.69512  1.0000
  H   H7044     1.0  0.86774  0.54496  0.85183  1.0000
  H   H7045     1.0  0.83818  0.54977  0.95398  1.0000
  C   C3987     1.0  0.88956  0.67178  0.59590  1.0000
  H   H7046     1.0  0.81620  0.91632  0.89842  1.0000
  H   H7047     1.0  0.87465  0.67134  0.63523  1.0000
  H   H7048     1.0  0.94680  0.92057  0.94933  1.0000
  H   H7049     1.0  0.79801  0.72452  0.65593  1.0000
  C   C3988     1.0  0.95508  0.53378  0.64402  1.0000
  H   H7050     1.0  0.87620  0.52991  0.93663  1.0000
  H   H7051     1.0  0.87036  0.79716  0.57396  1.0000
  C   C3989     1.0  0.89391  0.61250  0.93077  1.0000
  C   C3990     1.0  0.93143  0.61671  0.97367  1.0000
  H   H7052     1.0  0.86378  0.79780  0.62453  1.0000
  C   C3991     1.0  0.97273  0.49682  0.60887  1.0000
  C   C3992     1.0  0.88899  0.94753  0.91878  1.0000
  C   C3993     1.0  0.97829  0.71441  0.77335  1.0000
  H   H7053     1.0  0.87174  0.77912  0.56556  1.0000
  H   H7054     1.0  0.91161  0.78782  0.66493  1.0000
  C   C3994     1.0  0.79015  0.56467  0.74859  1.0000
  H   H7055     1.0  0.79016  0.89590  0.79192  1.0000
  C   C3995     1.0  0.87306  0.55640  0.85456  1.0000
  H   H7056     1.0  0.88927  0.62351  0.65365  1.0000
  H   H7057     1.0  0.98218  0.79734  0.82228  1.0000
  C   C3996     1.0  0.87671  0.49337  0.72139  1.0000
  H   H7058     1.0  0.92923  0.93634  0.93707  1.0000
  H   H7059     1.0  0.88317  0.92055  0.89715  1.0000
  C   C3997     1.0  0.84944  0.88713  0.83723  1.0000
  H   H7060     1.0  0.82566  0.90297  0.77679  1.0000
  H   H7061     1.0  0.86768  0.75810  0.66045  1.0000
  H   H7062     1.0  0.85219  0.55841  0.90497  1.0000
  H   H7063     1.0  0.81259  0.88412  0.79250  1.0000
  H   H7064     1.0  0.80641  0.53791  0.69637  1.0000
  H   H7065     1.0  0.90005  0.93390  0.87387  1.0000
  H   H7066     1.0  0.82226  0.50967  0.78167  1.0000
  H   H7067     1.0  0.96902  0.88105  0.83546  1.0000
  H   H7068     1.0  0.82653  0.61551  0.63013  1.0000
  C   C3998     1.0  0.93986  0.59169  0.97541  1.0000
  H   H7069     1.0  0.85339  0.89521  0.84956  1.0000
  H   H7070     1.0  0.84853  0.75923  0.67129  1.0000
  H   H7071     1.0  0.83519  0.78870  0.66765  1.0000
  H   H7072     1.0  0.82821  0.52941  0.92803  1.0000
  H   H7073     1.0  0.88725  0.79757  0.63703  1.0000
  H   H7074     1.0  0.95125  0.81042  0.95125  1.0000
  H   H7075     1.0  0.91250  0.63220  0.92561  1.0000
  H   H7076     1.0  0.95507  0.54479  0.65014  1.0000
  H   H7077     1.0  0.82141  0.71070  0.71813  1.0000
  H   H7078     1.0  0.88303  0.89229  0.93569  1.0000
  H   H7079     1.0  0.78676  0.62171  0.53691  1.0000
  H   H7080     1.0  0.81007  0.53735  0.96270  1.0000
  C   C3999     1.0  0.90035  0.91029  0.87696  1.0000
  C   C4000     1.0  0.80709  0.51173  0.81854  1.0000
  C   C4001     1.0  0.83749  0.62097  0.61340  1.0000
  H   H7081     1.0  0.91110  0.80778  0.65276  1.0000
  H   H7082     1.0  0.88869  0.77833  0.64960  1.0000
  H   H7083     1.0  0.78654  0.62416  0.50016  1.0000
  H   H7084     1.0  0.83936  0.66251  0.70574  1.0000
  H   H7085     1.0  0.92107  0.54038  0.72823  1.0000
  H   H7086     1.0  0.88198  0.64168  0.62138  1.0000
  H   H7087     1.0  0.88523  0.80264  0.68368  1.0000
  C   C4002     1.0  0.81350  0.89963  0.82110  1.0000
  C   C4003     1.0  0.85321  0.73995  0.71483  1.0000
  H   H7088     1.0  0.79333  0.69193  0.55916  1.0000
  H   H7089     1.0  0.85404  0.49436  0.95286  1.0000
  H   H7090     1.0  0.84153  0.53413  0.97806  1.0000
  H   H7091     1.0  0.96978  0.54785  0.60277  1.0000
  Fe  Fe452     1.0  0.78498  0.60391  0.60253  1.0000
  H   H7092     1.0  0.83759  0.72691  0.51556  1.0000
  H   H7093     1.0  0.96866  0.60724  0.78243  1.0000
  C   C4004     1.0  0.78517  0.90177  0.65986  1.0000
  H   H7094     1.0  0.92602  0.93007  0.89246  1.0000
  C   C4005     1.0  0.91272  0.54414  0.71676  1.0000
  H   H7095     1.0  0.86050  0.87720  0.80508  1.0000
  C   C4006     1.0  0.86903  0.54989  0.97649  1.0000
  C   C4007     1.0  0.90680  0.79725  0.67094  1.0000
  H   H7096     1.0  0.87252  0.75940  0.70626  1.0000
  H   H7097     1.0  0.94153  0.51714  0.62791  1.0000
  N   N220      1.0  0.93462  0.71730  0.74050  1.0000
  C   C4008     1.0  0.92639  0.70831  0.72349  1.0000
  C   C4009     1.0  0.93804  0.70590  0.76353  1.0000
  C   C4010     1.0  0.92437  0.72664  0.75271  1.0000
  C   C4011     1.0  0.94964  0.72843  0.72231  1.0000
  C   C4012     1.0  0.96108  0.72122  0.70513  1.0000
  C   C4013     1.0  0.92392  0.71815  0.69626  1.0000
  C   C4014     1.0  0.92903  0.73345  0.77656  1.0000
  C   C4015     1.0  0.92371  0.69367  0.78443  1.0000
  C   C4016     1.0  0.92786  0.68488  0.81015  1.0000
  H   H7098     1.0  0.79789  0.71261  0.70189  1.0000
  C   C4017     1.0  0.91557  0.70773  0.68091  1.0000
  C   C4018     1.0  0.91884  0.74390  0.78533  1.0000
  H   H7099     1.0  0.91469  0.70140  0.73659  1.0000
  H   H7100     1.0  0.93243  0.69953  0.71774  1.0000
  H   H7101     1.0  0.94562  0.69914  0.75427  1.0000
  H   H7102     1.0  0.94486  0.71211  0.77566  1.0000
  H   H7103     1.0  0.91216  0.71967  0.76111  1.0000
  H   H7104     1.0  0.92401  0.73658  0.73572  1.0000
  H   H7105     1.0  0.94742  0.73820  0.70736  1.0000
  H   H7106     1.0  0.95603  0.73416  0.73553  1.0000
  H   H7107     1.0  0.95551  0.71423  0.69265  1.0000
  H   H7108     1.0  0.93765  0.67979  0.80358  1.0000
  H   H7109     1.0  0.91678  0.72615  0.70156  1.0000
  H   H7110     1.0  0.93505  0.72512  0.68124  1.0000
  H   H7111     1.0  0.94119  0.74040  0.76961  1.0000
  H   H7112     1.0  0.92773  0.72407  0.79576  1.0000
  H   H7113     1.0  0.91443  0.69904  0.79231  1.0000
  H   H7114     1.0  0.91898  0.68500  0.77376  1.0000
  H   H7115     1.0  0.93100  0.69282  0.82325  1.0000
  H   H7116     1.0  0.91778  0.67530  0.82342  1.0000
  S   S908      1.0  0.88280  0.84577  0.95359  1.0000
  H   H7117     1.0  0.92199  0.49974  0.66088  1.0000
  H   H7118     1.0  0.84111  0.49873  0.76513  1.0000
  C   C4019     1.0  0.94020  0.52769  0.63510  1.0000
  H   H7119     1.0  0.91440  0.71495  0.66098  1.0000
  H   H7120     1.0  0.92220  0.69936  0.67536  1.0000
  H   H7121     1.0  0.90382  0.70129  0.69427  1.0000
  H   H7122     1.0  0.90653  0.73729  0.79316  1.0000
  H   H7123     1.0  0.92238  0.74849  0.80253  1.0000
  H   H7124     1.0  0.92012  0.75393  0.76720  1.0000
  H   H7125     1.0  0.79948  0.90106  0.87440  1.0000
  C   C4020     1.0  0.78688  0.64517  0.51477  1.0000
  H   H7126     1.0  0.97320  0.68998  0.79439  1.0000
  C   C4021     1.0  0.81116  0.55999  0.77311  1.0000
  H   H7127     1.0  0.91113  0.79992  0.68900  1.0000
  H   H7128     1.0  0.87646  0.60211  0.71426  1.0000
  C   C4022     1.0  0.86377  0.88587  0.81684  1.0000
  H   H7129     1.0  0.81925  0.78917  0.71285  1.0000
  H   H7130     1.0  0.93328  0.80257  0.92291  1.0000
  H   H7131     1.0  0.84071  0.73744  0.71588  1.0000
  C   C4023     1.0  0.84241  0.72350  0.49692  1.0000
  C   C4024     1.0  0.96370  0.49412  0.66665  1.0000
  C   C4025     1.0  0.81655  0.97801  0.82467  1.0000
  C   C4026     1.0  0.83202  0.79252  0.70887  1.0000
  H   H7132     1.0  0.91764  0.59428  0.97154  1.0000
  C   C4027     1.0  0.91292  0.52676  0.63984  1.0000
  H   H7133     1.0  0.86012  0.78793  0.70057  1.0000
  C   C4028     1.0  0.90995  0.53453  0.69582  1.0000
  H   H7134     1.0  0.80641  0.66247  0.54842  1.0000
  H   H7135     1.0  0.88733  0.65081  0.64700  1.0000
  H   H7136     1.0  0.98063  0.60307  0.80550  1.0000
  C   C4029     1.0  0.88960  0.89711  0.94954  1.0000
  H   H7137     1.0  0.93411  0.53504  0.68610  1.0000
  H   H7138     1.0  0.90705  0.50425  0.68339  1.0000
  H   H7139     1.0  0.96015  0.49287  0.68916  1.0000
  C   C4030     1.0  0.85777  0.54856  0.90630  1.0000
  H   H7140     1.0  0.88030  0.94128  0.93906  1.0000
  H   H7141     1.0  0.81038  0.52464  0.81236  1.0000
  H   H7142     1.0  0.80882  0.68337  0.69531  1.0000
  H   H7143     1.0  0.85758  0.63972  0.60344  1.0000
  H   H7144     1.0  0.84335  0.61185  0.60900  1.0000
  H   H7145     1.0  0.90827  0.83786  0.97321  1.0000
  C   C4031     1.0  0.80684  0.55990  0.66924  1.0000
  H   H7146     1.0  0.81887  0.70266  0.67423  1.0000
  H   H7147     1.0  0.87567  0.63437  0.69256  1.0000
  H   H7148     1.0  0.85452  0.73548  0.73641  1.0000
  C   C4032     1.0  0.91816  0.92211  0.91262  1.0000
  C   C4033     1.0  0.81075  0.69586  0.69472  1.0000
  H   H7149     1.0  0.94913  0.92523  0.91160  1.0000
  H   H7150     1.0  0.82961  0.69463  0.71445  1.0000
  C   C4034     1.0  0.79571  0.80933  0.87390  1.0000
  H   H7151     1.0  0.88045  0.55623  0.93228  1.0000
  H   H7152     1.0  0.94510  0.59523  0.95218  1.0000
  H   H7153     1.0  0.93134  0.64371  0.94316  1.0000
  H   H7154     1.0  0.85339  0.78102  0.58385  1.0000
  C   C4035     1.0  0.80544  0.67170  0.53086  1.0000
  H   H7155     1.0  0.87271  0.66065  0.68276  1.0000
  C   C4036     1.0  0.80726  0.89565  0.88518  1.0000
  H   H7156     1.0  0.93853  0.90604  0.93364  1.0000
  C   C4037     1.0  0.89116  0.91481  0.94376  1.0000
  H   H7157     1.0  0.86729  0.52153  0.89905  1.0000
  H   H7158     1.0  0.88383  0.94582  0.90112  1.0000
  H   H7159     1.0  0.88164  0.54707  0.88951  1.0000
  N   N221      1.0  0.78704  0.70013  0.67576  1.0000
  H   H7160     1.0  0.88235  0.78164  0.60624  1.0000
  H   H7161     1.0  0.98127  0.57790  0.78821  1.0000
  H   H7162     1.0  0.80578  0.54730  0.77919  1.0000
  H   H7163     1.0  0.88486  0.56067  0.84015  1.0000
  H   H7164     1.0  0.88970  0.59999  0.94219  1.0000
  H   H7165     1.0  0.79346  0.84669  0.88554  1.0000
  H   H7166     1.0  0.78602  0.66737  0.62868  1.0000
  H   H7167     1.0  0.94948  0.58200  0.80704  1.0000
  C   C4038     1.0  0.88597  0.60924  0.69560  1.0000
  C   C4039     1.0  0.82271  0.89678  0.86425  1.0000
  C   C4040     1.0  0.82047  0.50581  0.80492  1.0000
  H   H7168     1.0  0.84829  0.49805  0.80772  1.0000
  C   C4041     1.0  0.86034  0.76382  0.67325  1.0000
  H   H7169     1.0  0.85878  0.61911  0.69896  1.0000
  H   H7170     1.0  0.89661  0.61352  0.90765  1.0000
  H   H7171     1.0  0.84439  0.61773  0.66369  1.0000
  C   C4042     1.0  0.94104  0.91865  0.93243  1.0000
  C   C4043     1.0  0.82878  0.52664  0.95036  1.0000
  C   C4044     1.0  0.80467  0.65141  0.50533  1.0000
  H   H7172     1.0  0.92898  0.54803  0.66005  1.0000
  H   H7173     1.0  0.89413  0.91865  0.96210  1.0000
  H   H7174     1.0  0.88800  0.68311  0.58502  1.0000
  Fe  Fe453     1.0  0.97991  0.64426  0.82342  1.0000
  H   H7175     1.0  0.81484  0.69706  0.51550  1.0000
  H   H7176     1.0  0.87417  0.50122  0.93303  1.0000
  H   H7177     1.0  0.83608  0.80538  0.70124  1.0000
  H   H7178     1.0  0.79969  0.98825  0.90298  1.0000
  N   N222      1.0  0.82177  0.89046  0.83890  1.0000
  H   H7179     1.0  0.97667  0.84342  0.79560  1.0000
  H   H7180     1.0  0.90454  0.52234  0.70822  1.0000
  S   S909      1.0  0.86705  0.71956  0.52051  1.0000
  C   C4045     1.0  0.92526  0.53594  0.67406  1.0000
  H   H7181     1.0  0.82553  0.68734  0.53667  1.0000
  N   N223      1.0  0.92473  0.52443  0.65640  1.0000
  C   C4046     1.0  0.96941  0.53743  0.61938  1.0000
  C   C4047     1.0  0.85202  0.66755  0.69738  1.0000
  H   H7182     1.0  0.90601  0.53309  0.58642  1.0000
  C   C4048     1.0  0.83921  0.78493  0.68683  1.0000
  C   C4049     1.0  0.88915  0.79237  0.67949  1.0000
  C   C4050     1.0  0.84791  0.63336  0.62232  1.0000
  H   H7183     1.0  0.92526  0.51117  0.71403  1.0000
  H   H7184     1.0  0.80796  0.71199  0.64250  1.0000
  Fe  Fe454     1.0  0.78752  0.97965  0.75038  1.0000
  H   H7185     1.0  0.90069  0.97182  0.89715  1.0000
  H   H7186     1.0  0.96942  0.52754  0.60976  1.0000
  H   H7187     1.0  0.85914  0.64712  0.71349  1.0000
  C   C4051     1.0  0.91278  0.84887  0.95731  1.0000
  C   C4052     1.0  0.81865  0.69828  0.71811  1.0000
  C   C4053     1.0  0.80017  0.59629  0.70773  1.0000
  H   H7188     1.0  0.91800  0.91027  0.91020  1.0000
  C   C4054     1.0  0.86603  0.78433  0.58163  1.0000
  C   C4055     1.0  0.86208  0.50031  0.93167  1.0000
  H   H7189     1.0  0.84102  0.64137  0.62846  1.0000
  H   H7190     1.0  0.80335  0.91502  0.77689  1.0000
  C   C4056     1.0  0.86135  0.78497  0.63315  1.0000
  C   C4057     1.0  0.83999  0.50306  0.87189  1.0000
  H   H7191     1.0  0.96147  0.57765  0.83086  1.0000
  C   C4058     1.0  0.94490  0.66771  0.95942  1.0000
  H   H7192     1.0  0.97999  0.53974  0.62707  1.0000
  H   H7193     1.0  0.84919  0.65316  0.65833  1.0000
  H   H7194     1.0  0.81680  0.56277  0.78972  1.0000
  H   H7195     1.0  0.90031  0.67401  0.60305  1.0000
  H   H7196     1.0  0.80946  0.64413  0.52052  1.0000
  H   H7197     1.0  0.97101  0.58467  0.76387  1.0000
  H   H7198     1.0  0.81843  0.91233  0.81750  1.0000
  H   H7199     1.0  0.95236  0.88016  0.86269  1.0000
  H   H7200     1.0  0.84860  0.49659  0.86877  1.0000
  H   H7201     1.0  0.86460  0.51532  0.65781  1.0000
  C   C4059     1.0  0.81419  0.89664  0.79149  1.0000
  C   C4060     1.0  0.79576  0.80845  0.84610  1.0000
  H   H7202     1.0  0.97832  0.63615  0.74547  1.0000
  H   H7203     1.0  0.79031  0.87368  0.86709  1.0000
  H   H7204     1.0  0.80432  0.50771  0.84198  1.0000
  H   H7205     1.0  0.86561  0.76550  0.61599  1.0000
  C   C4061     1.0  0.86962  0.77836  0.60986  1.0000
  H   H7206     1.0  0.83462  0.62639  0.59376  1.0000
  H   H7207     1.0  0.90093  0.89430  0.94626  1.0000
  H   H7208     1.0  0.86519  0.66219  0.61306  1.0000
  H   H7209     1.0  0.95305  0.59393  0.83056  1.0000
  H   H7210     1.0  0.89351  0.61825  0.70207  1.0000
  C   C4062     1.0  0.79528  0.70070  0.69898  1.0000
  C   C4063     1.0  0.88276  0.78716  0.65561  1.0000
  H   H7211     1.0  0.78454  0.55201  0.75685  1.0000
  H   H7212     1.0  0.95645  0.52514  0.66187  1.0000
  H   H7213     1.0  0.79742  0.68494  0.65438  1.0000
  H   H7214     1.0  0.85881  0.73370  0.70061  1.0000
  C   C4064     1.0  0.78633  0.68457  0.66917  1.0000
  H   H7215     1.0  0.85056  0.54014  0.89817  1.0000
  H   H7216     1.0  0.80407  0.51693  0.96502  1.0000
  S   S910      1.0  0.79061  0.58344  0.58758  1.0000
  C   C4065     1.0  0.80512  0.69117  0.56059  1.0000
  H   H7217     1.0  0.84333  0.90596  0.81152  1.0000
  H   H7218     1.0  0.87401  0.49599  0.81408  1.0000
  H   H7219     1.0  0.84766  0.51472  0.91895  1.0000
  H   H7220     1.0  0.86100  0.80238  0.67004  1.0000
  S   S911      1.0  0.79048  0.79718  0.75506  1.0000
  H   H7221     1.0  0.81712  0.86764  0.86769  1.0000
  C   C4066     1.0  0.86341  0.52708  0.94028  1.0000
  C   C4067     1.0  0.92559  0.64214  0.96582  1.0000
  H   H7222     1.0  0.87899  0.90360  0.86467  1.0000
  H   H7223     1.0  0.97043  0.74162  0.66893  1.0000
  H   H7224     1.0  0.82950  0.90917  0.85714  1.0000
  H   H7225     1.0  0.81026  0.73110  0.59439  1.0000
  H   H7226     1.0  0.80999  0.61800  0.71676  1.0000
  H   H7227     1.0  0.85963  0.49313  0.91695  1.0000
  C   C4068     1.0  0.85965  0.51639  0.92080  1.0000
  N   N224      1.0  0.85777  0.54171  0.93656  1.0000
  C   C4069     1.0  0.87230  0.49530  0.67477  1.0000
  C   C4070     1.0  0.95829  0.58711  0.81709  1.0000
  C   C4071     1.0  0.92712  0.50385  0.69923  1.0000
  H   H7228     1.0  0.82909  0.89050  0.87738  1.0000
  H   H7229     1.0  0.85435  0.67666  0.67727  1.0000
  H   H7230     1.0  0.83814  0.88785  0.80335  1.0000
  C   C4072     1.0  0.81431  0.87315  0.84796  1.0000
  H   H7231     1.0  0.89542  0.89941  0.84411  1.0000
  H   H7232     1.0  0.89786  0.89896  0.89252  1.0000
  Fe  Fe455     1.0  0.82798  0.84925  0.96463  1.0000
  H   H7233     1.0  0.90172  0.54242  0.73275  1.0000
  H   H7234     1.0  0.91736  0.61382  0.93183  1.0000
  H   H7235     1.0  0.81720  0.96614  0.82628  1.0000
  N   N225      1.0  0.90226  0.92499  0.91637  1.0000
  C   C4073     1.0  0.86051  0.75746  0.70440  1.0000
  H   H7236     1.0  0.89073  0.66470  0.58040  1.0000
  H   H7237     1.0  0.88468  0.61848  0.93607  1.0000
  N   N226      1.0  0.93558  0.83109  0.88322  1.0000
  C   C4074     1.0  0.91922  0.82485  0.90163  1.0000
  C   C4075     1.0  0.94648  0.82682  0.90071  1.0000
  C   C4076     1.0  0.93884  0.84861  0.87480  1.0000
  C   C4077     1.0  0.93821  0.82547  0.85670  1.0000
  C   C4078     1.0  0.92848  0.80906  0.85845  1.0000
  C   C4079     1.0  0.90672  0.83082  0.88894  1.0000
  C   C4080     1.0  0.95564  0.85763  0.85831  1.0000
  C   C4081     1.0  0.94525  0.80927  0.91158  1.0000
  H   H7238     1.0  0.89343  0.56154  0.96848  1.0000
  C   C4082     1.0  0.93466  0.80358  0.83256  1.0000
  C   C4083     1.0  0.89052  0.82061  0.90448  1.0000
  H   H7239     1.0  0.78776  0.98421  0.86194  1.0000
  H   H7240     1.0  0.91838  0.82793  0.92221  1.0000
  H   H7241     1.0  0.91574  0.81199  0.90760  1.0000
  H   H7242     1.0  0.95871  0.83192  0.88836  1.0000
  H   H7243     1.0  0.94498  0.83185  0.91926  1.0000
  H   H7244     1.0  0.93591  0.85293  0.89385  1.0000
  H   H7245     1.0  0.93136  0.85240  0.86121  1.0000
  H   H7246     1.0  0.93590  0.83354  0.83886  1.0000
  H   H7247     1.0  0.95061  0.82571  0.84933  1.0000
  H   H7248     1.0  0.91633  0.80928  0.85922  1.0000
  H   H7249     1.0  0.92840  0.80021  0.87743  1.0000
  H   H7250     1.0  0.90697  0.84277  0.89109  1.0000
  H   H7251     1.0  0.90872  0.83124  0.86613  1.0000
  H   H7252     1.0  0.95984  0.85277  0.84060  1.0000
  H   H7253     1.0  0.96343  0.85717  0.87264  1.0000
  C   C4084     1.0  0.79614  0.71330  0.65017  1.0000
  H   H7254     1.0  0.94951  0.80463  0.89350  1.0000
  C   C4085     1.0  0.87941  0.61665  0.67187  1.0000
  H   H7255     1.0  0.89293  0.60149  0.68823  1.0000
  H   H7256     1.0  0.90159  0.53882  0.68495  1.0000
  H   H7257     1.0  0.93530  0.81219  0.81267  1.0000
  H   H7258     1.0  0.94635  0.80182  0.83229  1.0000
  H   H7259     1.0  0.92693  0.79234  0.83333  1.0000
  H   H7260     1.0  0.88181  0.82581  0.89623  1.0000
  H   H7261     1.0  0.88922  0.80878  0.90120  1.0000
  H   H7262     1.0  0.88822  0.81973  0.92752  1.0000
  H   H7263     1.0  0.80310  0.90060  0.75715  1.0000
  H   H7264     1.0  0.93962  0.50538  0.69130  1.0000
  C   C4086     1.0  0.95676  0.87478  0.84580  1.0000
  N   N227      1.0  0.86362  0.63686  0.65942  1.0000
  C   C4087     1.0  0.85321  0.64536  0.67385  1.0000
  C   C4088     1.0  0.85428  0.62592  0.64674  1.0000
  C   C4089     1.0  0.86893  0.62695  0.68199  1.0000
  C   C4090     1.0  0.87760  0.64772  0.63731  1.0000
  C   C4091     1.0  0.87563  0.66350  0.62111  1.0000
  C   C4092     1.0  0.86026  0.65497  0.69245  1.0000
  H   H7265     1.0  0.90790  0.94377  0.93597  1.0000
  H   H7266     1.0  0.91856  0.91695  0.95767  1.0000
  C   C4093     1.0  0.97646  0.72903  0.77579  1.0000
  H   H7267     1.0  0.88026  0.57345  0.97619  1.0000
  H   H7268     1.0  0.84706  0.90560  0.96227  1.0000
  H   H7269     1.0  0.78767  0.69307  0.71966  1.0000
  H   H7270     1.0  0.95112  0.66752  0.93798  1.0000
  H   H7271     1.0  0.82760  0.98027  0.85862  1.0000
  H   H7272     1.0  0.80144  0.88331  0.89630  1.0000
  C   C4094     1.0  0.97881  0.81987  0.80583  1.0000
  H   H7273     1.0  0.85778  0.66555  0.48361  1.0000
  H   H7274     1.0  0.96752  0.81260  0.92188  1.0000
  H   H7275     1.0  0.79292  0.67103  0.53543  1.0000
  H   H7276     1.0  0.89644  0.62574  0.97470  1.0000
  H   H7277     1.0  0.98062  0.65951  0.91555  1.0000
  C   C4095     1.0  0.82592  0.49610  0.89232  1.0000
  H   H7278     1.0  0.93623  0.85103  0.96110  1.0000
  H   H7279     1.0  0.95446  0.79380  0.93904  1.0000
  C   C4096     1.0  0.97978  0.83477  0.81027  1.0000
  N   N228      1.0  0.81122  0.66841  0.50279  1.0000
  C   C4097     1.0  0.79783  0.73054  0.60193  1.0000
  H   H7280     1.0  0.78513  0.67538  0.68875  1.0000
  H   H7281     1.0  0.79722  0.77379  0.68341  1.0000
  H   H7282     1.0  0.78852  0.59551  0.75046  1.0000
  C   C4098     1.0  0.97872  0.50292  0.65132  1.0000
  H   H7283     1.0  0.79671  0.74055  0.61090  1.0000
  C   C4099     1.0  0.81296  0.52603  0.96855  1.0000
  H   H7284     1.0  0.97633  0.49797  0.58639  1.0000
  H   H7285     1.0  0.83360  0.50377  0.71968  1.0000
  H   H7286     1.0  0.78628  0.80193  0.89134  1.0000
  H   H7287     1.0  0.79107  0.56666  0.79134  1.0000
  H   H7288     1.0  0.93596  0.67421  0.95747  1.0000
  H   H7289     1.0  0.79583  0.91105  0.65630  1.0000
  C   C4100     1.0  0.78553  0.59083  0.73292  1.0000
  H   H7290     1.0  0.88139  0.96862  0.91862  1.0000
  S   S912      1.0  0.98261  0.65790  0.85539  1.0000
  H   H7291     1.0  0.79865  0.56573  0.72844  1.0000
  Fe  Fe456     1.0  0.97870  0.76737  0.73893  1.0000
  C   C4101     1.0  0.89227  0.96484  0.91738  1.0000
  H   H7292     1.0  0.80823  0.64871  0.48470  1.0000
  H   H7293     1.0  0.95336  0.67391  0.96893  1.0000
  C   C4102     1.0  0.97944  0.65492  0.93786  1.0000
  H   H7294     1.0  0.78850  0.89099  0.65722  1.0000
  H   H7295     1.0  0.98122  0.74076  0.69548  1.0000
  C   C4103     1.0  0.79233  0.68392  0.48498  1.0000
  H   H7296     1.0  0.98254  0.72832  0.67210  1.0000
  C   C4104     1.0  0.82886  0.49102  0.72412  1.0000
